MODEL 1
REMARK VINA RESULT: -5.397405167      0.000      0.000
REMARK  3 active torsions:
REMARK  status: ('A' for Active; 'I' for Inactive)
REMARK    1  A    between atoms: C3_6  and  C4_7
REMARK    2  A    between atoms: C4_7  and  O1_8
REMARK    3  A    between atoms: C4_7  and  C5_10
ROOT
HETATM    1  C5  UNL     1       8.237   9.858 123.016  1.00  0.00     0.148 A
HETATM    2  N3  UNL     1       7.909   9.788 121.713  1.00  0.00    -0.289 N
ATOM      3  H3  UNL     1       6.921   9.837 121.466  1.00  0.00     0.187 HD
HETATM    4  N4  UNL     1       8.787   9.658 120.730  1.00  0.00    -0.251 N
ATOM      5  H4  UNL     1       8.463   9.615 119.764  1.00  0.00     0.191 HD
HETATM    6  C6  UNL     1      10.095   9.584 120.993  1.00  0.00     0.341 A
HETATM    7  O2  UNL     1      11.014   9.468 120.135  1.00  0.00    -0.245 OA
HETATM    8  N5  UNL     1      10.517   9.641 122.305  1.00  0.00    -0.272 N
ATOM      9  H5  UNL     1      11.511   9.583 122.528  1.00  0.00     0.173 HD
HETATM   10  C7  UNL     1       9.604   9.775 123.296  1.00  0.00     0.280 A
HETATM   11  O3  UNL     1       9.992   9.814 124.474  1.00  0.00    -0.265 OA
ENDROOT
BRANCH   1  12
HETATM   12  C4  UNL     1       7.329  10.185 124.150  1.00  0.00     0.101 C
BRANCH  12  13
HETATM   13  C3  UNL     1       6.227  11.142 123.919  1.00  0.00     0.161 C
HETATM   14  C2  UNL     1       6.134  12.411 124.682  1.00  0.00     0.154 C
HETATM   15  N2  UNL     1       5.138  12.087 125.709  1.00  0.00    -0.362 N
HETATM   16  C1  UNL     1       4.484  11.036 125.418  1.00  0.00     0.184 C
ATOM     17  H2  UNL     1       4.989  12.637 126.554  1.00  0.00     0.162 HD
HETATM   18  N1  UNL     1       3.442  10.508 126.259  1.00  0.00    -0.064 NA
HETATM   19  N6  UNL     1       4.955  10.515 124.203  1.00  0.00    -0.352 N
ATOM     20  H6  UNL     1       4.485   9.819 123.624  1.00  0.00     0.163 HD
ENDBRANCH  12  13
BRANCH  12  21
HETATM   21  O1  UNL     1       6.973   9.087 124.891  1.00  0.00    -0.360 OA
ATOM     22  H1  UNL     1       7.503   8.953 125.668  1.00  0.00     0.217 HD
ENDBRANCH  12  21
ENDBRANCH   1  12
TORSDOF 3
ENDMDL