MODEL 2
REMARK VINA RESULT: -5.230958463      1.934      2.967
REMARK  3 active torsions:
REMARK  status: ('A' for Active; 'I' for Inactive)
REMARK    1  A    between atoms: N1_1  and  C1_4
REMARK    2  A    between atoms: C3_8  and  C4_9
REMARK    3  A    between atoms: N3_10  and  N4_12
ROOT
HETATM    1  C1  UNL     1      10.178  10.303 120.881  1.00  0.00     0.141 C
HETATM    2  N2  UNL     1       9.014   9.600 120.939  1.00  0.00    -0.349 N
ATOM      3  H2  UNL     1       8.854   8.912 120.203  1.00  0.00     0.167 HD
HETATM    4  C2  UNL     1       8.054   9.724 121.876  1.00  0.00     0.108 C
HETATM    5  C3  UNL     1       8.184  10.162 123.173  1.00  0.00     0.064 C
HETATM    6  C6  UNL     1       8.981  11.265 123.530  1.00  0.00     0.259 C
HETATM    7  O1  UNL     1       8.651  11.885 124.572  1.00  0.00    -0.267 OA
HETATM    8  N7  UNL     1      10.070  11.719 122.855  1.00  0.00    -0.308 N
ATOM      9  H7  UNL     1      10.556  12.486 123.318  1.00  0.00     0.170 HD
HETATM   10  C7  UNL     1      10.624  11.343 121.690  1.00  0.00     0.163 C
HETATM   11  N8  UNL     1      11.771  12.068 121.236  1.00  0.00    -0.079 NA
ENDROOT
BRANCH   5  12
HETATM   12  C4  UNL     1       7.499   9.542 124.261  1.00  0.00     0.125 C
HETATM   13  N3  UNL     1       6.402   9.861 124.746  1.00  0.00    -0.309 N
ATOM     14  H3  UNL     1       6.081   9.289 125.528  1.00  0.00     0.186 HD
BRANCH  13  15
HETATM   15  N4  UNL     1       5.574  10.868 124.378  1.00  0.00    -0.276 N
HETATM   16  C5  UNL     1       4.476  11.082 125.008  1.00  0.00     0.215 C
HETATM   17  N5  UNL     1       3.656  12.157 124.565  1.00  0.00    -0.065 NA
HETATM   18  N6  UNL     1       4.102  10.268 126.107  1.00  0.00    -0.065 NA
ATOM     19  H4  UNL     1       5.826  11.464 123.589  1.00  0.00     0.189 HD
ENDBRANCH  13  15
ENDBRANCH   5  12
BRANCH   1  20
HETATM   20  N1  UNL     1      11.021   9.995 119.954  1.00  0.00    -0.383 N
ATOM     21  H12 UNL     1      11.088   8.989 119.801  1.00  0.00     0.157 HD
ATOM     22  H11 UNL     1      11.515  10.756 119.488  1.00  0.00     0.157 HD
ENDBRANCH   1  20
TORSDOF 3
ENDMDL