MODEL 3
REMARK VINA RESULT: -4.401360004      3.683      5.572
REMARK  5 active torsions:
REMARK  status: ('A' for Active; 'I' for Inactive)
REMARK    1  A    between atoms: N1_3  and  N2_5
REMARK    2  A    between atoms: N2_5  and  C3_7
REMARK    3  A    between atoms: C7_17  and  C8_18
REMARK    4  A    between atoms: C8_18  and  N5_19
REMARK    5  A    between atoms: C8_18  and  N6_23
ROOT
HETATM    1  C3  UNL     1       9.221  11.402 123.382  1.00  0.00     0.134 C
HETATM    2  N3  UNL     1      10.256  11.702 122.547  1.00  0.00    -0.303 N
ATOM      3  H3  UNL     1      10.803  12.528 122.787  1.00  0.00     0.171 HD
HETATM    4  C4  UNL     1      10.641  11.037 121.442  1.00  0.00     0.315 C
HETATM    5  O1  UNL     1      11.715  11.430 120.932  1.00  0.00    -0.262 OA
HETATM    6  C5  UNL     1      10.014   9.973 120.788  1.00  0.00     0.313 C
HETATM    7  O2  UNL     1      10.669   9.542 119.782  1.00  0.00    -0.262 OA
HETATM    8  N4  UNL     1       8.855   9.356 121.053  1.00  0.00    -0.328 N
ATOM      9  H4  UNL     1       8.576   8.603 120.425  1.00  0.00     0.168 HD
HETATM   10  C6  UNL     1       8.014   9.643 122.091  1.00  0.00     0.106 C
HETATM   11  C7  UNL     1       8.192  10.517 123.146  1.00  0.00     0.060 C
ENDROOT
BRANCH  11  12
HETATM   12  C8  UNL     1       7.116  10.499 124.173  1.00  0.00     0.416 C
BRANCH  12  13
HETATM   13  N5  UNL     1       5.830  10.805 123.615  1.00  0.00    -0.046 N
ATOM     14  H53 UNL     1       5.080  10.391 124.168  1.00  0.00     0.277 HD
ATOM     15  H52 UNL     1       5.599  11.790 123.740  1.00  0.00     0.277 HD
ATOM     16  H51 UNL     1       5.761  10.530 122.635  1.00  0.00     0.277 HD
ENDBRANCH  12  13
BRANCH  12  17
HETATM   17  N6  UNL     1       7.156   9.172 124.782  1.00  0.00    -0.046 N
ATOM     18  H63 UNL     1       6.298   8.637 124.648  1.00  0.00     0.277 HD
ATOM     19  H62 UNL     1       7.783   8.524 124.303  1.00  0.00     0.277 HD
ATOM     20  H61 UNL     1       7.395   9.316 125.763  1.00  0.00     0.277 HD
ENDBRANCH  12  17
ENDBRANCH  11  12
BRANCH   1  21
HETATM   21  N2  UNL     1       9.198  12.001 124.505  1.00  0.00    -0.285 N
ATOM     22  H2  UNL     1       9.207  11.422 125.344  1.00  0.00     0.188 HD
BRANCH  21  23
HETATM   23  N1  UNL     1       9.161  13.365 124.681  1.00  0.00    -0.315 N
HETATM   24  C2  UNL     1       8.166  14.116 124.353  1.00  0.00     0.075 C
HETATM   25  C1  UNL     1       8.321  15.579 124.626  1.00  0.00     0.056 C
ATOM     26  H1  UNL     1       9.977  13.813 125.099  1.00  0.00     0.185 HD
ENDBRANCH  21  23
ENDBRANCH   1  21
TORSDOF 5
ENDMDL