MODEL 2
REMARK VINA RESULT: -4.514921074     10.181     12.449
REMARK  3 active torsions:
REMARK  status: ('A' for Active; 'I' for Inactive)
REMARK    1  A    between atoms: O1_2  and  C2_3
REMARK    2  A    between atoms: C2_3  and  N1_4
REMARK    3  A    between atoms: C5_15  and  N6_16
ROOT
HETATM    1  N1  UNL     1      14.302   8.969 117.319  1.00  0.00    -0.069 N
HETATM    2  N2  UNL     1      15.410   8.894 118.233  1.00  0.00    -0.228 N
ATOM      3  H2  UNL     1      15.517   9.581 118.979  1.00  0.00     0.193 HD
HETATM    4  C3  UNL     1      16.336   7.863 118.078  1.00  0.00     0.355 A
HETATM    5  O2  UNL     1      17.346   7.721 118.842  1.00  0.00    -0.244 OA
HETATM    6  N3  UNL     1      16.190   6.914 117.047  1.00  0.00    -0.225 N
ATOM      7  H3  UNL     1      16.868   6.161 116.934  1.00  0.00     0.193 HD
HETATM    8  N4  UNL     1      15.099   7.023 116.181  1.00  0.00    -0.024 N
HETATM    9  C4  UNL     1      14.156   8.017 116.286  1.00  0.00     0.745 A
HETATM   10  N5  UNL     1      13.133   8.057 115.413  1.00  0.00    -0.019 N
ATOM     11  H5  UNL     1      12.429   8.791 115.483  1.00  0.00     0.203 HD
HETATM   12  C5  UNL     1      13.041   7.128 114.450  1.00  0.00     0.694 A
HETATM   13  N7  UNL     1      13.941   6.138 114.311  1.00  0.00    -0.139 N
ATOM     14  H7  UNL     1      13.857   5.439 113.573  1.00  0.00     0.189 HD
HETATM   15  C6  UNL     1      14.954   6.111 115.188  1.00  0.00     0.374 A
HETATM   16  O3  UNL     1      15.824   5.198 115.095  1.00  0.00    -0.244 OA
ENDROOT
BRANCH   1  17
HETATM   17  C2  UNL     1      13.399  10.052 117.543  1.00  0.00     0.269 C
BRANCH  17  18
HETATM   18  O1  UNL     1      12.111   9.855 117.831  1.00  0.00    -0.349 OA
HETATM   19  C1  UNL     1      11.234  10.641 117.109  1.00  0.00     0.211 C
ENDBRANCH  17  18
ENDBRANCH   1  17
BRANCH  12  20
HETATM   20  N6  UNL     1      12.051   7.168 113.608  1.00  0.00    -0.234 N
ATOM     21  H62 UNL     1      11.885   8.043 113.111  1.00  0.00     0.174 HD
ATOM     22  H61 UNL     1      11.474   6.339 113.466  1.00  0.00     0.174 HD
ENDBRANCH  12  20
TORSDOF 3
ENDMDL