MODEL 1
REMARK VINA RESULT: -5.574672137      0.000      0.000
REMARK  4 active torsions:
REMARK  status: ('A' for Active; 'I' for Inactive)
REMARK       I    between atoms: C1_2  and  N3_4
REMARK    1  A    between atoms: N3_4  and  N4_6
REMARK    2  A    between atoms: N4_6  and  C2_8
REMARK    3  A    between atoms: C4_10  and  C5_11
REMARK    4  A    between atoms: N5_12  and  O1_14
ROOT
HETATM    1  C2  UNL     1       7.488   9.896 122.296  1.00  0.00     0.126 C
HETATM    2  C3  UNL     1       7.508  10.378 123.656  1.00  0.00     0.077 A
HETATM    3  C4  UNL     1       6.415  10.996 124.239  1.00  0.00     0.070 A
HETATM    4  N6  UNL     1       6.534  11.408 125.508  1.00  0.00    -0.306 N
ATOM      5  H6  UNL     1       5.737  11.865 125.953  1.00  0.00     0.171 HD
HETATM    6  C6  UNL     1       7.664  11.241 126.215  1.00  0.00     0.327 A
HETATM    7  O2  UNL     1       7.748  11.639 127.408  1.00  0.00    -0.247 OA
HETATM    8  N7  UNL     1       8.753  10.647 125.696  1.00  0.00    -0.275 N
ATOM      9  H7  UNL     1       9.609  10.523 126.238  1.00  0.00     0.173 HD
HETATM   10  C7  UNL     1       8.651  10.229 124.426  1.00  0.00     0.263 A
HETATM   11  O3  UNL     1       9.678   9.667 123.930  1.00  0.00    -0.267 OA
ENDROOT
BRANCH   1  12
HETATM   12  N4  UNL     1       8.539   9.331 121.818  1.00  0.00    -0.309 N
ATOM     13  H4  UNL     1       8.908   8.501 122.282  1.00  0.00     0.186 HD
BRANCH  12  14
HETATM   14  N3  UNL     1       9.182   9.807 120.702  1.00  0.00    -0.276 N
HETATM   15  C1  UNL     1      10.409   9.505 120.457  1.00  0.00     0.215 C
HETATM   16  N1  UNL     1      10.983  10.050 119.274  1.00  0.00    -0.065 NA
HETATM   17  N2  UNL     1      11.159   8.671 121.319  1.00  0.00    -0.065 NA
ATOM     18  H3  UNL     1       8.677  10.412 120.054  1.00  0.00     0.189 HD
ENDBRANCH  12  14
ENDBRANCH   1  12
BRANCH   3  19
HETATM   19  C5  UNL     1       5.172  11.196 123.508  1.00  0.00     0.144 C
HETATM   20  N5  UNL     1       4.114  10.565 123.882  1.00  0.00    -0.278 N
ATOM     21  H5  UNL     1       4.186   9.940 124.685  1.00  0.00     0.193 HD
BRANCH  20  22
HETATM   22  O1  UNL     1       2.907  10.684 123.268  1.00  0.00    -0.290 OA
ATOM     23  H1  UNL     1       2.117  10.249 123.568  1.00  0.00     0.244 HD
ENDBRANCH  20  22
ENDBRANCH   3  19
TORSDOF 4
ENDMDL