MODEL 2
REMARK VINA RESULT: -4.428157859      1.482      1.686
REMARK  4 active torsions:
REMARK  status: ('A' for Active; 'I' for Inactive)
REMARK    1  A    between atoms: N1_1  and  C1_4
REMARK    2  A    between atoms: C2_7  and  N3_8
REMARK    3  A    between atoms: N4_11  and  S1_12
REMARK    4  A    between atoms: S1_12  and  N5_15
ROOT
HETATM    1  C1  UNL     1       4.070  11.144 123.782  1.00  0.00     0.706 A
HETATM    2  N2  UNL     1       3.938  12.106 124.730  1.00  0.00    -0.019 N
ATOM      3  H2  UNL     1       3.072  12.458 125.138  1.00  0.00     0.203 HD
HETATM    4  C2  UNL     1       5.189  12.496 125.015  1.00  0.00     0.723 A
HETATM    5  N4  UNL     1       6.087  11.818 124.285  1.00  0.00     0.026 N
HETATM    6  N8  UNL     1       5.384  10.993 123.535  1.00  0.00    -0.100 N
ATOM      7  H8  UNL     1       5.779  10.335 122.864  1.00  0.00     0.207 HD
ENDROOT
BRANCH   5   8
HETATM    8  S1  UNL     1       7.805  12.033 124.364  1.00  0.00     0.360 S
HETATM    9  O1  UNL     1       8.059  13.523 124.191  1.00  0.00    -0.180 OA
HETATM   10  O2  UNL     1       8.308  11.687 125.737  1.00  0.00    -0.180 OA
BRANCH   8  11
HETATM   11  N5  UNL     1       8.564  11.111 123.154  1.00  0.00    -0.241 N
HETATM   12  C3  UNL     1       8.511   9.832 123.167  1.00  0.00     0.211 C
HETATM   13  N6  UNL     1       7.812   9.174 124.202  1.00  0.00    -0.066 NA
HETATM   14  N7  UNL     1       9.143   9.075 122.161  1.00  0.00    -0.066 NA
ATOM     15  H5  UNL     1       9.069  11.584 122.406  1.00  0.00     0.182 HD
ENDBRANCH   8  11
ENDBRANCH   5   8
BRANCH   4  16
HETATM   16  N3  UNL     1       5.505  13.417 125.888  1.00  0.00    -0.232 N
ATOM     17  H32 UNL     1       5.427  14.418 125.713  1.00  0.00     0.174 HD
ATOM     18  H31 UNL     1       5.859  13.233 126.827  1.00  0.00     0.174 HD
ENDBRANCH   4  16
BRANCH   1  19
HETATM   19  N1  UNL     1       3.052  10.545 123.276  1.00  0.00    -0.233 N
ATOM     20  H12 UNL     1       2.069  10.815 123.256  1.00  0.00     0.174 HD
ATOM     21  H11 UNL     1       3.138   9.650 122.796  1.00  0.00     0.174 HD
ENDBRANCH   1  19
TORSDOF 4
ENDMDL