MODEL 4
REMARK VINA RESULT: -4.776087558      2.063      5.256
REMARK  2 active torsions:
REMARK  status: ('A' for Active; 'I' for Inactive)
REMARK    1  A    between atoms: O1_2  and  N1_3
REMARK    2  A    between atoms: N1_3  and  C2_5
ROOT
HETATM    1  C2  UNL     1       6.250  10.692 124.569  1.00  0.00     0.196 C
HETATM    2  N2  UNL     1       6.560  10.410 123.273  1.00  0.00    -0.321 N
ATOM      3  H2  UNL     1       5.805  10.444 122.587  1.00  0.00     0.169 HD
HETATM    4  C3  UNL     1       7.802  10.084 122.829  1.00  0.00     0.144 A
HETATM    5  N3  UNL     1       8.047   9.451 121.660  1.00  0.00    -0.292 N
ATOM      6  H3  UNL     1       7.362   9.138 120.972  1.00  0.00     0.172 HD
HETATM    7  C4  UNL     1       9.369   9.319 121.595  1.00  0.00     0.326 A
HETATM    8  O2  UNL     1       9.960   8.762 120.621  1.00  0.00    -0.247 OA
HETATM    9  N4  UNL     1       9.984   9.834 122.658  1.00  0.00    -0.301 N
ATOM     10  H4  UNL     1      10.988   9.854 122.836  1.00  0.00     0.171 HD
HETATM   11  C5  UNL     1       9.008  10.326 123.454  1.00  0.00     0.149 A
HETATM   12  C6  UNL     1       9.327  10.932 124.651  1.00  0.00     0.279 C
HETATM   13  O3  UNL     1      10.532  11.197 124.895  1.00  0.00    -0.265 OA
HETATM   14  N5  UNL     1       8.410  11.272 125.602  1.00  0.00    -0.285 N
ATOM     15  H5  UNL     1       8.792  11.713 126.438  1.00  0.00     0.172 HD
HETATM   16  C7  UNL     1       7.073  11.109 125.594  1.00  0.00     0.294 C
HETATM   17  O4  UNL     1       6.447  11.361 126.657  1.00  0.00    -0.264 OA
ENDROOT
BRANCH   1  18
HETATM   18  N1  UNL     1       4.997  10.531 124.815  1.00  0.00    -0.246 N
ATOM     19  H1  UNL     1       4.726   9.816 125.491  1.00  0.00     0.196 HD
BRANCH  18  20
HETATM   20  O1  UNL     1       4.018  11.262 124.223  1.00  0.00    -0.284 OA
HETATM   21  C1  UNL     1       3.375  12.302 124.921  1.00  0.00     0.237 C
ENDBRANCH  18  20
ENDBRANCH   1  18
TORSDOF 2
ENDMDL