MODEL 4
REMARK VINA RESULT: -4.569764234      2.995      4.477
REMARK  2 active torsions:
REMARK  status: ('A' for Active; 'I' for Inactive)
REMARK    1  A    between atoms: C2_3  and  C3_4
REMARK    2  A    between atoms: C2_3  and  N3_7
ROOT
HETATM    1  N3  UNL     1       3.382  13.793   8.287  1.00  0.00    -0.200 N
HETATM    2  N4  UNL     1       4.188  13.716   7.191  1.00  0.00    -0.295 N
ATOM      3  H4  UNL     1       4.171  14.506   6.547  1.00  0.00     0.187 HD
HETATM    4  C4  UNL     1       4.990  12.713   6.887  1.00  0.00     0.182 A
HETATM    5  C5  UNL     1       5.019  11.642   7.754  1.00  0.00     0.266 A
HETATM    6  O2  UNL     1       5.779  10.682   7.476  1.00  0.00    -0.267 OA
HETATM    7  N5  UNL     1       4.242  11.690   8.831  1.00  0.00    -0.273 N
ATOM      8  H5  UNL     1       4.255  10.903   9.480  1.00  0.00     0.173 HD
HETATM    9  C6  UNL     1       3.429  12.750   9.104  1.00  0.00     0.349 A
HETATM   10  O3  UNL     1       2.773  12.646  10.137  1.00  0.00    -0.245 OA
ENDROOT
BRANCH   1  11
HETATM   11  C2  UNL     1       2.587  14.949   8.450  1.00  0.00     0.139 C
HETATM   12  C1  UNL     1       1.338  15.140   8.289  1.00  0.00     0.137 C
HETATM   13  N1  UNL     1       0.222  14.399   7.912  1.00  0.00    -0.113 NA
BRANCH  11  14
HETATM   14  C3  UNL     1       3.338  16.171   8.888  1.00  0.00     0.284 C
HETATM   15  N2  UNL     1       4.731  16.117   9.153  1.00  0.00    -0.056 NA
HETATM   16  O1  UNL     1       2.776  17.268   9.034  1.00  0.00    -0.269 OA
ENDBRANCH  11  14
ENDBRANCH   1  11
TORSDOF 2
ENDMDL