MODEL 5
REMARK VINA RESULT: -4.511081129      1.438      2.894
REMARK  4 active torsions:
REMARK  status: ('A' for Active; 'I' for Inactive)
REMARK    1  A    between atoms: N1_1  and  N2_4
REMARK    2  A    between atoms: N2_4  and  C1_6
REMARK    3  A    between atoms: C4_15  and  C5_16
REMARK    4  A    between atoms: C5_16  and  N5_17
ROOT
HETATM    1  C1  UNL     1      -0.072  16.602  14.285  1.00  0.00     0.141 A
HETATM    2  N3  UNL     1      -1.405  16.720  14.335  1.00  0.00    -0.292 N
ATOM      3  H3  UNL     1      -1.857  17.403  13.727  1.00  0.00     0.172 HD
HETATM    4  C2  UNL     1      -2.168  15.982  15.143  1.00  0.00     0.328 A
HETATM    5  O1  UNL     1      -3.422  16.127  15.162  1.00  0.00    -0.247 OA
HETATM    6  N4  UNL     1      -1.554  15.102  15.913  1.00  0.00    -0.275 N
ATOM      7  H4  UNL     1      -2.115  14.524  16.541  1.00  0.00     0.173 HD
HETATM    8  C3  UNL     1      -0.200  14.933  15.904  1.00  0.00     0.265 A
HETATM    9  O2  UNL     1       0.291  14.067  16.677  1.00  0.00    -0.267 OA
HETATM   10  C4  UNL     1       0.615  15.663  15.099  1.00  0.00     0.099 A
ENDROOT
BRANCH   1  11
HETATM   11  N2  UNL     1       0.685  17.459  13.431  1.00  0.00    -0.291 N
ATOM     12  H2  UNL     1       1.205  18.255  13.802  1.00  0.00     0.188 HD
BRANCH  11  13
HETATM   13  N1  UNL     1       0.682  17.160  12.065  1.00  0.00    -0.344 N
ATOM     14  H12 UNL     1       1.421  17.511  11.456  1.00  0.00     0.176 HD
ATOM     15  H11 UNL     1      -0.084  16.584  11.717  1.00  0.00     0.176 HD
ENDBRANCH  11  13
ENDBRANCH   1  11
BRANCH  10  16
HETATM   16  C5  UNL     1       2.039  15.595  14.951  1.00  0.00     0.188 C
BRANCH  16  17
HETATM   17  N5  UNL     1       2.764  14.831  14.299  1.00  0.00    -0.126 N
HETATM   18  O3  UNL     1       2.767  14.962  12.875  1.00  0.00    -0.532 OA
HETATM   19  O4  UNL     1       3.567  13.852  14.732  1.00  0.00    -0.532 OA
ENDBRANCH  16  17
ENDBRANCH  10  16
TORSDOF 4
ENDMDL