MODEL 2
REMARK VINA RESULT: -4.452071790      1.870      3.300
REMARK  3 active torsions:
REMARK  status: ('A' for Active; 'I' for Inactive)
REMARK    1  A    between atoms: N1_1  and  C1_4
REMARK    2  A    between atoms: C2_7  and  C3_8
REMARK    3  A    between atoms: C4_11  and  N4_12
ROOT
HETATM    1  C1  UNL     1       4.321  10.076   3.875  1.00  0.00     0.679 A
HETATM    2  N2  UNL     1       4.171  10.835   4.958  1.00  0.00    -0.184 N
ATOM      3  H2  UNL     1       3.311  11.378   5.035  1.00  0.00     0.184 HD
HETATM    4  C2  UNL     1       5.065  10.944   5.962  1.00  0.00     0.152 A
HETATM    5  C4  UNL     1       6.222  10.212   5.858  1.00  0.00     0.203 A
HETATM    6  C5  UNL     1       6.369   9.418   4.714  1.00  0.00     0.295 A
HETATM    7  O4  UNL     1       7.436   8.729   4.596  1.00  0.00    -0.265 OA
HETATM    8  N5  UNL     1       5.444   9.347   3.744  1.00  0.00    -0.154 N
ATOM      9  H5  UNL     1       5.589   8.754   2.927  1.00  0.00     0.187 HD
ENDROOT
BRANCH   1  10
HETATM   10  N1  UNL     1       3.406  10.020   2.937  1.00  0.00    -0.234 N
ATOM     11  H12 UNL     1       3.575  10.486   2.046  1.00  0.00     0.174 HD
ATOM     12  H11 UNL     1       2.526   9.522   3.072  1.00  0.00     0.174 HD
ENDBRANCH   1  10
BRANCH   4  13
HETATM   13  C3  UNL     1       4.827  11.812   7.109  1.00  0.00     0.284 C
HETATM   14  N3  UNL     1       4.060  11.491   8.238  1.00  0.00    -0.056 NA
HETATM   15  O1  UNL     1       5.376  12.968   7.068  1.00  0.00    -0.269 OA
ENDBRANCH   4  13
BRANCH   5  16
HETATM   16  N4  UNL     1       7.266  10.205   6.816  1.00  0.00    -0.107 N
HETATM   17  O2  UNL     1       7.236   9.378   7.761  1.00  0.00    -0.531 OA
HETATM   18  O3  UNL     1       8.324  11.069   6.711  1.00  0.00    -0.531 OA
ENDBRANCH   5  16
TORSDOF 3
ENDMDL