MODEL 3
REMARK VINA RESULT: -4.691505958      2.574      5.784
REMARK  3 active torsions:
REMARK  status: ('A' for Active; 'I' for Inactive)
REMARK    1  A    between atoms: N1_1  and  C1_4
REMARK    2  A    between atoms: N3_7  and  C2_8
REMARK    3  A    between atoms: C5_18  and  C6_19
ROOT
HETATM    1  C1  UNL     1       3.956  12.653   9.285  1.00  0.00     0.149 A
HETATM    2  N2  UNL     1       4.458  11.554   8.702  1.00  0.00    -0.261 N
ATOM      3  H2  UNL     1       4.359  10.608   9.068  1.00  0.00     0.191 HD
HETATM    4  N3  UNL     1       5.104  11.870   7.576  1.00  0.00    -0.180 N
HETATM    5  N6  UNL     1       5.006  13.175   7.456  1.00  0.00    -0.270 N
ATOM      6  H6  UNL     1       5.404  13.714   6.687  1.00  0.00     0.189 HD
HETATM    7  C5  UNL     1       4.319  13.704   8.466  1.00  0.00     0.160 A
ENDROOT
BRANCH   4   8
HETATM    8  C2  UNL     1       5.760  10.963   6.698  1.00  0.00     0.145 C
HETATM    9  N4  UNL     1       6.830  10.306   6.951  1.00  0.00    -0.353 N
HETATM   10  C3  UNL     1       7.233   9.481   5.866  1.00  0.00     0.356 C
ATOM     11  H4  UNL     1       7.338  10.369   7.833  1.00  0.00     0.162 HD
HETATM   12  N5  UNL     1       6.075   9.395   5.023  1.00  0.00    -0.053 N
HETATM   13  C4  UNL     1       5.317  10.615   5.344  1.00  0.00     0.313 C
ATOM     14  H52 UNL     1       6.284   9.278   4.031  1.00  0.00     0.279 HD
ATOM     15  H51 UNL     1       5.544   8.530   5.124  1.00  0.00     0.279 HD
ENDBRANCH   4   8
BRANCH   1  16
HETATM   16  N1  UNL     1       3.283  12.770  10.364  1.00  0.00    -0.382 N
ATOM     17  H12 UNL     1       3.361  12.148  11.168  1.00  0.00     0.157 HD
ATOM     18  H11 UNL     1       2.577  13.460  10.620  1.00  0.00     0.157 HD
ENDBRANCH   1  16
BRANCH   7  19
HETATM   19  C6  UNL     1       4.022  15.122   8.647  1.00  0.00     0.286 C
HETATM   20  N7  UNL     1       4.305  15.791   9.850  1.00  0.00    -0.056 NA
HETATM   21  O1  UNL     1       3.501  15.767   7.708  1.00  0.00    -0.269 OA
ENDBRANCH   7  19
TORSDOF 3
ENDMDL