MODEL 2
REMARK VINA RESULT: -4.207665061      5.528      7.043
REMARK  5 active torsions:
REMARK  status: ('A' for Active; 'I' for Inactive)
REMARK    1  A    between atoms: N1_1  and  N2_4
REMARK    2  A    between atoms: N2_4  and  C1_6
REMARK    3  A    between atoms: C2_11  and  C3_12
REMARK    4  A    between atoms: C3_12  and  N5_13
REMARK    5  A    between atoms: C3_12  and  C4_17
ROOT
HETATM    1  C1  UNL     1      -0.019  11.571   2.352  1.00  0.00     0.179 A
HETATM    2  N3  UNL     1       0.180  10.526   3.162  1.00  0.00    -0.278 N
ATOM      3  H3  UNL     1      -0.585  10.155   3.726  1.00  0.00     0.189 HD
HETATM    4  N4  UNL     1       1.332  10.004   3.218  1.00  0.00    -0.293 N
ATOM      5  H4  UNL     1       1.498   9.206   3.833  1.00  0.00     0.187 HD
HETATM    6  C2  UNL     1       2.323  10.487   2.483  1.00  0.00     0.109 A
HETATM    7  S1  UNL     1       1.538  11.770   1.668  1.00  0.00    -0.034 SA
ENDROOT
BRANCH   6   8
HETATM    8  C3  UNL     1       3.751  10.017   2.405  1.00  0.00     0.329 C
BRANCH   8   9
HETATM    9  N5  UNL     1       3.712   8.747   1.706  1.00  0.00    -0.061 N
ATOM     10  H53 UNL     1       4.286   8.728   0.863  1.00  0.00     0.275 HD
ATOM     11  H52 UNL     1       4.193   7.995   2.199  1.00  0.00     0.275 HD
ATOM     12  H51 UNL     1       2.726   8.556   1.532  1.00  0.00     0.275 HD
ENDBRANCH   8   9
BRANCH   8  13
HETATM   13  C4  UNL     1       4.252   9.803   3.770  1.00  0.00     0.268 C
HETATM   14  N6  UNL     1       3.658  10.420   4.907  1.00  0.00    -0.060 NA
HETATM   15  O1  UNL     1       5.239   9.054   3.989  1.00  0.00    -0.274 OA
ENDBRANCH   8  13
ENDBRANCH   6   8
BRANCH   1  16
HETATM   16  N2  UNL     1      -1.138  12.235   2.166  1.00  0.00    -0.285 N
ATOM     17  H2  UNL     1      -1.373  13.056   2.724  1.00  0.00     0.188 HD
BRANCH  16  18
HETATM   18  N1  UNL     1      -1.993  11.756   1.159  1.00  0.00    -0.343 N
ATOM     19  H12 UNL     1      -1.820  11.976   0.178  1.00  0.00     0.176 HD
ATOM     20  H11 UNL     1      -2.781  11.185   1.464  1.00  0.00     0.176 HD
ENDBRANCH  16  18
ENDBRANCH   1  16
TORSDOF 5
ENDMDL