MODEL 3
REMARK VINA RESULT: -5.079684289      4.324      5.942
REMARK  3 active torsions:
REMARK  status: ('A' for Active; 'I' for Inactive)
REMARK    1  A    between atoms: N4_10  and  N5_11
REMARK    2  A    between atoms: C3_13  and  C4_14
REMARK    3  A    between atoms: C5_15  and  O1_16
ROOT
HETATM    1  N5  UNL     1       3.525  14.126  11.260  1.00  0.00    -0.275 N
ATOM      2  H5  UNL     1       3.146  13.253  11.627  1.00  0.00     0.188 HD
HETATM    3  C3  UNL     1       3.555  15.153  12.030  1.00  0.00     0.128 C
ENDROOT
BRANCH   1   4
HETATM    4  N4  UNL     1       3.989  14.150   9.941  1.00  0.00    -0.020 N
HETATM    5  C1  UNL     1       4.140  13.086   9.140  1.00  0.00     0.713 A
HETATM    6  N1  UNL     1       3.876  11.877   9.471  1.00  0.00    -0.231 N
HETATM    7  N2  UNL     1       4.606  13.547   7.967  1.00  0.00    -0.184 N
ATOM      8  H12 UNL     1       3.991  11.067   8.861  1.00  0.00     0.174 HD
ATOM      9  H11 UNL     1       3.523  11.526  10.361  1.00  0.00     0.174 HD
HETATM   10  C2  UNL     1       4.751  14.889   8.018  1.00  0.00     0.217 A
ATOM     11  H2  UNL     1       4.819  12.968   7.155  1.00  0.00     0.185 HD
HETATM   12  N3  UNL     1       4.363  15.240   9.251  1.00  0.00    -0.260 N
ATOM     13  H3  UNL     1       4.352  16.195   9.612  1.00  0.00     0.190 HD
ENDBRANCH   1   4
BRANCH   3  14
HETATM   14  C4  UNL     1       3.052  15.050  13.398  1.00  0.00     0.072 A
HETATM   15  C5  UNL     1       3.419  14.326  14.512  1.00  0.00     0.136 A
HETATM   16  C6  UNL     1       2.396  14.894  15.238  1.00  0.00     0.256 A
HETATM   17  O2  UNL     1       1.944  14.815  16.429  1.00  0.00    -0.281 OA
HETATM   18  C7  UNL     1       2.020  15.622  14.134  1.00  0.00     0.239 A
HETATM   19  O3  UNL     1       1.122  16.469  13.854  1.00  0.00    -0.283 OA
BRANCH  15  20
HETATM   20  O1  UNL     1       4.418  13.384  14.823  1.00  0.00    -0.356 OA
ATOM     21  H1  UNL     1       5.041  13.257  15.530  1.00  0.00     0.218 HD
ENDBRANCH  15  20
ENDBRANCH   3  14
TORSDOF 3
ENDMDL