MODEL 2
REMARK VINA RESULT: -4.313444533      3.228      4.998
REMARK  4 active torsions:
REMARK  status: ('A' for Active; 'I' for Inactive)
REMARK    1  A    between atoms: N1_1  and  N2_4
REMARK    2  A    between atoms: N2_4  and  C1_6
REMARK    3  A    between atoms: C2_11  and  S1_12
REMARK    4  A    between atoms: S1_12  and  N5_13
ROOT
HETATM    1  C1  UNL     1       3.714  13.957   9.980  1.00  0.00     0.180 A
HETATM    2  N3  UNL     1       3.708  12.638  10.180  1.00  0.00    -0.277 N
ATOM      3  H3  UNL     1       3.386  12.245  11.065  1.00  0.00     0.189 HD
HETATM    4  N4  UNL     1       4.113  11.882   9.245  1.00  0.00    -0.281 N
ATOM      5  H4  UNL     1       4.115  10.872   9.385  1.00  0.00     0.188 HD
HETATM    6  C2  UNL     1       4.530  12.373   8.105  1.00  0.00     0.208 A
HETATM    7  S2  UNL     1       4.328  14.064   8.387  1.00  0.00    -0.018 SA
ENDROOT
BRANCH   6   8
HETATM    8  S1  UNL     1       5.135  11.534   6.667  1.00  0.00     0.280 S
HETATM    9  O1  UNL     1       6.109  10.478   7.109  1.00  0.00    -0.199 OA
HETATM   10  O2  UNL     1       4.013  10.858   5.950  1.00  0.00    -0.199 OA
BRANCH   8  11
HETATM   11  N5  UNL     1       5.938  12.682   5.656  1.00  0.00    -0.323 N
ATOM     12  H52 UNL     1       6.947  12.731   5.516  1.00  0.00     0.169 HD
ATOM     13  H51 UNL     1       5.237  13.290   5.233  1.00  0.00     0.169 HD
ENDBRANCH   8  11
ENDBRANCH   6   8
BRANCH   1  14
HETATM   14  N2  UNL     1       3.339  14.899  10.811  1.00  0.00    -0.285 N
ATOM     15  H2  UNL     1       2.462  14.822  11.328  1.00  0.00     0.188 HD
BRANCH  14  16
HETATM   16  N1  UNL     1       4.176  16.024  10.975  1.00  0.00    -0.343 N
ATOM     17  H12 UNL     1       3.832  16.952  10.727  1.00  0.00     0.176 HD
ATOM     18  H11 UNL     1       5.116  15.880  11.344  1.00  0.00     0.176 HD
ENDBRANCH  14  16
ENDBRANCH   1  14
TORSDOF 4
ENDMDL