MODEL 3
REMARK VINA RESULT: -4.458053507      7.133      9.719
REMARK  5 active torsions:
REMARK  status: ('A' for Active; 'I' for Inactive)
REMARK    1  A    between atoms: C2_2  and  C3_3
REMARK    2  A    between atoms: C2_2  and  N2_6
REMARK    3  A    between atoms: C5_10  and  N4_11
REMARK    4  A    between atoms: C6_16  and  N6_17
REMARK    5  A    between atoms: N6_17  and  N7_19
ROOT
HETATM    1  N2  UNL     1       4.960  12.195   7.676  1.00  0.00    -0.137 N
HETATM    2  C4  UNL     1       4.337  11.669   8.767  1.00  0.00     0.224 A
HETATM    3  N3  UNL     1       3.812  12.447   9.699  1.00  0.00    -0.186 N
ATOM      4  H3  UNL     1       3.351  12.028  10.506  1.00  0.00     0.185 HD
HETATM    5  C5  UNL     1       3.879  13.782   9.594  1.00  0.00     0.691 A
HETATM    6  N5  UNL     1       4.483  14.320   8.537  1.00  0.00    -0.021 N
ATOM      7  H5  UNL     1       4.544  15.333   8.438  1.00  0.00     0.203 HD
HETATM    8  C6  UNL     1       5.009  13.516   7.603  1.00  0.00     0.719 A
ENDROOT
BRANCH   1   9
HETATM    9  C2  UNL     1       5.500  11.258   6.777  1.00  0.00     0.113 C
HETATM   10  C1  UNL     1       4.688  10.897   5.762  1.00  0.00     0.049 C
BRANCH   9  11
HETATM   11  C3  UNL     1       6.834  10.705   6.845  1.00  0.00     0.281 C
HETATM   12  N1  UNL     1       7.959  11.560   6.538  1.00  0.00    -0.056 NA
HETATM   13  O1  UNL     1       7.083   9.509   7.162  1.00  0.00    -0.269 OA
ENDBRANCH   9  11
ENDBRANCH   1   9
BRANCH   8  14
HETATM   14  N6  UNL     1       5.623  14.067   6.599  1.00  0.00    -0.138 N
ATOM     15  H6  UNL     1       5.151  14.118   5.697  1.00  0.00     0.205 HD
BRANCH  14  16
HETATM   16  N7  UNL     1       6.904  14.588   6.723  1.00  0.00    -0.331 N
ATOM     17  H72 UNL     1       7.122  15.135   7.556  1.00  0.00     0.177 HD
ATOM     18  H71 UNL     1       7.617  14.435   6.009  1.00  0.00     0.177 HD
ENDBRANCH  14  16
ENDBRANCH   8  14
BRANCH   5  19
HETATM   19  N4  UNL     1       3.368  14.543  10.499  1.00  0.00    -0.234 N
ATOM     20  H42 UNL     1       3.695  15.505  10.599  1.00  0.00     0.174 HD
ATOM     21  H41 UNL     1       2.637  14.198  11.122  1.00  0.00     0.174 HD
ENDBRANCH   5  19
TORSDOF 5
ENDMDL