MODEL 1
REMARK VINA RESULT: -4.294564641      0.000      0.000
REMARK  4 active torsions:
REMARK  status: ('A' for Active; 'I' for Inactive)
REMARK    1  A    between atoms: C1_2  and  C7_13
REMARK    2  A    between atoms: C2_3  and  N2_4
REMARK    3  A    between atoms: C7_13  and  N4_14
REMARK    4  A    between atoms: C7_13  and  N5_18
ROOT
HETATM    1  N1  UNL     1       2.434  11.511   1.556  1.00  0.00    -0.102 NA
HETATM    2  C1  UNL     1       2.993  11.000   2.776  1.00  0.00     0.097 C
HETATM    3  C2  UNL     1       4.215  11.307   3.083  1.00  0.00     0.127 C
ENDROOT
BRANCH   2   4
HETATM    4  C7  UNL     1       2.092  10.157   3.572  1.00  0.00     0.426 C
BRANCH   4   5
HETATM    5  N4  UNL     1       2.428   8.749   3.311  1.00  0.00    -0.045 N
ATOM      6  H43 UNL     1       1.605   8.147   3.276  1.00  0.00     0.277 HD
ATOM      7  H42 UNL     1       2.753   8.592   2.357  1.00  0.00     0.277 HD
ATOM      8  H41 UNL     1       3.106   8.447   4.011  1.00  0.00     0.277 HD
ENDBRANCH   4   5
BRANCH   4   9
HETATM    9  N5  UNL     1       0.699  10.355   3.404  1.00  0.00    -0.045 N
ATOM     10  H53 UNL     1       0.541  11.197   2.849  1.00  0.00     0.277 HD
ATOM     11  H52 UNL     1       0.329   9.641   2.777  1.00  0.00     0.277 HD
ATOM     12  H51 UNL     1       0.127  10.394   4.247  1.00  0.00     0.277 HD
ENDBRANCH   4   9
ENDBRANCH   2   4
BRANCH   3  13
HETATM   13  N2  UNL     1       4.960  10.918   4.222  1.00  0.00    -0.284 N
HETATM   14  C3  UNL     1       5.013  11.732   5.284  1.00  0.00     0.106 A
HETATM   15  C4  UNL     1       5.745  11.406   6.425  1.00  0.00     0.092 A
HETATM   16  C5  UNL     1       6.430  10.210   6.454  1.00  0.00     0.250 A
HETATM   17  O1  UNL     1       7.088   9.925   7.492  1.00  0.00    -0.268 OA
HETATM   18  N3  UNL     1       6.361   9.412   5.377  1.00  0.00    -0.275 N
HETATM   19  C6  UNL     1       5.638   9.761   4.281  1.00  0.00     0.333 A
ATOM     20  H3  UNL     1       6.862   8.523   5.381  1.00  0.00     0.173 HD
HETATM   21  O2  UNL     1       5.643   8.936   3.327  1.00  0.00    -0.246 OA
ENDBRANCH   3  13
TORSDOF 4
ENDMDL