MODEL 1
REMARK VINA RESULT: -4.482639223      0.000      0.000
REMARK  4 active torsions:
REMARK  status: ('A' for Active; 'I' for Inactive)
REMARK    1  A    between atoms: C3_6  and  N2_7
REMARK    2  A    between atoms: N2_7  and  N3_8
REMARK    3  A    between atoms: N2_7  and  N4_11
REMARK    4  A    between atoms: N4_11  and  S1_13
ROOT
HETATM    1  N1  UNL     1       8.138   9.340   6.441  1.00  0.00    -0.385 N
ATOM      2  H11 UNL     1       8.537   8.719   5.737  1.00  0.00     0.157 HD
ATOM      3  H12 UNL     1       8.674   9.501   7.293  1.00  0.00     0.157 HD
HETATM    4  C1  UNL     1       6.992   9.885   6.225  1.00  0.00     0.103 A
HETATM    5  C2  UNL     1       6.452  10.726   7.176  1.00  0.00     0.100 A
HETATM    6  C3  UNL     1       5.230  11.352   7.027  1.00  0.00     0.149 A
HETATM    7  N5  UNL     1       4.576  11.083   5.859  1.00  0.00    -0.336 N
ATOM      8  H5  UNL     1       3.668  11.514   5.688  1.00  0.00     0.168 HD
HETATM    9  C4  UNL     1       5.100  10.265   4.929  1.00  0.00     0.183 A
HETATM   10  N6  UNL     1       6.286   9.674   5.105  1.00  0.00    -0.339 N
ATOM     11  H6  UNL     1       6.658   9.058   4.381  1.00  0.00     0.168 HD
ENDROOT
BRANCH   6  12
HETATM   12  N2  UNL     1       4.680  12.214   8.009  1.00  0.00    -0.176 N
BRANCH  12  13
HETATM   13  N3  UNL     1       4.053  11.638   9.113  1.00  0.00    -0.322 N
ATOM     14  H32 UNL     1       4.537  11.070   9.808  1.00  0.00     0.179 HD
ATOM     15  H31 UNL     1       3.052  11.792   9.233  1.00  0.00     0.179 HD
ENDBRANCH  12  13
BRANCH  12  16
HETATM   16  N4  UNL     1       4.796  13.579   7.816  1.00  0.00    -0.190 N
ATOM     17  H4  UNL     1       5.665  14.096   7.940  1.00  0.00     0.203 HD
BRANCH  16  18
HETATM   18  S1  UNL     1       3.307  14.308   7.343  1.00  0.00     0.374 S
HETATM   19  O1  UNL     1       2.136  13.826   8.456  1.00  0.00    -0.186 OA
HETATM   20  O2  UNL     1       2.942  13.724   5.798  1.00  0.00    -0.186 OA
ENDBRANCH  16  18
ENDBRANCH  12  16
ENDBRANCH   6  12
TORSDOF 4
ENDMDL