MODEL 3
REMARK VINA RESULT: -6.497654768      2.834      4.416
REMARK  3 active torsions:
REMARK  status: ('A' for Active; 'I' for Inactive)
REMARK    1  A    between atoms: O1_2  and  N1_3
REMARK    2  A    between atoms: N1_3  and  C2_5
REMARK    3  A    between atoms: C5_13  and  N4_14
ROOT
HETATM    1  C2  UNL     1      30.961  48.281  -3.163  1.00  0.00     0.251 A
HETATM    2  N2  UNL     1      30.072  47.584  -3.893  1.00  0.00    -0.312 N
ATOM      3  H2  UNL     1      29.993  47.624  -4.910  1.00  0.00     0.170 HD
HETATM    4  C3  UNL     1      29.302  46.827  -3.094  1.00  0.00     0.157 A
HETATM    5  C4  UNL     1      28.253  45.937  -3.315  1.00  0.00     0.290 A
HETATM    6  O2  UNL     1      27.875  45.732  -4.496  1.00  0.00    -0.265 OA
HETATM    7  N3  UNL     1      27.695  45.338  -2.249  1.00  0.00    -0.154 N
ATOM      8  H3  UNL     1      26.926  44.682  -2.384  1.00  0.00     0.187 HD
HETATM    9  C5  UNL     1      28.142  45.595  -1.005  1.00  0.00     0.680 A
HETATM   10  N5  UNL     1      29.168  46.467  -0.791  1.00  0.00    -0.168 N
ATOM     11  H5  UNL     1      29.489  46.647   0.160  1.00  0.00     0.186 HD
HETATM   12  C6  UNL     1      29.754  47.086  -1.816  1.00  0.00     0.198 A
HETATM   13  O3  UNL     1      30.746  47.962  -1.920  1.00  0.00    -0.258 OA
ENDROOT
BRANCH   1  14
HETATM   14  N1  UNL     1      31.864  49.111  -3.570  1.00  0.00    -0.230 N
ATOM     15  H1  UNL     1      32.352  48.909  -4.442  1.00  0.00     0.198 HD
BRANCH  14  16
HETATM   16  O1  UNL     1      32.193  50.236  -2.893  1.00  0.00    -0.282 OA
HETATM   17  C1  UNL     1      32.492  51.481  -3.440  1.00  0.00     0.237 C
ENDBRANCH  14  16
ENDBRANCH   1  14
BRANCH   9  18
HETATM   18  N4  UNL     1      27.588  45.006   0.010  1.00  0.00    -0.234 N
ATOM     19  H42 UNL     1      27.679  45.419   0.938  1.00  0.00     0.174 HD
ATOM     20  H41 UNL     1      27.070  44.138  -0.133  1.00  0.00     0.174 HD
ENDBRANCH   9  18
TORSDOF 3
ENDMDL