MODEL 5
REMARK VINA RESULT: -6.981285130      1.991      4.492
REMARK  2 active torsions:
REMARK  status: ('A' for Active; 'I' for Inactive)
REMARK    1  A    between atoms: N1_1  and  C1_4
REMARK    2  A    between atoms: C5_17  and  N6_18
ROOT
HETATM    1  C1  UNL     1      30.376  46.724  -3.617  1.00  0.00     0.152 A
HETATM    2  N2  UNL     1      29.240  45.971  -3.456  1.00  0.00    -0.323 N
ATOM      3  H2  UNL     1      28.923  45.365  -4.212  1.00  0.00     0.169 HD
HETATM    4  C2  UNL     1      28.556  46.028  -2.330  1.00  0.00     0.154 A
HETATM    5  N3  UNL     1      27.419  45.394  -1.923  1.00  0.00    -0.281 N
ATOM      6  H3  UNL     1      26.892  44.728  -2.487  1.00  0.00     0.188 HD
HETATM    7  N4  UNL     1      27.103  45.757  -0.720  1.00  0.00    -0.263 N
ATOM      8  H4  UNL     1      26.297  45.427  -0.190  1.00  0.00     0.190 HD
HETATM    9  C3  UNL     1      28.016  46.638  -0.293  1.00  0.00     0.290 A
HETATM   10  O1  UNL     1      28.068  47.227   0.816  1.00  0.00    -0.264 OA
HETATM   11  C4  UNL     1      28.950  46.834  -1.285  1.00  0.00     0.150 A
HETATM   12  N5  UNL     1      30.054  47.557  -1.457  1.00  0.00    -0.327 N
ATOM     13  H5  UNL     1      30.361  48.160  -0.693  1.00  0.00     0.168 HD
HETATM   14  C5  UNL     1      30.797  47.533  -2.607  1.00  0.00     0.218 A
ENDROOT
BRANCH   1  15
HETATM   15  N1  UNL     1      30.997  46.617  -4.724  1.00  0.00    -0.382 N
ATOM     16  H12 UNL     1      31.778  45.977  -4.863  1.00  0.00     0.157 HD
ATOM     17  H11 UNL     1      30.678  47.199  -5.498  1.00  0.00     0.157 HD
ENDBRANCH   1  15
BRANCH  14  18
HETATM   18  N6  UNL     1      31.967  48.356  -2.669  1.00  0.00    -0.094 N
HETATM   19  O2  UNL     1      33.100  47.781  -2.593  1.00  0.00    -0.530 OA
HETATM   20  O3  UNL     1      31.949  49.684  -2.793  1.00  0.00    -0.530 OA
ENDBRANCH  14  18
TORSDOF 2
ENDMDL