MODEL 5
REMARK VINA RESULT: -7.362833910      1.795      1.940
REMARK  3 active torsions:
REMARK  status: ('A' for Active; 'I' for Inactive)
REMARK    1  A    between atoms: C4_6  and  C5_7
REMARK    2  A    between atoms: C6_10  and  N4_11
REMARK    3  A    between atoms: N4_11  and  N5_13
ROOT
HETATM    1  N1  UNL     1      32.446  47.941  -2.300  1.00  0.00    -0.191 NA
HETATM    2  C1  UNL     1      31.774  47.622  -3.219  1.00  0.00     0.111 C
HETATM    3  C2  UNL     1      30.976  47.258  -4.349  1.00  0.00     0.128 C
HETATM    4  C3  UNL     1      31.582  47.307  -5.670  1.00  0.00     0.111 C
HETATM    5  N2  UNL     1      32.060  47.337  -6.733  1.00  0.00    -0.191 NA
HETATM    6  C4  UNL     1      29.728  46.893  -4.178  1.00  0.00     0.083 C
ENDROOT
BRANCH   6   7
HETATM    7  C5  UNL     1      29.006  46.798  -2.935  1.00  0.00     0.138 A
HETATM    8  N3  UNL     1      28.379  47.894  -2.430  1.00  0.00    -0.174 N
HETATM    9  C6  UNL     1      27.679  47.845  -1.285  1.00  0.00     0.712 A
ATOM     10  H3  UNL     1      28.444  48.778  -2.934  1.00  0.00     0.186 HD
HETATM   11  N6  UNL     1      27.578  46.691  -0.600  1.00  0.00    -0.021 N
HETATM   12  C7  UNL     1      28.183  45.612  -1.082  1.00  0.00     0.692 A
ATOM     13  H6  UNL     1      27.049  46.646   0.270  1.00  0.00     0.203 HD
HETATM   14  N7  UNL     1      28.096  44.498  -0.434  1.00  0.00    -0.234 N
HETATM   15  N8  UNL     1      28.900  45.660  -2.251  1.00  0.00    -0.176 N
ATOM     16  H72 UNL     1      27.563  44.462   0.435  1.00  0.00     0.174 HD
ATOM     17  H71 UNL     1      28.561  43.669  -0.804  1.00  0.00     0.174 HD
ATOM     18  H8  UNL     1      29.356  44.817  -2.599  1.00  0.00     0.186 HD
BRANCH   9  19
HETATM   19  N4  UNL     1      27.108  48.903  -0.852  1.00  0.00    -0.138 N
ATOM     20  H4  UNL     1      27.410  49.258   0.056  1.00  0.00     0.205 HD
BRANCH  19  21
HETATM   21  N5  UNL     1      26.118  49.608  -1.509  1.00  0.00    -0.331 N
ATOM     22  H52 UNL     1      25.848  49.254  -2.426  1.00  0.00     0.177 HD
ATOM     23  H51 UNL     1      25.645  50.439  -1.152  1.00  0.00     0.177 HD
ENDBRANCH  19  21
ENDBRANCH   9  19
ENDBRANCH   6   7
TORSDOF 3
ENDMDL