MODEL 3
REMARK VINA RESULT: -7.398801193      2.390      4.842
REMARK  1 active torsions:
REMARK  status: ('A' for Active; 'I' for Inactive)
REMARK    1  A    between atoms: C1_4  and  C2_6
ROOT
HETATM    1  C2  UNL     1      28.382  46.155  -2.447  1.00  0.00     0.149 A
HETATM    2  N3  UNL     1      28.544  45.289  -3.449  1.00  0.00    -0.326 N
ATOM      3  H3  UNL     1      28.146  44.354  -3.362  1.00  0.00     0.168 HD
HETATM    4  C3  UNL     1      29.221  45.611  -4.580  1.00  0.00     0.148 A
HETATM    5  N4  UNL     1      29.396  44.688  -5.649  1.00  0.00    -0.080 NA
HETATM    6  C4  UNL     1      29.760  46.864  -4.712  1.00  0.00     0.123 A
HETATM    7  N5  UNL     1      30.444  47.267  -5.794  1.00  0.00    -0.301 N
ATOM      8  H5  UNL     1      30.588  46.631  -6.578  1.00  0.00     0.171 HD
HETATM    9  C5  UNL     1      30.945  48.534  -5.838  1.00  0.00     0.339 A
HETATM   10  O1  UNL     1      31.572  48.853  -6.870  1.00  0.00    -0.245 OA
HETATM   11  N6  UNL     1      30.780  49.407  -4.826  1.00  0.00    -0.250 N
ATOM     12  H6  UNL     1      31.163  50.351  -4.877  1.00  0.00     0.192 HD
HETATM   13  N7  UNL     1      30.108  49.001  -3.767  1.00  0.00    -0.280 N
ATOM     14  H7  UNL     1      29.971  49.645  -2.988  1.00  0.00     0.189 HD
HETATM   15  C6  UNL     1      29.597  47.759  -3.688  1.00  0.00     0.152 A
HETATM   16  N8  UNL     1      28.924  47.388  -2.601  1.00  0.00    -0.323 N
ATOM     17  H8  UNL     1      28.810  48.065  -1.847  1.00  0.00     0.169 HD
ENDROOT
BRANCH   1  18
HETATM   18  C1  UNL     1      27.651  45.797  -1.234  1.00  0.00     0.154 C
HETATM   19  N1  UNL     1      26.394  45.998  -1.179  1.00  0.00    -0.385 N
ATOM     20  H12 UNL     1      25.884  45.749  -0.332  1.00  0.00     0.157 HD
ATOM     21  H11 UNL     1      25.907  46.406  -1.978  1.00  0.00     0.157 HD
HETATM   22  N2  UNL     1      28.322  45.234  -0.132  1.00  0.00    -0.079 NA
ENDBRANCH   1  18
TORSDOF 1
ENDMDL