MODEL 3
REMARK VINA RESULT: -7.125460550      2.727      3.567
REMARK  3 active torsions:
REMARK  status: ('A' for Active; 'I' for Inactive)
REMARK    1  A    between atoms: N1_1  and  N2_4
REMARK    2  A    between atoms: N3_6  and  C1_8
REMARK    3  A    between atoms: C2_9  and  O1_10
ROOT
HETATM    1  C1  UNL     1      28.062  46.538  -2.580  1.00  0.00     0.156 C
HETATM    2  C2  UNL     1      28.830  46.635  -1.444  1.00  0.00     0.177 C
HETATM    3  N4  UNL     1      28.710  47.496  -0.395  1.00  0.00    -0.287 N
ATOM      4  H4  UNL     1      29.492  47.532   0.260  1.00  0.00     0.172 HD
HETATM    5  C3  UNL     1      27.659  48.308  -0.134  1.00  0.00     0.329 C
HETATM    6  O2  UNL     1      27.487  48.624   1.072  1.00  0.00    -0.247 OA
HETATM    7  N5  UNL     1      26.755  48.840  -0.976  1.00  0.00    -0.272 N
ATOM      8  H5  UNL     1      26.233  49.648  -0.636  1.00  0.00     0.174 HD
HETATM    9  C4  UNL     1      26.469  48.413  -2.223  1.00  0.00     0.302 C
HETATM   10  O3  UNL     1      25.505  49.002  -2.776  1.00  0.00    -0.264 OA
HETATM   11  C5  UNL     1      27.082  47.422  -2.981  1.00  0.00     0.271 C
HETATM   12  O4  UNL     1      26.727  47.287  -4.179  1.00  0.00    -0.280 OA
ENDROOT
BRANCH   1  13
HETATM   13  N3  UNL     1      28.319  45.406  -3.413  1.00  0.00    -0.279 N
HETATM   14  N2  UNL     1      29.181  45.433  -4.341  1.00  0.00    -0.249 N
ATOM     15  H2  UNL     1      29.736  46.265  -4.541  1.00  0.00     0.207 HD
ATOM     16  H3  UNL     1      27.790  44.548  -3.255  1.00  0.00     0.189 HD
BRANCH  14  17
HETATM   17  N1  UNL     1      29.324  44.249  -5.075  1.00  0.00    -0.331 N
ATOM     18  H12 UNL     1      28.791  43.413  -4.839  1.00  0.00     0.178 HD
ATOM     19  H11 UNL     1      29.989  44.283  -5.848  1.00  0.00     0.178 HD
ENDBRANCH  14  17
ENDBRANCH   1  13
BRANCH   2  20
HETATM   20  O1  UNL     1      29.867  45.729  -1.361  1.00  0.00    -0.344 OA
ATOM     21  H1  UNL     1      29.878  45.067  -2.042  1.00  0.00     0.219 HD
ENDBRANCH   2  20
TORSDOF 3
ENDMDL