MODEL 3
REMARK VINA RESULT: -6.240892407      0.992      3.280
REMARK  5 active torsions:
REMARK  status: ('A' for Active; 'I' for Inactive)
REMARK    1  A    between atoms: N1_2  and  C2_4
REMARK    2  A    between atoms: C3_7  and  N3_8
REMARK    3  A    between atoms: N3_8  and  N4_10
REMARK    4  A    between atoms: C6_18  and  C7_19
REMARK    5  A    between atoms: N7_20  and  N8_22
ROOT
HETATM    1  C2  UNL     1      29.274  45.622  -4.954  1.00  0.00     0.131 A
HETATM    2  N2  UNL     1      28.394  45.244  -4.011  1.00  0.00    -0.175 N
ATOM      3  H2  UNL     1      27.674  44.565  -4.258  1.00  0.00     0.186 HD
HETATM    4  C3  UNL     1      28.424  45.722  -2.756  1.00  0.00     0.699 A
HETATM    5  N5  UNL     1      29.385  46.615  -2.465  1.00  0.00    -0.179 N
ATOM      6  H5  UNL     1      29.430  46.996  -1.519  1.00  0.00     0.185 HD
HETATM    7  C4  UNL     1      30.300  47.031  -3.383  1.00  0.00     0.145 A
HETATM    8  C5  UNL     1      31.291  47.982  -2.997  1.00  0.00     0.119 C
HETATM    9  N6  UNL     1      32.087  48.757  -2.658  1.00  0.00    -0.190 NA
HETATM   10  C6  UNL     1      30.282  46.550  -4.669  1.00  0.00     0.063 A
ENDROOT
BRANCH  10  11
HETATM   11  C7  UNL     1      31.197  46.921  -5.713  1.00  0.00     0.124 C
HETATM   12  N7  UNL     1      31.023  47.961  -6.428  1.00  0.00    -0.317 N
ATOM     13  H7  UNL     1      30.208  48.550  -6.256  1.00  0.00     0.185 HD
BRANCH  12  14
HETATM   14  N8  UNL     1      31.910  48.317  -7.438  1.00  0.00    -0.345 N
ATOM     15  H82 UNL     1      32.900  48.110  -7.300  1.00  0.00     0.176 HD
ATOM     16  H81 UNL     1      31.598  48.772  -8.295  1.00  0.00     0.176 HD
ENDBRANCH  12  14
ENDBRANCH  10  11
BRANCH   4  17
HETATM   17  N3  UNL     1      27.562  45.342  -1.859  1.00  0.00    -0.138 N
ATOM     18  H3  UNL     1      26.561  45.410  -2.042  1.00  0.00     0.205 HD
BRANCH  17  19
HETATM   19  N4  UNL     1      28.026  44.838  -0.640  1.00  0.00    -0.331 N
ATOM     20  H42 UNL     1      28.966  44.449  -0.584  1.00  0.00     0.177 HD
ATOM     21  H41 UNL     1      27.414  44.869   0.176  1.00  0.00     0.177 HD
ENDBRANCH  17  19
ENDBRANCH   4  17
BRANCH   1  22
HETATM   22  N1  UNL     1      29.238  45.157  -6.156  1.00  0.00    -0.379 N
HETATM   23  C1  UNL     1      29.484  43.740  -6.327  1.00  0.00     0.147 C
ATOM     24  H1  UNL     1      29.045  45.763  -6.953  1.00  0.00     0.160 HD
ENDBRANCH   1  22
TORSDOF 5
ENDMDL