MODEL 2
REMARK VINA RESULT: -6.551816238      2.262      4.701
REMARK  2 active torsions:
REMARK  status: ('A' for Active; 'I' for Inactive)
REMARK    1  A    between atoms: O1_2  and  N1_3
REMARK    2  A    between atoms: C6_14  and  N4_15
ROOT
HETATM    1  N1  UNL     1      29.008  46.726  -3.530  1.00  0.00    -0.260 N
ATOM      2  H1  UNL     1      29.034  47.652  -3.105  1.00  0.00     0.194 HD
HETATM    3  C2  UNL     1      29.650  46.556  -4.639  1.00  0.00     0.152 A
HETATM    4  C3  UNL     1      30.419  47.577  -5.349  1.00  0.00     0.277 A
HETATM    5  O2  UNL     1      30.554  48.773  -4.962  1.00  0.00    -0.266 OA
HETATM    6  N2  UNL     1      30.937  46.934  -6.497  1.00  0.00    -0.315 N
ATOM      7  H2  UNL     1      31.521  47.394  -7.196  1.00  0.00     0.169 HD
HETATM    8  C4  UNL     1      30.545  45.571  -6.559  1.00  0.00     0.134 A
HETATM    9  C5  UNL     1      29.770  45.333  -5.445  1.00  0.00     0.115 A
HETATM   10  N3  UNL     1      29.267  44.089  -5.270  1.00  0.00    -0.187 N
ATOM     11  H3  UNL     1      28.693  43.911  -4.445  1.00  0.00     0.184 HD
HETATM   12  C6  UNL     1      29.484  43.078  -6.123  1.00  0.00     0.679 A
HETATM   13  N5  UNL     1      30.239  43.315  -7.205  1.00  0.00    -0.154 N
ATOM     14  H5  UNL     1      30.412  42.554  -7.862  1.00  0.00     0.187 HD
HETATM   15  C7  UNL     1      30.780  44.532  -7.455  1.00  0.00     0.288 A
HETATM   16  O3  UNL     1      31.485  44.775  -8.454  1.00  0.00    -0.265 OA
ENDROOT
BRANCH   1  17
HETATM   17  O1  UNL     1      28.303  45.760  -2.894  1.00  0.00    -0.285 OA
HETATM   18  C1  UNL     1      27.990  45.775  -1.530  1.00  0.00     0.237 C
ENDBRANCH   1  17
BRANCH  12  19
HETATM   19  N4  UNL     1      28.980  41.910  -5.908  1.00  0.00    -0.234 N
ATOM     20  H42 UNL     1      28.005  41.803  -5.631  1.00  0.00     0.174 HD
ATOM     21  H41 UNL     1      29.547  41.068  -6.010  1.00  0.00     0.174 HD
ENDBRANCH  12  19
TORSDOF 2
ENDMDL