MODEL 4
REMARK VINA RESULT: -6.591036002      2.070      4.131
REMARK  3 active torsions:
REMARK  status: ('A' for Active; 'I' for Inactive)
REMARK    1  A    between atoms: C3_3  and  C4_4
REMARK       I    between atoms: C4_4  and  N1_6
REMARK    2  A    between atoms: N1_6  and  N2_8
REMARK    3  A    between atoms: C7_18  and  N6_19
ROOT
HETATM    1  C1  UNL     1      30.878  47.374  -5.542  1.00  0.00     0.055 C
HETATM    2  C2  UNL     1      30.126  46.985  -4.319  1.00  0.00     0.014 A
HETATM    3  C3  UNL     1      29.358  45.846  -4.282  1.00  0.00     0.114 A
HETATM    4  N3  UNL     1      28.678  45.518  -3.143  1.00  0.00    -0.329 N
ATOM      5  H3  UNL     1      28.111  44.670  -3.126  1.00  0.00     0.168 HD
HETATM    6  C5  UNL     1      28.743  46.283  -2.055  1.00  0.00     0.190 A
HETATM    7  C6  UNL     1      28.017  45.933  -0.836  1.00  0.00     0.137 C
HETATM    8  N4  UNL     1      27.447  45.671   0.117  1.00  0.00    -0.188 NA
HETATM    9  N5  UNL     1      29.482  47.385  -2.081  1.00  0.00    -0.320 N
ATOM     10  H5  UNL     1      29.526  47.964  -1.243  1.00  0.00     0.169 HD
HETATM   11  C7  UNL     1      30.185  47.773  -3.183  1.00  0.00     0.109 A
ENDROOT
BRANCH   3  12
HETATM   12  C4  UNL     1      29.260  44.981  -5.449  1.00  0.00     0.286 C
HETATM   13  O1  UNL     1      28.811  45.332  -6.561  1.00  0.00    -0.264 OA
HETATM   14  N1  UNL     1      29.700  43.617  -5.364  1.00  0.00    -0.271 N
ATOM     15  H1  UNL     1      30.075  43.283  -4.476  1.00  0.00     0.189 HD
BRANCH  14  16
HETATM   16  N2  UNL     1      29.641  42.728  -6.428  1.00  0.00    -0.342 N
ATOM     17  H22 UNL     1      30.335  42.839  -7.167  1.00  0.00     0.176 HD
ATOM     18  H21 UNL     1      28.947  41.984  -6.500  1.00  0.00     0.176 HD
ENDBRANCH  14  16
ENDBRANCH   3  12
BRANCH  11  19
HETATM   19  N6  UNL     1      30.862  48.856  -3.084  1.00  0.00    -0.385 N
ATOM     20  H62 UNL     1      31.704  48.821  -2.509  1.00  0.00     0.157 HD
ATOM     21  H61 UNL     1      30.616  49.737  -3.537  1.00  0.00     0.157 HD
ENDBRANCH  11  19
TORSDOF 3
ENDMDL