MODEL 5
REMARK VINA RESULT: -6.481768121      1.638      1.770
REMARK  3 active torsions:
REMARK  status: ('A' for Active; 'I' for Inactive)
REMARK    1  A    between atoms: N1_1  and  N2_4
REMARK    2  A    between atoms: N2_4  and  N3_5
REMARK       I    between atoms: N3_5  and  C1_7
REMARK    3  A    between atoms: C1_7  and  C2_9
ROOT
HETATM    1  C2  UNL     1      29.259  46.246  -4.058  1.00  0.00     0.084 A
HETATM    2  C3  UNL     1      27.981  46.595  -3.611  1.00  0.00     0.099 A
HETATM    3  C4  UNL     1      27.748  47.371  -2.509  1.00  0.00     0.249 A
HETATM    4  O2  UNL     1      26.505  47.581  -2.259  1.00  0.00    -0.268 OA
HETATM    5  N4  UNL     1      28.637  47.916  -1.691  1.00  0.00    -0.284 N
ATOM      6  H4  UNL     1      28.269  48.468  -0.916  1.00  0.00     0.172 HD
HETATM    7  C5  UNL     1      29.968  47.816  -1.778  1.00  0.00     0.291 A
HETATM    8  O3  UNL     1      30.745  48.380  -0.939  1.00  0.00    -0.260 OA
HETATM    9  S1  UNL     1      30.514  46.882  -3.093  1.00  0.00    -0.023 SA
ENDROOT
BRANCH   1  10
HETATM   10  C1  UNL     1      29.495  45.422  -5.234  1.00  0.00     0.275 C
HETATM   11  N3  UNL     1      29.393  44.018  -5.221  1.00  0.00    -0.250 N
ATOM     12  H3  UNL     1      29.143  43.533  -4.360  1.00  0.00     0.187 HD
HETATM   13  O1  UNL     1      29.804  46.041  -6.289  1.00  0.00    -0.266 OA
BRANCH  11  14
HETATM   14  N2  UNL     1      29.635  43.279  -6.401  1.00  0.00    -0.027 NA
BRANCH  14  15
HETATM   15  N1  UNL     1      29.022  42.048  -6.414  1.00  0.00    -0.329 N
ATOM     16  H12 UNL     1      28.161  41.861  -5.902  1.00  0.00     0.174 HD
ATOM     17  H11 UNL     1      29.512  41.355  -6.979  1.00  0.00     0.174 HD
ENDBRANCH  14  15
ENDBRANCH  11  14
ENDBRANCH   1  10
TORSDOF 3
ENDMDL