MODEL 4
REMARK VINA RESULT: -6.338782627      1.397      3.526
REMARK  2 active torsions:
REMARK  status: ('A' for Active; 'I' for Inactive)
REMARK    1  A    between atoms: O1_2  and  N1_3
REMARK    2  A    between atoms: C5_9  and  N3_10
ROOT
HETATM    1  N1  UNL     1      31.209  48.147  -3.110  1.00  0.00    -0.150 N
HETATM    2  C2  UNL     1      31.327  47.282  -4.122  1.00  0.00     0.355 A
HETATM    3  O2  UNL     1      32.281  47.273  -4.943  1.00  0.00    -0.244 OA
HETATM    4  N2  UNL     1      30.278  46.429  -4.127  1.00  0.00    -0.295 N
HETATM    5  C3  UNL     1      30.119  45.375  -5.100  1.00  0.00     0.161 C
HETATM    6  C4  UNL     1      29.452  46.721  -3.116  1.00  0.00     0.130 A
HETATM    7  C5  UNL     1      28.260  46.197  -2.653  1.00  0.00     0.145 A
HETATM    8  N4  UNL     1      27.716  46.804  -1.550  1.00  0.00    -0.175 N
ATOM      9  H4  UNL     1      26.837  46.439  -1.185  1.00  0.00     0.186 HD
HETATM   10  C6  UNL     1      28.270  47.843  -0.930  1.00  0.00     0.679 A
HETATM   11  N5  UNL     1      27.702  48.378   0.118  1.00  0.00    -0.234 N
ATOM     12  H51 UNL     1      28.126  49.174   0.594  1.00  0.00     0.174 HD
ATOM     13  H52 UNL     1      26.822  48.016   0.485  1.00  0.00     0.174 HD
HETATM   14  N6  UNL     1      29.427  48.319  -1.413  1.00  0.00    -0.172 N
ATOM     15  H6  UNL     1      29.853  49.114  -0.937  1.00  0.00     0.186 HD
HETATM   16  C7  UNL     1      30.061  47.813  -2.484  1.00  0.00     0.184 A
ENDROOT
BRANCH   7  17
HETATM   17  N3  UNL     1      27.690  45.217  -3.198  1.00  0.00    -0.383 N
ATOM     18  H32 UNL     1      28.220  44.392  -3.477  1.00  0.00     0.157 HD
ATOM     19  H31 UNL     1      26.688  45.197  -3.389  1.00  0.00     0.157 HD
ENDBRANCH   7  17
BRANCH   1  20
HETATM   20  O1  UNL     1      32.032  49.178  -2.726  1.00  0.00    -0.273 OA
HETATM   21  C1  UNL     1      32.157  50.396  -3.394  1.00  0.00     0.238 C
ENDBRANCH   1  20
TORSDOF 2
ENDMDL