MODEL 5
REMARK VINA RESULT: -4.278626104      1.829      2.602
REMARK  2 active torsions:
REMARK  status: ('A' for Active; 'I' for Inactive)
REMARK       I    between atoms: C1_4  and  N3_6
REMARK    1  A    between atoms: N3_6  and  S1_8
REMARK    2  A    between atoms: S1_8  and  C2_11
ROOT
HETATM    1  S1  UNL     1     -10.790 -10.837   3.501  1.00  0.00     0.299 S
HETATM    2  O1  UNL     1     -11.743 -10.380   4.580  1.00  0.00    -0.197 OA
HETATM    3  O2  UNL     1      -9.394 -10.940   4.046  1.00  0.00    -0.197 OA
ENDROOT
BRANCH   1   4
HETATM    4  N3  UNL     1     -11.241 -12.366   2.870  1.00  0.00    -0.252 N
HETATM    5  C1  UNL     1     -10.808 -13.535   3.581  1.00  0.00     0.195 C
HETATM    6  N1  UNL     1      -9.993 -14.370   3.076  1.00  0.00    -0.373 N
HETATM    7  N2  UNL     1     -11.348 -13.699   4.890  1.00  0.00    -0.063 NA
ATOM      8  H12 UNL     1      -9.685 -15.200   3.582  1.00  0.00     0.158 HD
ATOM      9  H11 UNL     1      -9.606 -14.252   2.140  1.00  0.00     0.158 HD
ATOM     10  H3  UNL     1     -11.797 -12.442   2.019  1.00  0.00     0.181 HD
ENDBRANCH   1   4
BRANCH   1  11
HETATM   11  C2  UNL     1     -10.811  -9.595   2.250  1.00  0.00     0.256 A
HETATM   12  N4  UNL     1     -10.040  -8.502   2.226  1.00  0.00    -0.258 N
HETATM   13  N5  UNL     1     -10.354  -7.830   1.138  1.00  0.00    -0.226 N
ATOM     14  H4  UNL     1      -9.340  -8.239   2.920  1.00  0.00     0.191 HD
HETATM   15  N6  UNL     1     -11.300  -8.451   0.461  1.00  0.00    -0.226 N
ATOM     16  H5  UNL     1      -9.924  -6.949   0.857  1.00  0.00     0.210 HD
HETATM   17  N7  UNL     1     -11.579  -9.541   1.153  1.00  0.00    -0.258 N
ATOM     18  H6  UNL     1     -11.727  -8.152  -0.416  1.00  0.00     0.210 HD
ATOM     19  H7  UNL     1     -12.276 -10.239   0.892  1.00  0.00     0.191 HD
ENDBRANCH   1  11
TORSDOF 2
ENDMDL