MODEL 3
REMARK VINA RESULT: -4.296674990      1.963      5.580
REMARK  1 active torsions:
REMARK  status: ('A' for Active; 'I' for Inactive)
REMARK       I    between atoms: N1_1  and  C1_4
REMARK       I    between atoms: C1_4  and  N3_6
REMARK       I    between atoms: N3_6  and  C2_8
REMARK    1  A    between atoms: C2_8  and  C3_10
ROOT
HETATM    1  C3  UNL     1      -3.247 -15.377   6.510  1.00  0.00     0.179 A
HETATM    2  N4  UNL     1      -3.131 -14.620   7.613  1.00  0.00    -0.334 N
ATOM      3  H4  UNL     1      -2.243 -14.158   7.814  1.00  0.00     0.168 HD
HETATM    4  C4  UNL     1      -4.168 -14.459   8.460  1.00  0.00     0.186 A
HETATM    5  N5  UNL     1      -5.361 -15.044   8.242  1.00  0.00    -0.305 N
ATOM      6  H5  UNL     1      -6.143 -14.918   8.885  1.00  0.00     0.171 HD
HETATM    7  C5  UNL     1      -5.477 -15.805   7.135  1.00  0.00     0.326 A
HETATM    8  O2  UNL     1      -6.578 -16.362   6.909  1.00  0.00    -0.247 OA
HETATM    9  N6  UNL     1      -4.436 -15.965   6.287  1.00  0.00    -0.290 N
ATOM     10  H6  UNL     1      -4.555 -16.545   5.457  1.00  0.00     0.172 HD
ENDROOT
BRANCH   1  11
HETATM   11  C2  UNL     1      -2.121 -15.560   5.579  1.00  0.00     0.292 C
HETATM   12  N3  UNL     1      -1.325 -16.718   5.717  1.00  0.00    -0.295 N
HETATM   13  C1  UNL     1      -0.231 -16.931   4.841  1.00  0.00     0.188 C
ATOM     14  H3  UNL     1      -1.537 -17.401   6.445  1.00  0.00     0.171 HD
HETATM   15  N1  UNL     1       0.463 -18.010   5.014  1.00  0.00    -0.373 N
HETATM   16  N2  UNL     1       0.052 -15.986   3.842  1.00  0.00    -0.064 NA
ATOM     17  H12 UNL     1       1.251 -18.163   4.383  1.00  0.00     0.158 HD
ATOM     18  H11 UNL     1       0.258 -18.697   5.740  1.00  0.00     0.158 HD
HETATM   19  O1  UNL     1      -1.875 -14.707   4.687  1.00  0.00    -0.264 OA
ENDBRANCH   1  11
TORSDOF 1
ENDMDL