MODEL 2
REMARK VINA RESULT: -4.114469771      2.915      5.562
REMARK  4 active torsions:
REMARK  status: ('A' for Active; 'I' for Inactive)
REMARK    1  A    between atoms: N1_1  and  N2_4
REMARK    2  A    between atoms: C1_6  and  C2_7
REMARK    3  A    between atoms: C5_15  and  C6_16
REMARK       I    between atoms: C6_16  and  N5_18
REMARK    4  A    between atoms: N5_18  and  N6_20
ROOT
HETATM    1  C2  UNL     1      -4.771 -15.820   6.077  1.00  0.00     0.084 A
HETATM    2  N3  UNL     1      -5.905 -15.991   6.852  1.00  0.00    -0.319 N
ATOM      3  H3  UNL     1      -6.725 -16.419   6.423  1.00  0.00     0.169 HD
HETATM    4  C3  UNL     1      -5.977 -15.624   8.130  1.00  0.00     0.261 A
HETATM    5  O1  UNL     1      -7.030 -15.799   8.796  1.00  0.00    -0.267 OA
HETATM    6  C4  UNL     1      -4.892 -15.048   8.732  1.00  0.00     0.163 A
HETATM    7  N4  UNL     1      -3.802 -14.875   8.018  1.00  0.00    -0.355 N
ATOM      8  H4  UNL     1      -2.992 -14.444   8.465  1.00  0.00     0.165 HD
HETATM    9  C5  UNL     1      -3.700 -15.253   6.677  1.00  0.00     0.131 A
ENDROOT
BRANCH   9  10
HETATM   10  C6  UNL     1      -2.405 -15.075   6.065  1.00  0.00     0.288 C
HETATM   11  O2  UNL     1      -1.834 -14.044   5.735  1.00  0.00    -0.264 OA
HETATM   12  N5  UNL     1      -1.631 -16.268   5.784  1.00  0.00    -0.271 N
ATOM     13  H5  UNL     1      -2.042 -17.168   6.032  1.00  0.00     0.189 HD
BRANCH  12  14
HETATM   14  N6  UNL     1      -0.386 -16.275   5.209  1.00  0.00    -0.342 N
ATOM     15  H62 UNL     1       0.408 -16.164   5.840  1.00  0.00     0.176 HD
ATOM     16  H61 UNL     1      -0.206 -16.382   4.210  1.00  0.00     0.176 HD
ENDBRANCH  12  14
ENDBRANCH   9  10
BRANCH   1  17
HETATM   17  C1  UNL     1      -4.830 -16.175   4.684  1.00  0.00     0.138 C
HETATM   18  N2  UNL     1      -5.096 -15.524   3.648  1.00  0.00    -0.316 N
ATOM     19  H2  UNL     1      -5.327 -14.535   3.746  1.00  0.00     0.185 HD
BRANCH  18  20
HETATM   20  N1  UNL     1      -5.095 -16.066   2.388  1.00  0.00    -0.345 N
ATOM     21  H12 UNL     1      -4.989 -17.078   2.318  1.00  0.00     0.176 HD
ATOM     22  H11 UNL     1      -5.195 -15.515   1.536  1.00  0.00     0.176 HD
ENDBRANCH  18  20
ENDBRANCH   1  17
TORSDOF 4
ENDMDL