MODEL 4
REMARK VINA RESULT: -4.222460780      2.211      4.614
REMARK  3 active torsions:
REMARK  status: ('A' for Active; 'I' for Inactive)
REMARK    1  A    between atoms: N1_1  and  N2_4
REMARK       I    between atoms: N2_4  and  C1_6
REMARK    2  A    between atoms: C1_6  and  C2_8
REMARK    3  A    between atoms: C4_15  and  C5_16
ROOT
HETATM    1  C2  UNL     1      -2.820 -16.353   2.417  1.00  0.00     0.191 A
HETATM    2  N3  UNL     1      -1.589 -16.863   2.150  1.00  0.00    -0.278 N
ATOM      3  H3  UNL     1      -1.421 -17.309   1.249  1.00  0.00     0.189 HD
HETATM    4  N4  UNL     1      -0.604 -16.796   3.031  1.00  0.00    -0.263 N
ATOM      5  H4  UNL     1       0.301 -17.195   2.785  1.00  0.00     0.190 HD
HETATM    6  C3  UNL     1      -0.751 -16.222   4.239  1.00  0.00     0.291 A
HETATM    7  O2  UNL     1       0.209 -16.167   5.068  1.00  0.00    -0.264 OA
HETATM    8  C4  UNL     1      -1.988 -15.693   4.542  1.00  0.00     0.169 A
HETATM    9  N6  UNL     1      -2.971 -15.778   3.624  1.00  0.00    -0.328 N
ATOM     10  H6  UNL     1      -3.882 -15.383   3.857  1.00  0.00     0.168 HD
ENDROOT
BRANCH   1  11
HETATM   11  C1  UNL     1      -3.905 -16.425   1.450  1.00  0.00     0.304 C
HETATM   12  N2  UNL     1      -4.035 -15.558   0.357  1.00  0.00    -0.270 N
ATOM     13  H2  UNL     1      -3.325 -14.835   0.237  1.00  0.00     0.189 HD
HETATM   14  O1  UNL     1      -4.767 -17.322   1.613  1.00  0.00    -0.263 OA
BRANCH  12  15
HETATM   15  N1  UNL     1      -5.057 -15.617  -0.565  1.00  0.00    -0.342 N
ATOM     16  H12 UNL     1      -5.097 -16.449  -1.154  1.00  0.00     0.176 HD
ATOM     17  H11 UNL     1      -5.762 -14.891  -0.691  1.00  0.00     0.176 HD
ENDBRANCH  12  15
ENDBRANCH   1  11
BRANCH   8  18
HETATM   18  C5  UNL     1      -2.209 -15.056   5.840  1.00  0.00     0.287 C
HETATM   19  N5  UNL     1      -2.721 -15.827   6.908  1.00  0.00    -0.056 NA
HETATM   20  O3  UNL     1      -1.945 -13.846   5.989  1.00  0.00    -0.269 OA
ENDBRANCH   8  18
TORSDOF 3
ENDMDL