MODEL 3
REMARK VINA RESULT: -4.066219462      2.198      2.769
REMARK  5 active torsions:
REMARK  status: ('A' for Active; 'I' for Inactive)
REMARK    1  A    between atoms: N1_1  and  C1_4
REMARK    2  A    between atoms: C1_4  and  N2_5
REMARK    3  A    between atoms: C1_4  and  C2_10
REMARK    4  A    between atoms: N2_5  and  N3_7
REMARK    5  A    between atoms: C5_18  and  N6_19
ROOT
HETATM    1  C2  UNL     1      -0.762 -17.409   5.133  1.00  0.00     0.117 A
HETATM    2  N4  UNL     1      -1.005 -18.761   5.201  1.00  0.00    -0.347 N
ATOM      3  H4  UNL     1      -0.247 -19.403   4.967  1.00  0.00     0.167 HD
HETATM    4  C3  UNL     1      -2.174 -19.270   5.554  1.00  0.00     0.184 A
HETATM    5  N5  UNL     1      -3.181 -18.459   5.864  1.00  0.00    -0.318 N
ATOM      6  H5  UNL     1      -4.077 -18.866   6.134  1.00  0.00     0.169 HD
HETATM    7  C4  UNL     1      -3.058 -17.130   5.833  1.00  0.00     0.281 A
HETATM    8  O1  UNL     1      -3.977 -16.330   6.114  1.00  0.00    -0.265 OA
HETATM    9  C5  UNL     1      -1.803 -16.616   5.455  1.00  0.00     0.201 A
ENDROOT
BRANCH   1  10
HETATM   10  C1  UNL     1       0.550 -16.945   4.713  1.00  0.00     0.143 C
BRANCH  10  11
HETATM   11  N1  UNL     1       1.604 -17.033   5.340  1.00  0.00    -0.383 N
ATOM     12  H12 UNL     1       2.548 -17.052   4.955  1.00  0.00     0.157 HD
ATOM     13  H11 UNL     1       1.508 -17.085   6.354  1.00  0.00     0.157 HD
ENDBRANCH  10  11
BRANCH  10  14
HETATM   14  N2  UNL     1       0.650 -16.314   3.406  1.00  0.00    -0.291 N
ATOM     15  H2  UNL     1       0.226 -15.401   3.245  1.00  0.00     0.188 HD
BRANCH  14  16
HETATM   16  N3  UNL     1       1.319 -16.953   2.391  1.00  0.00    -0.344 N
ATOM     17  H32 UNL     1       1.996 -16.431   1.836  1.00  0.00     0.176 HD
ATOM     18  H31 UNL     1       1.133 -17.939   2.204  1.00  0.00     0.176 HD
ENDBRANCH  14  16
ENDBRANCH  10  14
ENDBRANCH   1  10
BRANCH   9  19
HETATM   19  N6  UNL     1      -1.703 -15.212   5.451  1.00  0.00    -0.107 N
HETATM   20  O2  UNL     1      -1.863 -14.586   4.355  1.00  0.00    -0.531 OA
HETATM   21  O3  UNL     1      -1.390 -14.431   6.530  1.00  0.00    -0.531 OA
ENDBRANCH   9  19
TORSDOF 5
ENDMDL