MODEL 4
REMARK VINA RESULT: -3.837143938      2.599      5.109
REMARK  4 active torsions:
REMARK  status: ('A' for Active; 'I' for Inactive)
REMARK    1  A    between atoms: N1_1  and  C1_4
REMARK    2  A    between atoms: C4_10  and  O1_11
REMARK    3  A    between atoms: C4_10  and  N4_13
REMARK    4  A    between atoms: N4_13  and  N5_15
ROOT
HETATM    1  C1  UNL     1       1.241 -17.867   4.140  1.00  0.00     0.691 A
HETATM    2  N2  UNL     1       0.841 -17.240   3.022  1.00  0.00    -0.186 N
ATOM      3  H2  UNL     1       1.488 -17.100   2.246  1.00  0.00     0.185 HD
HETATM    4  C2  UNL     1      -0.440 -16.793   2.940  1.00  0.00     0.224 A
HETATM    5  N3  UNL     1      -1.324 -16.958   3.939  1.00  0.00    -0.137 N
HETATM    6  C3  UNL     1      -2.609 -16.607   4.107  1.00  0.00     0.125 A
HETATM    7  C4  UNL     1      -3.539 -15.977   3.208  1.00  0.00     0.184 C
HETATM    8  C5  UNL     1      -3.005 -17.042   5.396  1.00  0.00     0.141 A
HETATM    9  N6  UNL     1      -1.938 -17.631   5.927  1.00  0.00    -0.198 N
ATOM     10  H6  UNL     1      -1.908 -18.051   6.856  1.00  0.00     0.183 HD
HETATM   11  C6  UNL     1      -0.904 -17.596   5.070  1.00  0.00     0.704 A
HETATM   12  N7  UNL     1       0.366 -18.035   5.143  1.00  0.00    -0.022 N
ATOM     13  H7  UNL     1       0.674 -18.514   5.990  1.00  0.00     0.203 HD
ENDROOT
BRANCH   7  14
HETATM   14  O1  UNL     1      -4.557 -15.355   3.733  1.00  0.00    -0.343 OA
ATOM     15  H1  UNL     1      -5.359 -15.850   3.855  1.00  0.00     0.219 HD
ENDBRANCH   7  14
BRANCH   7  16
HETATM   16  N4  UNL     1      -3.468 -15.965   1.806  1.00  0.00    -0.285 N
ATOM     17  H4  UNL     1      -2.562 -15.951   1.339  1.00  0.00     0.188 HD
BRANCH  16  18
HETATM   18  N5  UNL     1      -4.675 -15.971   1.034  1.00  0.00    -0.343 N
ATOM     19  H52 UNL     1      -5.564 -15.791   1.501  1.00  0.00     0.176 HD
ATOM     20  H51 UNL     1      -4.633 -16.156   0.032  1.00  0.00     0.176 HD
ENDBRANCH  16  18
ENDBRANCH   7  16
BRANCH   1  21
HETATM   21  N1  UNL     1       2.457 -18.275   4.180  1.00  0.00    -0.234 N
ATOM     22  H12 UNL     1       2.845 -18.825   4.947  1.00  0.00     0.174 HD
ATOM     23  H11 UNL     1       3.057 -18.030   3.393  1.00  0.00     0.174 HD
ENDBRANCH   1  21
TORSDOF 4
ENDMDL