MODEL 5
REMARK VINA RESULT: -4.217831493      2.960      4.626
REMARK  1 active torsions:
REMARK  status: ('A' for Active; 'I' for Inactive)
REMARK    1  A    between atoms: C5_12  and  C6_13
ROOT
HETATM    1  N1  UNL     1      -1.888 -18.554   5.540  1.00  0.00    -0.081 NA
HETATM    2  C1  UNL     1      -2.525 -17.480   6.218  1.00  0.00     0.141 C
HETATM    3  N2  UNL     1      -3.479 -17.820   7.103  1.00  0.00    -0.310 N
ATOM      4  H2  UNL     1      -3.714 -18.812   7.138  1.00  0.00     0.170 HD
HETATM    5  C2  UNL     1      -4.175 -17.020   7.959  1.00  0.00     0.262 C
HETATM    6  O1  UNL     1      -4.746 -17.564   8.940  1.00  0.00    -0.267 OA
HETATM    7  C3  UNL     1      -4.293 -15.652   7.817  1.00  0.00     0.165 C
HETATM    8  N3  UNL     1      -3.620 -14.780   7.012  1.00  0.00    -0.327 N
ATOM      9  H3  UNL     1      -4.033 -13.854   6.903  1.00  0.00     0.168 HD
HETATM   10  C4  UNL     1      -2.464 -15.006   6.340  1.00  0.00     0.265 C
HETATM   11  O2  UNL     1      -1.697 -14.022   6.144  1.00  0.00    -0.267 OA
HETATM   12  C5  UNL     1      -2.046 -16.227   5.847  1.00  0.00     0.149 C
ENDROOT
BRANCH  12  13
HETATM   13  C6  UNL     1      -1.013 -16.151   4.854  1.00  0.00     0.218 C
HETATM   14  O3  UNL     1      -1.288 -16.029   3.615  1.00  0.00    -0.644 OA
HETATM   15  O4  UNL     1       0.326 -16.205   5.208  1.00  0.00    -0.644 OA
ENDBRANCH  12  13
TORSDOF 1
ENDMDL