MODEL 3
REMARK VINA RESULT: -4.599735347      0.921      1.209
REMARK  3 active torsions:
REMARK  status: ('A' for Active; 'I' for Inactive)
REMARK    1  A    between atoms: C2_7  and  N3_8
REMARK    2  A    between atoms: N3_8  and  N4_10
REMARK    3  A    between atoms: C3_12  and  C4_13
ROOT
HETATM    1  N3  UNL     1       0.365 -17.271   5.128  1.00  0.00    -0.131 N
ATOM      2  H3  UNL     1       0.315 -16.264   5.287  1.00  0.00     0.205 HD
ENDROOT
BRANCH   1   3
HETATM    3  C2  UNL     1       1.520 -17.827   4.937  1.00  0.00     0.715 A
HETATM    4  N2  UNL     1       2.521 -17.904   5.848  1.00  0.00    -0.127 N
HETATM    5  N1  UNL     1       3.560 -18.547   5.303  1.00  0.00    -0.237 N
ATOM      6  H2  UNL     1       2.487 -17.532   6.796  1.00  0.00     0.206 HD
HETATM    7  C1  UNL     1       3.239 -18.888   4.042  1.00  0.00     0.353 A
ATOM      8  H1  UNL     1       4.447 -18.744   5.767  1.00  0.00     0.192 HD
HETATM    9  O1  UNL     1       3.945 -19.505   3.195  1.00  0.00    -0.245 OA
HETATM   10  N9  UNL     1       2.000 -18.444   3.841  1.00  0.00    -0.137 N
ATOM     11  H9  UNL     1       1.482 -18.556   2.970  1.00  0.00     0.189 HD
ENDBRANCH   1   3
BRANCH   1  12
HETATM   12  N4  UNL     1      -0.793 -18.010   5.120  1.00  0.00    -0.294 N
HETATM   13  C3  UNL     1      -1.962 -17.586   5.436  1.00  0.00     0.158 C
ATOM     14  H4  UNL     1      -0.717 -18.986   4.835  1.00  0.00     0.186 HD
BRANCH  13  15
HETATM   15  C4  UNL     1      -2.133 -16.199   5.849  1.00  0.00     0.148 A
HETATM   16  N5  UNL     1      -2.645 -15.769   7.030  1.00  0.00    -0.269 N
HETATM   17  N6  UNL     1      -2.653 -14.447   7.070  1.00  0.00    -0.007 NA
ATOM     18  H5  UNL     1      -2.977 -16.378   7.779  1.00  0.00     0.185 HD
HETATM   19  N7  UNL     1      -2.149 -14.015   5.925  1.00  0.00    -0.007 NA
HETATM   20  N8  UNL     1      -1.831 -15.074   5.181  1.00  0.00    -0.269 N
ATOM     21  H8  UNL     1      -1.422 -15.035   4.248  1.00  0.00     0.185 HD
ENDBRANCH  13  15
ENDBRANCH   1  12
TORSDOF 3
ENDMDL