MODEL 1
REMARK VINA RESULT: -4.521442975      0.000      0.000
REMARK  3 active torsions:
REMARK  status: ('A' for Active; 'I' for Inactive)
REMARK    1  A    between atoms: N1_1  and  N2_4
REMARK       I    between atoms: N2_4  and  C1_6
REMARK    2  A    between atoms: C1_6  and  C2_8
REMARK    3  A    between atoms: N3_10  and  O2_11
ROOT
HETATM    1  C2  UNL     1      -1.556 -16.321   5.707  1.00  0.00     0.119 A
HETATM    2  C3  UNL     1      -2.033 -15.109   6.125  1.00  0.00     0.151 A
HETATM    3  N3  UNL     1      -3.172 -15.020   6.852  1.00  0.00    -0.183 N
HETATM    4  C4  UNL     1      -3.823 -16.134   7.159  1.00  0.00     0.353 A
HETATM    5  O3  UNL     1      -4.884 -16.053   7.834  1.00  0.00    -0.244 OA
HETATM    6  N4  UNL     1      -3.395 -17.368   6.773  1.00  0.00    -0.273 N
ATOM      7  H4  UNL     1      -3.921 -18.204   7.031  1.00  0.00     0.173 HD
HETATM    8  C5  UNL     1      -2.268 -17.467   6.047  1.00  0.00     0.266 A
HETATM    9  O4  UNL     1      -1.900 -18.630   5.706  1.00  0.00    -0.267 OA
ENDROOT
BRANCH   1  10
HETATM   10  C1  UNL     1      -0.377 -16.504   4.859  1.00  0.00     0.276 C
HETATM   11  N2  UNL     1       0.613 -17.434   5.138  1.00  0.00    -0.272 N
ATOM     12  H2  UNL     1       0.449 -18.003   5.969  1.00  0.00     0.189 HD
HETATM   13  O1  UNL     1      -0.279 -15.780   3.844  1.00  0.00    -0.266 OA
BRANCH  11  14
HETATM   14  N1  UNL     1       1.777 -17.707   4.469  1.00  0.00    -0.342 N
ATOM     15  H12 UNL     1       1.791 -17.362   3.509  1.00  0.00     0.176 HD
ATOM     16  H11 UNL     1       2.614 -18.196   4.786  1.00  0.00     0.176 HD
ENDBRANCH  11  14
ENDBRANCH   1  10
BRANCH   3  17
HETATM   17  O2  UNL     1      -3.610 -13.757   7.211  1.00  0.00    -0.279 OA
ATOM     18  H2  UNL     1      -3.533 -13.505   8.124  1.00  0.00     0.245 HD
ENDBRANCH   3  17
TORSDOF 3
ENDMDL