MODEL 4
REMARK VINA RESULT: -7.753165827      1.554      1.652
REMARK  9 active torsions:
REMARK  status: ('A' for Active; 'I' for Inactive)
REMARK    1  A    between atoms: C3_6  and  C4_7
REMARK    2  A    between atoms: C6_11  and  N4_12
REMARK    3  A    between atoms: C7_15  and  C8_16
REMARK    4  A    between atoms: C8_16  and  C9_17
REMARK    5  A    between atoms: C8_16  and  C14_28
REMARK       I    between atoms: C9_17  and  N5_19
REMARK    6  A    between atoms: N5_19  and  N6_21
REMARK    7  A    between atoms: C14_28  and  O3_33
REMARK    8  A    between atoms: N8_29  and  O2_31
REMARK    9  A    between atoms: O3_33  and  N9_34
ROOT
HETATM    1  C1  UNL     1     -12.717  58.994  14.473  1.00  0.00     0.231 C
HETATM    2  N1  UNL     1     -13.254  59.839  13.886  1.00  0.00    -0.410 NA
HETATM    3  C2  UNL     1     -13.903  60.874  13.201  1.00  0.00     0.189 A
HETATM    4  N2  UNL     1     -14.348  61.955  13.842  1.00  0.00    -0.320 N
ATOM      5  H2  UNL     1     -14.211  62.026  14.851  1.00  0.00     0.169 HD
HETATM    6  C3  UNL     1     -14.975  62.959  13.194  1.00  0.00     0.084 A
HETATM    7  N3  UNL     1     -15.167  62.889  11.868  1.00  0.00    -0.332 N
ATOM      8  H3  UNL     1     -15.642  63.657  11.393  1.00  0.00     0.168 HD
HETATM    9  C6  UNL     1     -14.740  61.812  11.135  1.00  0.00     0.112 A
HETATM   10  C7  UNL     1     -14.110  60.810  11.816  1.00  0.00     0.065 A
ENDROOT
BRANCH  10  11
HETATM   11  C8  UNL     1     -13.573  59.619  11.114  1.00  0.00     0.199 C
BRANCH  11  12
HETATM   12  C9  UNL     1     -14.487  58.990  10.166  1.00  0.00     0.253 C
HETATM   13  O1  UNL     1     -14.121  58.755   8.989  1.00  0.00    -0.271 OA
HETATM   14  N5  UNL     1     -15.803  58.619  10.500  1.00  0.00    -0.262 N
ATOM     15  H5  UNL     1     -16.130  58.801  11.450  1.00  0.00     0.190 HD
BRANCH  14  16
HETATM   16  N6  UNL     1     -16.677  58.022   9.612  1.00  0.00    -0.265 N
HETATM   17  C10 UNL     1     -17.278  58.844   8.657  1.00  0.00     0.092 C
HETATM   18  C11 UNL     1     -17.188  58.431   7.228  1.00  0.00     0.066 C
HETATM   19  C12 UNL     1     -16.587  57.080   6.992  1.00  0.00     0.125 C
HETATM   20  N7  UNL     1     -16.767  56.165   8.064  1.00  0.00    -0.384 N
HETATM   21  C13 UNL     1     -16.524  56.661   9.372  1.00  0.00     0.201 C
ATOM     22  H7  UNL     1     -17.057  55.201   7.902  1.00  0.00     0.160 HD
ENDBRANCH  14  16
ENDBRANCH  11  12
BRANCH  11  23
HETATM   23  C14 UNL     1     -12.219  59.956  10.536  1.00  0.00     0.177 C
HETATM   24  N8  UNL     1     -12.129  60.363   9.304  1.00  0.00    -0.248 N
ATOM     25  H8  UNL     1     -12.968  60.455   8.731  1.00  0.00     0.196 HD
BRANCH  24  26
HETATM   26  O2  UNL     1     -10.905  60.667   8.782  1.00  0.00    -0.288 OA
ATOM     27  H2  UNL     1     -10.835  60.928   7.871  1.00  0.00     0.244 HD
ENDBRANCH  24  26
BRANCH  23  28
HETATM   28  O3  UNL     1     -11.040  59.859  11.245  1.00  0.00    -0.245 OA
BRANCH  28  29
HETATM   29  N9  UNL     1     -10.158  60.911  11.348  1.00  0.00    -0.185 NA
HETATM   30  C15 UNL     1     -10.672  61.957  12.206  1.00  0.00     0.147 C
HETATM   31  C16 UNL     1     -10.339  61.790  13.651  1.00  0.00     0.184 C
HETATM   32  O4  UNL     1      -9.035  61.440  13.903  1.00  0.00    -0.389 OA
HETATM   33  C17 UNL     1      -8.241  61.429  12.751  1.00  0.00     0.184 C
HETATM   34  C18 UNL     1      -8.835  60.491  11.709  1.00  0.00     0.147 C
ENDBRANCH  28  29
ENDBRANCH  23  28
ENDBRANCH  11  23
ENDBRANCH  10  11
BRANCH   6  35
HETATM   35  C4  UNL     1     -15.458  64.147  13.945  1.00  0.00     0.072 C
HETATM   36  C5  UNL     1     -15.815  65.252  12.984  1.00  0.00     0.013 C
ENDBRANCH   6  35
BRANCH   9  37
HETATM   37  N4  UNL     1     -14.913  61.808   9.856  1.00  0.00    -0.385 N
ATOM     38  H42 UNL     1     -15.250  60.998   9.333  1.00  0.00     0.157 HD
ATOM     39  H41 UNL     1     -14.676  62.640   9.316  1.00  0.00     0.157 HD
ENDBRANCH   9  37
TORSDOF 9
ENDMDL