MODEL 1
REMARK VINA RESULT: -7.087082232      0.000      0.000
REMARK  10 active torsions:
REMARK  status: ('A' for Active; 'I' for Inactive)
REMARK    1  A    between atoms: O1_2  and  C2_3
REMARK    2  A    between atoms: C2_3  and  O2_4
REMARK    3  A    between atoms: C2_3  and  C3_6
REMARK    4  A    between atoms: C4_7  and  C5_8
REMARK    5  A    between atoms: C7_14  and  C8_15
REMARK       I    between atoms: C8_15  and  N2_17
REMARK    6  A    between atoms: N2_17  and  C9_18
REMARK    7  A    between atoms: C9_18  and  C10_19
REMARK    8  A    between atoms: C9_18  and  C11_22
REMARK    9  A    between atoms: C13_28  and  N4_29
REMARK   10  A    between atoms: N4_29  and  C14_31
ROOT
HETATM    1  C3  UNL     1     -13.219  58.704  10.627  1.00  0.00     0.100 A
HETATM    2  C4  UNL     1     -13.007  57.832  11.606  1.00  0.00     0.133 A
HETATM    3  N1  UNL     1     -11.862  57.940  12.535  1.00  0.00    -0.316 N
HETATM    4  C6  UNL     1     -11.579  57.079  13.630  1.00  0.00     0.210 C
HETATM    5  S1  UNL     1      -9.763  57.401  13.849  1.00  0.00    -0.099 SA
HETATM    6  C7  UNL     1      -9.824  58.949  12.982  1.00  0.00     0.128 C
HETATM    7  C12 UNL     1     -10.983  58.984  12.383  1.00  0.00     0.134 A
HETATM    8  N3  UNL     1     -11.251  59.942  11.309  1.00  0.00    -0.326 N
ATOM      9  H3  UNL     1     -10.621  60.736  11.187  1.00  0.00     0.169 HD
HETATM   10  C13 UNL     1     -12.242  59.815  10.525  1.00  0.00     0.125 A
ENDROOT
BRANCH   6  11
HETATM   11  C8  UNL     1      -8.811  60.001  13.153  1.00  0.00     0.333 C
HETATM   12  O5  UNL     1      -7.649  59.570  13.529  1.00  0.00    -0.251 OA
HETATM   13  N2  UNL     1      -9.094  61.316  12.948  1.00  0.00    -0.383 NA
BRANCH  13  14
HETATM   14  C9  UNL     1      -9.382  62.649  12.742  1.00  0.00     0.367 C
BRANCH  14  15
HETATM   15  C10 UNL     1      -9.370  63.082  11.351  1.00  0.00     0.221 C
HETATM   16  O6  UNL     1      -9.014  64.269  10.965  1.00  0.00    -0.645 OA
HETATM   17  O7  UNL     1      -9.754  62.218  10.315  1.00  0.00    -0.645 OA
ENDBRANCH  14  15
BRANCH  14  18
HETATM   18  C11 UNL     1     -10.630  63.092  13.468  1.00  0.00     0.221 C
HETATM   19  O8  UNL     1     -11.692  62.381  13.050  1.00  0.00    -0.645 OA
HETATM   20  O9  UNL     1     -10.872  64.005  14.378  1.00  0.00    -0.645 OA
ENDBRANCH  14  18
ENDBRANCH  13  14
ENDBRANCH   6  11
BRANCH   2  21
HETATM   21  C5  UNL     1     -13.881  56.707  11.768  1.00  0.00     0.228 C
HETATM   22  O3  UNL     1     -13.717  55.582  11.264  1.00  0.00    -0.643 OA
HETATM   23  O4  UNL     1     -15.055  56.753  12.534  1.00  0.00    -0.643 OA
ENDBRANCH   2  21
BRANCH  10  24
HETATM   24  N4  UNL     1     -12.387  60.857   9.556  1.00  0.00    -0.338 N
ATOM     25  H4  UNL     1     -11.915  60.809   8.653  1.00  0.00     0.168 HD
BRANCH  24  26
HETATM   26  C14 UNL     1     -13.211  61.960   9.898  1.00  0.00     0.174 C
HETATM   27  N5  UNL     1     -12.720  63.084  10.284  1.00  0.00    -0.395 N
ATOM     28  H52 UNL     1     -11.705  63.168  10.341  1.00  0.00     0.156 HD
ATOM     29  H51 UNL     1     -13.313  63.876  10.530  1.00  0.00     0.156 HD
ENDBRANCH  24  26
ENDBRANCH  10  24
BRANCH   1  30
HETATM   30  C2  UNL     1     -14.227  58.711   9.623  1.00  0.00     0.194 C
BRANCH  30  31
HETATM   31  O1  UNL     1     -15.537  59.073   9.621  1.00  0.00    -0.335 OA
HETATM   32  C1  UNL     1     -16.626  58.157   9.637  1.00  0.00     0.212 C
ENDBRANCH  30  31
BRANCH  30  33
HETATM   33  O2  UNL     1     -13.903  58.300   8.432  1.00  0.00    -0.340 OA
ATOM     34  H2  UNL     1     -14.696  58.074   7.959  1.00  0.00     0.220 HD
ENDBRANCH  30  33
ENDBRANCH   1  30
TORSDOF 10
ENDMDL