MODEL 1
REMARK VINA RESULT: -7.881708530      0.000      0.000
REMARK  8 active torsions:
REMARK  status: ('A' for Active; 'I' for Inactive)
REMARK    1  A    between atoms: C2_2  and  N1_3
REMARK    2  A    between atoms: C3_4  and  C4_5
REMARK    3  A    between atoms: C4_5  and  C5_6
REMARK    4  A    between atoms: C5_6  and  N2_7
REMARK    5  A    between atoms: N2_7  and  C6_9
REMARK    6  A    between atoms: C7_12  and  N4_13
REMARK    7  A    between atoms: C11_26  and  C12_27
REMARK    8  A    between atoms: C12_27  and  C13_28
ROOT
HETATM    1  C6  UNL     1      -8.647  62.442  11.599  1.00  0.00     0.139 A
HETATM    2  N3  UNL     1      -7.486  62.698  12.202  1.00  0.00    -0.176 N
ATOM      3  H3  UNL     1      -7.160  63.660  12.296  1.00  0.00     0.186 HD
HETATM    4  C7  UNL     1      -6.745  61.684  12.686  1.00  0.00     0.677 A
HETATM    5  N5  UNL     1      -7.129  60.408  12.588  1.00  0.00    -0.201 N
ATOM      6  H5  UNL     1      -6.535  59.672  12.971  1.00  0.00     0.183 HD
HETATM    7  C8  UNL     1      -8.276  60.085  11.998  1.00  0.00     0.132 A
HETATM    8  C9  UNL     1      -9.054  61.125  11.492  1.00  0.00     0.104 A
HETATM    9  C10 UNL     1     -10.293  60.814  10.851  1.00  0.00     0.104 C
HETATM   10  N6  UNL     1     -11.305  60.561  10.350  1.00  0.00    -0.191 NA
ENDROOT
BRANCH   1  11
HETATM   11  N2  UNL     1      -9.406  63.337  11.115  1.00  0.00    -0.374 N
ATOM     12  H2  UNL     1      -9.798  63.184  10.185  1.00  0.00     0.161 HD
BRANCH  11  13
HETATM   13  C5  UNL     1      -9.751  64.573  11.814  1.00  0.00     0.129 C
BRANCH  13  14
HETATM   14  C4  UNL     1     -11.050  65.048  11.220  1.00  0.00     0.098 C
BRANCH  14  15
HETATM   15  C3  UNL     1     -12.122  64.051  11.217  1.00  0.00     0.101 A
HETATM   16  N1  UNL     1     -12.726  63.482  12.289  1.00  0.00    -0.324 N
HETATM   17  C11 UNL     1     -13.649  62.625  11.834  1.00  0.00     0.106 A
HETATM   18  N8  UNL     1     -13.611  62.669  10.462  1.00  0.00    -0.287 N
HETATM   19  N7  UNL     1     -12.696  63.523  10.129  1.00  0.00    -0.287 N
ATOM     20  H8  UNL     1     -14.196  62.129   9.824  1.00  0.00     0.188 HD
ATOM     21  H7  UNL     1     -12.447  63.761   9.169  1.00  0.00     0.188 HD
BRANCH  16  22
HETATM   22  C2  UNL     1     -12.473  63.743  13.688  1.00  0.00     0.127 C
HETATM   23  C1  UNL     1     -13.367  64.875  14.203  1.00  0.00     0.027 C
ENDBRANCH  16  22
BRANCH  17  24
HETATM   24  C12 UNL     1     -14.587  61.698  12.497  1.00  0.00     0.155 C
BRANCH  24  25
HETATM   25  C13 UNL     1     -13.959  60.344  12.493  1.00  0.00     0.094 A
HETATM   26  N9  UNL     1     -12.882  60.161  13.325  1.00  0.00    -0.329 N
HETATM   27  C14 UNL     1     -12.224  59.013  13.412  1.00  0.00     0.155 A
ATOM     28  H9  UNL     1     -12.574  60.944  13.903  1.00  0.00     0.168 HD
HETATM   29  N10 UNL     1     -11.166  58.599  14.136  1.00  0.00    -0.174 N
HETATM   30  C16 UNL     1     -12.653  57.968  12.625  1.00  0.00     0.161 A
HETATM   31  C15 UNL     1     -10.915  57.316  13.825  1.00  0.00     0.678 A
ATOM     32  H10 UNL     1     -10.643  59.164  14.805  1.00  0.00     0.186 HD
HETATM   33  N11 UNL     1      -9.972  56.590  14.324  1.00  0.00    -0.234 N
HETATM   34  N12 UNL     1     -11.818  56.934  12.908  1.00  0.00    -0.183 N
ATOM     35 2H11 UNL     1      -9.287  56.880  15.021  1.00  0.00     0.174 HD
ATOM     36 1H11 UNL     1      -9.782  55.616  14.087  1.00  0.00     0.174 HD
ATOM     37  H12 UNL     1     -11.869  56.007  12.487  1.00  0.00     0.184 HD
HETATM   38  C17 UNL     1     -13.723  58.117  11.783  1.00  0.00     0.279 A
HETATM   39  O1  UNL     1     -14.127  57.171  11.057  1.00  0.00    -0.265 OA
HETATM   40  N13 UNL     1     -14.358  59.326  11.740  1.00  0.00    -0.306 N
HETATM   41  C18 UNL     1     -15.484  59.500  10.843  1.00  0.00     0.161 C
ENDBRANCH  24  25
ENDBRANCH  17  24
ENDBRANCH  14  15
ENDBRANCH  13  14
ENDBRANCH  11  13
ENDBRANCH   1  11
BRANCH   4  42
HETATM   42  N4  UNL     1      -5.621  61.971  13.266  1.00  0.00    -0.234 N
ATOM     43  H42 UNL     1      -5.454  62.921  13.598  1.00  0.00     0.174 HD
ATOM     44  H41 UNL     1      -4.931  61.227  13.372  1.00  0.00     0.174 HD
ENDBRANCH   4  42
TORSDOF 8
ENDMDL