MODEL 1
REMARK VINA RESULT: -7.511611765      0.000      0.000
REMARK  10 active torsions:
REMARK  status: ('A' for Active; 'I' for Inactive)
REMARK    1  A    between atoms: C2_2  and  N1_3
REMARK    2  A    between atoms: C3_4  and  C4_5
REMARK    3  A    between atoms: C4_5  and  N2_6
REMARK    4  A    between atoms: N2_6  and  N3_8
REMARK       I    between atoms: N3_8  and  C5_10
REMARK    5  A    between atoms: C5_10  and  C6_12
REMARK    6  A    between atoms: C6_12  and  S1_13
REMARK    7  A    between atoms: S1_13  and  C7_14
REMARK    8  A    between atoms: C8_19  and  N6_20
REMARK    9  A    between atoms: C11_31  and  N9_32
REMARK   10  A    between atoms: C13_38  and  N11_39
ROOT
HETATM    1  N1  UNL     1      -9.693  60.433  12.725  1.00  0.00    -0.317 N
HETATM    2  C3  UNL     1     -10.635  59.541  12.412  1.00  0.00     0.127 A
HETATM    3  N7  UNL     1     -11.754  59.951  11.725  1.00  0.00    -0.335 N
ATOM      4  H7  UNL     1     -12.465  59.256  11.494  1.00  0.00     0.168 HD
HETATM    5  C9  UNL     1     -11.952  61.201  11.349  1.00  0.00     0.134 A
HETATM    6  C10 UNL     1     -13.104  61.565  10.654  1.00  0.00     0.288 A
HETATM    7  O2  UNL     1     -13.920  60.641  10.417  1.00  0.00    -0.265 OA
HETATM    8  N8  UNL     1     -13.245  62.830  10.307  1.00  0.00    -0.154 N
ATOM      9  H8  UNL     1     -14.087  63.100   9.797  1.00  0.00     0.187 HD
HETATM   10  C11 UNL     1     -12.341  63.780  10.586  1.00  0.00     0.679 A
HETATM   11  N10 UNL     1     -11.229  63.400  11.262  1.00  0.00    -0.186 N
ATOM     12  H10 UNL     1     -10.530  64.109  11.482  1.00  0.00     0.184 HD
HETATM   13  C12 UNL     1     -11.004  62.142  11.653  1.00  0.00     0.125 A
HETATM   14  C13 UNL     1      -9.865  61.745  12.349  1.00  0.00     0.138 A
ENDROOT
BRANCH   2  15
HETATM   15  C4  UNL     1     -10.488  58.140  12.758  1.00  0.00     0.155 C
BRANCH  15  16
HETATM   16  N2  UNL     1     -11.249  57.207  12.504  1.00  0.00    -0.306 N
ATOM     17  H2  UNL     1     -10.798  56.490  11.935  1.00  0.00     0.186 HD
BRANCH  16  18
HETATM   18  N3  UNL     1     -12.519  56.897  12.788  1.00  0.00    -0.270 N
HETATM   19  C5  UNL     1     -13.522  56.979  11.739  1.00  0.00     0.245 C
HETATM   20  O1  UNL     1     -13.178  57.335  10.596  1.00  0.00    -0.271 OA
ATOM     21  H3  UNL     1     -12.780  56.606  13.730  1.00  0.00     0.190 HD
BRANCH  19  22
HETATM   22  C6  UNL     1     -14.912  56.637  12.068  1.00  0.00     0.186 C
BRANCH  22  23
HETATM   23  S1  UNL     1     -15.798  56.068  10.594  1.00  0.00    -0.094 SA
BRANCH  23  24
HETATM   24  C7  UNL     1     -16.368  57.535   9.700  1.00  0.00     0.130 A
HETATM   25  N4  UNL     1     -16.490  58.780  10.132  1.00  0.00    -0.286 N
HETATM   26  N5  UNL     1     -16.912  59.690   9.357  1.00  0.00    -0.279 N
ATOM     27  H4  UNL     1     -16.243  59.008  11.095  1.00  0.00     0.188 HD
HETATM   28  C8  UNL     1     -17.230  59.366   8.099  1.00  0.00     0.159 A
ATOM     29  H5  UNL     1     -17.007  60.650   9.687  1.00  0.00     0.189 HD
HETATM   30  S2  UNL     1     -16.894  57.690   8.077  1.00  0.00    -0.027 SA
BRANCH  28  31
HETATM   31  N6  UNL     1     -17.680  60.167   7.158  1.00  0.00    -0.379 N
ATOM     32  H62 UNL     1     -18.379  60.909   7.191  1.00  0.00     0.158 HD
ATOM     33  H61 UNL     1     -17.398  60.191   6.178  1.00  0.00     0.158 HD
ENDBRANCH  28  31
ENDBRANCH  23  24
ENDBRANCH  22  23
ENDBRANCH  19  22
ENDBRANCH  16  18
ENDBRANCH  15  16
ENDBRANCH   2  15
BRANCH   1  34
HETATM   34  C2  UNL     1      -8.527  60.100  13.448  1.00  0.00     0.128 C
HETATM   35  C1  UNL     1      -7.370  59.572  12.665  1.00  0.00     0.027 C
ENDBRANCH   1  34
BRANCH  14  36
HETATM   36  N11 UNL     1      -8.984  62.510  12.655  1.00  0.00    -0.360 N
HETATM   37  C14 UNL     1      -7.950  63.358  12.379  1.00  0.00     0.120 C
ATOM     38  H11 UNL     1      -9.045  62.539  13.673  1.00  0.00     0.165 HD
ENDBRANCH  14  36
BRANCH  10  39
HETATM   39  N9  UNL     1     -12.508  65.025  10.228  1.00  0.00    -0.234 N
ATOM     40  H92 UNL     1     -13.437  65.378   9.998  1.00  0.00     0.174 HD
ATOM     41  H91 UNL     1     -11.730  65.681  10.167  1.00  0.00     0.174 HD
ENDBRANCH  10  39
TORSDOF 10
ENDMDL