MODEL 4
REMARK VINA RESULT: -8.079407566      3.451      5.358
REMARK  8 active torsions:
REMARK  status: ('A' for Active; 'I' for Inactive)
REMARK    1  A    between atoms: C2_2  and  N1_3
REMARK    2  A    between atoms: C2_2  and  N2_7
REMARK    3  A    between atoms: C3_8  and  N3_9
REMARK    4  A    between atoms: C6_17  and  N6_18
REMARK    5  A    between atoms: N6_18  and  N7_20
REMARK    6  A    between atoms: N7_20  and  S1_22
REMARK    7  A    between atoms: S1_22  and  C7_25
REMARK    8  A    between atoms: C10_28  and  N8_29
ROOT
HETATM    1  N2  UNL     1     -16.223  57.287  10.031  1.00  0.00    -0.144 N
HETATM    2  C3  UNL     1     -16.522  58.562   9.725  1.00  0.00     0.684 A
HETATM    3  N4  UNL     1     -15.743  59.409  10.397  1.00  0.00    -0.170 N
HETATM    4  C4  UNL     1     -15.783  60.858  10.320  1.00  0.00     0.177 C
HETATM    5  C5  UNL     1     -14.919  58.701  11.157  1.00  0.00     0.171 A
HETATM    6  N5  UNL     1     -13.947  59.089  12.016  1.00  0.00    -0.172 N
ATOM      7  H5  UNL     1     -13.742  60.075  12.170  1.00  0.00     0.186 HD
HETATM    8  C6  UNL     1     -13.264  58.130  12.656  1.00  0.00     0.702 A
HETATM    9  N9  UNL     1     -13.510  56.821  12.473  1.00  0.00    -0.153 N
ATOM     10  H9  UNL     1     -12.966  56.123  12.980  1.00  0.00     0.187 HD
HETATM   11  C13 UNL     1     -14.475  56.438  11.619  1.00  0.00     0.291 A
HETATM   12  O5  UNL     1     -14.703  55.196  11.452  1.00  0.00    -0.265 OA
HETATM   13  C14 UNL     1     -15.217  57.374  10.929  1.00  0.00     0.167 A
ENDROOT
BRANCH   8  14
HETATM   14  N6  UNL     1     -12.318  58.441  13.494  1.00  0.00    -0.122 N
ATOM     15  H6  UNL     1     -12.484  58.318  14.494  1.00  0.00     0.206 HD
BRANCH  14  16
HETATM   16  N7  UNL     1     -11.082  58.938  13.072  1.00  0.00    -0.208 N
ATOM     17  H7  UNL     1     -10.232  58.458  13.367  1.00  0.00     0.201 HD
BRANCH  16  18
HETATM   18  S1  UNL     1     -10.945  60.335  12.069  1.00  0.00     0.276 S
HETATM   19  O1  UNL     1     -11.968  61.324  12.499  1.00  0.00    -0.199 OA
HETATM   20  O2  UNL     1     -11.211  60.000  10.630  1.00  0.00    -0.199 OA
BRANCH  18  21
HETATM   21  C7  UNL     1      -9.325  60.993  12.192  1.00  0.00     0.081 A
HETATM   22  C8  UNL     1      -8.290  60.197  12.663  1.00  0.00     0.028 A
HETATM   23  C9  UNL     1      -7.028  60.733  12.751  1.00  0.00     0.037 A
HETATM   24  C10 UNL     1      -6.783  62.059  12.376  1.00  0.00     0.102 A
HETATM   25  C11 UNL     1      -7.813  62.838  11.913  1.00  0.00     0.037 A
HETATM   26  C12 UNL     1      -9.082  62.300  11.823  1.00  0.00     0.028 A
BRANCH  24  27
HETATM   27  N8  UNL     1      -5.480  62.580  12.478  1.00  0.00    -0.116 N
HETATM   28  O3  UNL     1      -4.833  62.821  11.439  1.00  0.00    -0.532 OA
HETATM   29  O4  UNL     1      -4.927  62.821  13.735  1.00  0.00    -0.532 OA
ENDBRANCH  24  27
ENDBRANCH  18  21
ENDBRANCH  16  18
ENDBRANCH  14  16
ENDBRANCH   8  14
BRANCH   2  30
HETATM   30  N3  UNL     1     -17.447  58.890   8.886  1.00  0.00    -0.234 N
ATOM     31  H32 UNL     1     -17.750  58.336   8.085  1.00  0.00     0.174 HD
ATOM     32  H31 UNL     1     -17.977  59.760   8.950  1.00  0.00     0.174 HD
ENDBRANCH   2  30
BRANCH   1  33
HETATM   33  C2  UNL     1     -16.831  56.072   9.521  1.00  0.00     0.301 C
HETATM   34  C1  UNL     1     -16.926  56.104   7.998  1.00  0.00     0.064 C
BRANCH  33  35
HETATM   35  N1  UNL     1     -18.118  55.886  10.126  1.00  0.00    -0.058 N
ATOM     36  H13 UNL     1     -18.840  56.415   9.637  1.00  0.00     0.276 HD
ATOM     37  H12 UNL     1     -18.475  54.944   9.964  1.00  0.00     0.276 HD
ATOM     38  H11 UNL     1     -18.101  56.111  11.121  1.00  0.00     0.276 HD
ENDBRANCH  33  35
ENDBRANCH   1  33
TORSDOF 8
ENDMDL