MODEL 5
REMARK VINA RESULT: -7.563545200      3.218      5.421
REMARK  10 active torsions:
REMARK  status: ('A' for Active; 'I' for Inactive)
REMARK    1  A    between atoms: O1_2  and  C2_3
REMARK    2  A    between atoms: C2_3  and  C3_5
REMARK    3  A    between atoms: C3_5  and  N1_6
REMARK    4  A    between atoms: C4_7  and  O3_8
REMARK    5  A    between atoms: C5_10  and  C6_11
REMARK    6  A    between atoms: N2_12  and  C7_14
REMARK    7  A    between atoms: C10_18  and  N3_19
REMARK       I    between atoms: N3_19  and  C11_21
REMARK    8  A    between atoms: C11_21  and  C12_23
REMARK    9  A    between atoms: C12_23  and  O5_24
REMARK   10  A    between atoms: C14_31  and  N6_32
ROOT
HETATM    1  N1  UNL     1     -12.318  59.753  13.485  1.00  0.00    -0.309 N
HETATM    2  C4  UNL     1     -13.257  58.904  13.035  1.00  0.00     0.172 A
HETATM    3  C5  UNL     1     -13.065  57.633  12.503  1.00  0.00     0.101 A
HETATM    4  N4  UNL     1     -11.810  57.212  12.445  1.00  0.00    -0.335 N
ATOM      5  H4  UNL     1     -11.609  56.288  12.065  1.00  0.00     0.168 HD
HETATM    6  C13 UNL     1     -10.780  57.995  12.886  1.00  0.00     0.154 A
HETATM    7  N5  UNL     1      -9.492  57.548  12.893  1.00  0.00    -0.174 N
ATOM      8  H5  UNL     1      -9.285  56.623  12.516  1.00  0.00     0.186 HD
HETATM    9  C14 UNL     1      -8.506  58.284  13.376  1.00  0.00     0.680 A
HETATM   10  N7  UNL     1      -8.773  59.525  13.881  1.00  0.00    -0.154 N
ATOM     11  H7  UNL     1      -8.002  60.086  14.243  1.00  0.00     0.187 HD
HETATM   12  C15 UNL     1     -10.007  60.026  13.916  1.00  0.00     0.290 A
HETATM   13  O6  UNL     1     -10.302  61.167  14.390  1.00  0.00    -0.265 OA
HETATM   14  C16 UNL     1     -11.055  59.271  13.410  1.00  0.00     0.151 A
ENDROOT
BRANCH   3  15
HETATM   15  C6  UNL     1     -14.306  56.881  12.389  1.00  0.00     0.122 C
HETATM   16  N2  UNL     1     -15.329  56.909  11.505  1.00  0.00    -0.361 N
ATOM     17  H2  UNL     1     -16.169  56.933  12.084  1.00  0.00     0.165 HD
BRANCH  16  18
HETATM   18  C7  UNL     1     -15.804  56.921  10.197  1.00  0.00     0.066 A
HETATM   19  C8  UNL     1     -16.645  56.019   9.643  1.00  0.00     0.081 A
HETATM   20  S1  UNL     1     -16.753  56.490   8.015  1.00  0.00    -0.109 SA
HETATM   21  C9  UNL     1     -15.734  57.816   8.032  1.00  0.00     0.081 A
HETATM   22  C10 UNL     1     -15.309  57.918   9.299  1.00  0.00     0.068 A
BRANCH  22  23
HETATM   23  N3  UNL     1     -14.378  58.922   9.789  1.00  0.00    -0.323 N
HETATM   24  C11 UNL     1     -13.150  59.227   9.186  1.00  0.00     0.245 C
HETATM   25  O4  UNL     1     -12.625  58.752   8.181  1.00  0.00    -0.271 OA
ATOM     26  H3  UNL     1     -14.636  59.440  10.629  1.00  0.00     0.169 HD
BRANCH  24  27
HETATM   27  C12 UNL     1     -12.363  60.344   9.906  1.00  0.00     0.267 C
BRANCH  27  28
HETATM   28  O5  UNL     1     -11.366  60.737   8.992  1.00  0.00    -0.392 OA
ATOM     29  H5  UNL     1     -11.351  60.052   8.334  1.00  0.00     0.210 HD
ENDBRANCH  27  28
ENDBRANCH  24  27
ENDBRANCH  22  23
ENDBRANCH  16  18
ENDBRANCH   3  15
BRANCH   2  30
HETATM   30  O3  UNL     1     -14.479  59.356  13.123  1.00  0.00    -0.344 OA
ATOM     31  H3  UNL     1     -14.860  59.290  13.990  1.00  0.00     0.219 HD
ENDBRANCH   2  30
BRANCH   1  32
HETATM   32  C3  UNL     1     -12.706  61.084  13.780  1.00  0.00     0.242 C
BRANCH  32  33
HETATM   33  C2  UNL     1     -13.538  61.319  14.970  1.00  0.00     0.276 C
HETATM   34  O2  UNL     1     -14.773  61.332  15.038  1.00  0.00    -0.263 OA
BRANCH  33  35
HETATM   35  O1  UNL     1     -12.832  61.574  16.176  1.00  0.00    -0.325 OA
HETATM   36  C1  UNL     1     -12.438  62.748  16.731  1.00  0.00     0.213 C
ENDBRANCH  33  35
ENDBRANCH  32  33
ENDBRANCH   1  32
BRANCH   9  37
HETATM   37  N6  UNL     1      -7.295  57.895  13.417  1.00  0.00    -0.234 N
ATOM     38  H62 UNL     1      -6.631  58.502  13.897  1.00  0.00     0.174 HD
ATOM     39  H61 UNL     1      -6.974  57.016  13.010  1.00  0.00     0.174 HD
ENDBRANCH   9  37
TORSDOF 10
ENDMDL