MODEL 2
REMARK VINA RESULT: -7.891733614      2.732      4.030
REMARK  10 active torsions:
REMARK  status: ('A' for Active; 'I' for Inactive)
REMARK    1  A    between atoms: C2_2  and  N1_3
REMARK    2  A    between atoms: C3_4  and  N2_5
REMARK    3  A    between atoms: N2_5  and  C4_7
REMARK    4  A    between atoms: C4_7  and  O1_9
REMARK    5  A    between atoms: C6_13  and  C7_14
REMARK    6  A    between atoms: C7_14  and  N4_15
REMARK    7  A    between atoms: C7_14  and  N8_28
REMARK    8  A    between atoms: N4_15  and  N5_17
REMARK    9  A    between atoms: C8_19  and  C9_20
REMARK   10  A    between atoms: C13_35  and  O4_36
ROOT
HETATM    1  C7  UNL     1     -12.314  58.898  11.047  1.00  0.00     0.276 C
ENDROOT
BRANCH   1   2
HETATM    2  C6  UNL     1     -12.244  60.268  11.521  1.00  0.00     0.083 A
HETATM    3  N3  UNL     1     -13.158  60.763  12.412  1.00  0.00    -0.191 N
HETATM    4  C3  UNL     1     -13.117  62.014  12.876  1.00  0.00     0.685 A
ATOM      5  H3  UNL     1     -13.904  60.148  12.736  1.00  0.00     0.184 HD
HETATM    6  N1  UNL     1     -12.169  62.863  12.490  1.00  0.00    -0.147 N
HETATM    7  C16 UNL     1     -11.239  62.468  11.625  1.00  0.00     0.269 A
HETATM    8  C14 UNL     1     -11.276  61.154  11.134  1.00  0.00     0.034 A
HETATM    9  O5  UNL     1     -10.317  63.235  11.227  1.00  0.00    -0.267 OA
HETATM   10  C15 UNL     1     -10.236  60.728  10.160  1.00  0.00     0.056 C
BRANCH   4  11
HETATM   11  N2  UNL     1     -14.014  62.394  13.708  1.00  0.00    -0.200 N
ATOM     12  H2  UNL     1     -14.730  63.026  13.350  1.00  0.00     0.180 HD
BRANCH  11  13
HETATM   13  C4  UNL     1     -14.119  62.024  15.084  1.00  0.00     0.230 C
HETATM   14  C5  UNL     1     -15.436  62.435  15.706  1.00  0.00     0.063 C
BRANCH  13  15
HETATM   15  O1  UNL     1     -14.106  60.610  15.124  1.00  0.00    -0.377 OA
ATOM     16  H1  UNL     1     -13.856  60.366  16.007  1.00  0.00     0.212 HD
ENDBRANCH  13  15
ENDBRANCH  11  13
ENDBRANCH   4  11
BRANCH   6  17
HETATM   17  C2  UNL     1     -12.156  64.213  13.016  1.00  0.00     0.146 C
HETATM   18  C1  UNL     1     -12.887  65.182  12.142  1.00  0.00     0.027 C
ENDBRANCH   6  17
ENDBRANCH   1   2
BRANCH   1  19
HETATM   19  N4  UNL     1     -12.016  57.893  12.075  1.00  0.00    -0.306 N
ATOM     20  H4  UNL     1     -12.787  57.344  12.456  1.00  0.00     0.183 HD
BRANCH  19  21
HETATM   21  N5  UNL     1     -10.756  57.659  12.546  1.00  0.00    -0.312 N
HETATM   22  C8  UNL     1     -10.174  58.060  13.592  1.00  0.00     0.144 C
ATOM     23  H5  UNL     1     -10.188  57.057  11.951  1.00  0.00     0.185 HD
BRANCH  22  24
HETATM   24  C9  UNL     1     -10.691  58.918  14.636  1.00  0.00     0.143 A
HETATM   25  N6  UNL     1     -11.661  58.646  15.519  1.00  0.00    -0.235 N
HETATM   26  O2  UNL     1     -11.851  59.678  16.314  1.00  0.00    -0.153 OA
ATOM     27  H6  UNL     1     -12.178  57.768  15.567  1.00  0.00     0.197 HD
HETATM   28  N7  UNL     1     -11.033  60.639  15.990  1.00  0.00    -0.204 N
HETATM   29  C10 UNL     1     -10.294  60.198  14.946  1.00  0.00     0.296 A
ATOM     30  H7  UNL     1     -10.963  61.552  16.439  1.00  0.00     0.200 HD
HETATM   31  O3  UNL     1      -9.390  60.822  14.337  1.00  0.00    -0.264 OA
ENDBRANCH  22  24
ENDBRANCH  19  21
ENDBRANCH   1  19
BRANCH   1  32
HETATM   32  N8  UNL     1     -13.493  58.554  10.294  1.00  0.00    -0.224 N
HETATM   33  N9  UNL     1     -14.664  58.305  10.855  1.00  0.00    -0.282 N
HETATM   34  C11 UNL     1     -15.563  58.012   9.880  1.00  0.00     0.095 A
ATOM     35  H9  UNL     1     -14.860  58.329  11.856  1.00  0.00     0.188 HD
HETATM   36  C12 UNL     1     -16.984  57.679  10.157  1.00  0.00     0.091 C
HETATM   37  N10 UNL     1     -14.928  58.084   8.716  1.00  0.00    -0.310 N
HETATM   38  C13 UNL     1     -13.668  58.414   8.968  1.00  0.00     0.242 A
ATOM     39  H10 UNL     1     -15.335  57.916   7.796  1.00  0.00     0.170 HD
BRANCH  38  40
HETATM   40  O4  UNL     1     -12.675  58.591   8.020  1.00  0.00    -0.331 OA
ATOM     41  H4  UNL     1     -12.416  57.938   7.381  1.00  0.00     0.221 HD
ENDBRANCH  38  40
ENDBRANCH   1  32
TORSDOF 10
ENDMDL