MODEL 1
REMARK VINA RESULT: -7.756707975      0.000      0.000
REMARK  10 active torsions:
REMARK  status: ('A' for Active; 'I' for Inactive)
REMARK    1  A    between atoms: C2_2  and  S1_3
REMARK    2  A    between atoms: C2_2  and  C14_33
REMARK    3  A    between atoms: S1_3  and  C3_4
REMARK    4  A    between atoms: C3_4  and  C4_5
REMARK    5  A    between atoms: C4_5  and  N1_6
REMARK    6  A    between atoms: C4_5  and  C5_10
REMARK       I    between atoms: C5_10  and  N2_12
REMARK    7  A    between atoms: C9_19  and  N3_20
REMARK       I    between atoms: N3_20  and  C10_22
REMARK    8  A    between atoms: C10_22  and  C11_24
REMARK    9  A    between atoms: C13_27  and  N4_28
REMARK   10  A    between atoms: N7_35  and  O5_37
ROOT
HETATM    1  C5  UNL     1     -10.387  60.846  10.688  1.00  0.00     0.253 C
HETATM    2  O1  UNL     1     -10.400  61.033   9.456  1.00  0.00    -0.271 OA
HETATM    3  N2  UNL     1     -11.261  59.981  11.354  1.00  0.00    -0.328 N
ATOM      4  H2  UNL     1     -10.980  59.007  11.464  1.00  0.00     0.168 HD
HETATM    5  C6  UNL     1     -12.381  60.336  11.831  1.00  0.00     0.046 C
HETATM    6  C7  UNL     1     -13.008  61.689  11.800  1.00  0.00     0.234 C
HETATM    7  O2  UNL     1     -13.854  61.707  12.961  1.00  0.00    -0.314 OA
HETATM    8  C8  UNL     1     -13.874  60.457  13.563  1.00  0.00     0.287 C
HETATM    9  O3  UNL     1     -14.255  60.284  14.749  1.00  0.00    -0.262 OA
HETATM   10  C9  UNL     1     -13.388  59.501  12.559  1.00  0.00     0.232 C
ENDROOT
BRANCH  10  11
HETATM   11  N3  UNL     1     -14.392  58.957  11.709  1.00  0.00    -0.337 N
HETATM   12  C10 UNL     1     -14.167  57.921  10.762  1.00  0.00     0.269 C
HETATM   13  O4  UNL     1     -12.994  57.483  10.702  1.00  0.00    -0.266 OA
ATOM     14  H3  UNL     1     -15.336  59.336  11.785  1.00  0.00     0.164 HD
BRANCH  12  15
HETATM   15  C11 UNL     1     -15.256  57.391   9.898  1.00  0.00     0.109 A
HETATM   16  C12 UNL     1     -15.441  57.930   8.646  1.00  0.00     0.088 A
HETATM   17  S2  UNL     1     -16.766  57.024   8.057  1.00  0.00    -0.064 SA
HETATM   18  C13 UNL     1     -17.003  56.029   9.414  1.00  0.00     0.142 A
HETATM   19  N5  UNL     1     -16.060  56.431  10.259  1.00  0.00    -0.332 N
ATOM     20  H5  UNL     1     -15.966  55.995  11.176  1.00  0.00     0.168 HD
BRANCH  18  21
HETATM   21  N4  UNL     1     -17.901  55.093   9.580  1.00  0.00    -0.380 N
ATOM     22  H42 UNL     1     -18.917  55.184   9.616  1.00  0.00     0.158 HD
ATOM     23  H41 UNL     1     -17.750  54.092   9.705  1.00  0.00     0.158 HD
ENDBRANCH  18  21
ENDBRANCH  12  15
ENDBRANCH  10  11
BRANCH   1  24
HETATM   24  C4  UNL     1      -9.359  61.608  11.481  1.00  0.00     0.284 C
BRANCH  24  25
HETATM   25  C3  UNL     1      -8.115  60.768  11.609  1.00  0.00     0.122 C
BRANCH  25  26
HETATM   26  S1  UNL     1      -7.802  60.125  13.235  1.00  0.00    -0.125 SA
BRANCH  26  27
HETATM   27  C2  UNL     1      -9.058  59.049  13.873  1.00  0.00     0.034 C
HETATM   28  C1  UNL     1      -9.092  57.782  13.512  1.00  0.00     0.034 C
BRANCH  27  29
HETATM   29  C14 UNL     1     -10.129  59.584  14.750  1.00  0.00     0.151 C
HETATM   30  N6  UNL     1     -10.216  60.982  14.944  1.00  0.00    -0.080 NA
HETATM   31  N7  UNL     1     -10.922  58.751  15.287  1.00  0.00    -0.254 N
ATOM     32  H7  UNL     1     -10.770  57.764  15.079  1.00  0.00     0.195 HD
BRANCH  31  33
HETATM   33  O5  UNL     1     -11.951  59.058  16.112  1.00  0.00    -0.288 OA
ATOM     34  H5  UNL     1     -12.547  59.790  16.005  1.00  0.00     0.244 HD
ENDBRANCH  31  33
ENDBRANCH  27  29
ENDBRANCH  26  27
ENDBRANCH  25  26
ENDBRANCH  24  25
BRANCH  24  35
HETATM   35  N1  UNL     1      -9.071  62.874  10.913  1.00  0.00    -0.066 N
ATOM     36  H13 UNL     1      -8.181  63.241  11.250  1.00  0.00     0.275 HD
ATOM     37  H12 UNL     1      -8.845  62.796   9.922  1.00  0.00     0.275 HD
ATOM     38  H11 UNL     1      -9.832  63.534  11.072  1.00  0.00     0.275 HD
ENDBRANCH  24  35
ENDBRANCH   1  24
TORSDOF 10
ENDMDL