MODEL 3
REMARK VINA RESULT: -8.391891049      2.462      5.792
REMARK  9 active torsions:
REMARK  status: ('A' for Active; 'I' for Inactive)
REMARK    1  A    between atoms: C2_2  and  N1_4
REMARK    2  A    between atoms: N1_4  and  C4_6
REMARK    3  A    between atoms: C7_12  and  N3_13
REMARK    4  A    between atoms: N3_13  and  C8_15
REMARK    5  A    between atoms: C8_15  and  C9_16
REMARK    6  A    between atoms: C8_15  and  C10_25
REMARK    7  A    between atoms: C10_25  and  N8_26
REMARK    8  A    between atoms: C10_25  and  O2_30
REMARK    9  A    between atoms: C12_33  and  C13_34
ROOT
HETATM    1  C4  UNL     1     -14.851  58.602   9.019  1.00  0.00     0.682 A
HETATM    2  N2  UNL     1     -15.639  59.491   9.628  1.00  0.00    -0.155 N
ATOM      3  H2  UNL     1     -16.605  59.577   9.311  1.00  0.00     0.187 HD
HETATM    4  C5  UNL     1     -15.221  60.294  10.658  1.00  0.00     0.276 A
HETATM    5  O1  UNL     1     -16.085  61.076  11.128  1.00  0.00    -0.267 OA
HETATM    6  C6  UNL     1     -13.928  60.218  11.122  1.00  0.00     0.104 A
HETATM    7  C7  UNL     1     -13.443  60.986  12.172  1.00  0.00     0.054 A
HETATM    8  C11 UNL     1     -12.132  60.762  12.529  1.00  0.00     0.061 A
HETATM    9  C12 UNL     1     -11.293  59.838  11.911  1.00  0.00     0.049 A
HETATM   10  N11 UNL     1     -11.839  59.138  10.903  1.00  0.00    -0.340 N
ATOM     11  H11 UNL     1     -11.254  58.452  10.426  1.00  0.00     0.167 HD
HETATM   12  C17 UNL     1     -13.106  59.282  10.481  1.00  0.00     0.139 A
HETATM   13  N12 UNL     1     -13.587  58.525   9.474  1.00  0.00    -0.175 N
ATOM     14  H12 UNL     1     -12.957  57.856   9.032  1.00  0.00     0.186 HD
ENDROOT
BRANCH   7  15
HETATM   15  N3  UNL     1     -14.223  61.989  12.758  1.00  0.00    -0.352 N
ATOM     16  H3  UNL     1     -15.012  61.634  13.299  1.00  0.00     0.166 HD
BRANCH  15  17
HETATM   17  C8  UNL     1     -14.130  63.403  12.745  1.00  0.00     0.113 C
BRANCH  17  18
HETATM   18  C9  UNL     1     -13.029  64.013  11.979  1.00  0.00     0.164 A
HETATM   19  N4  UNL     1     -12.786  64.118  10.669  1.00  0.00    -0.267 N
HETATM   20  N5  UNL     1     -11.666  64.770  10.473  1.00  0.00    -0.227 N
ATOM     21  H4  UNL     1     -13.384  63.745   9.930  1.00  0.00     0.190 HD
HETATM   22  N6  UNL     1     -11.152  65.107  11.617  1.00  0.00    -0.227 N
ATOM     23  H5  UNL     1     -11.261  64.982   9.561  1.00  0.00     0.210 HD
HETATM   24  N7  UNL     1     -11.960  64.659  12.558  1.00  0.00    -0.267 N
ATOM     25  H6  UNL     1     -10.283  65.621  11.761  1.00  0.00     0.210 HD
ATOM     26  H7  UNL     1     -11.815  64.774  13.561  1.00  0.00     0.190 HD
ENDBRANCH  17  18
BRANCH  17  27
HETATM   27  C10 UNL     1     -15.370  64.211  12.780  1.00  0.00     0.371 C
BRANCH  27  28
HETATM   28  N8  UNL     1     -16.571  63.655  12.274  1.00  0.00    -0.047 N
ATOM     29  H83 UNL     1     -16.584  63.772  11.260  1.00  0.00     0.277 HD
ATOM     30  H82 UNL     1     -16.522  62.640  12.357  1.00  0.00     0.277 HD
ATOM     31  H81 UNL     1     -17.464  63.973  12.652  1.00  0.00     0.277 HD
ENDBRANCH  27  28
BRANCH  27  32
HETATM   32  O2  UNL     1     -15.077  65.452  12.175  1.00  0.00    -0.365 OA
ATOM     33  H2  UNL     1     -15.233  66.126  12.826  1.00  0.00     0.212 HD
ENDBRANCH  27  32
ENDBRANCH  17  27
ENDBRANCH  15  17
ENDBRANCH   7  15
BRANCH   9  34
HETATM   34  C13 UNL     1      -9.917  59.633  12.319  1.00  0.00     0.021 A
HETATM   35  C14 UNL     1      -8.956  60.543  11.956  1.00  0.00     0.104 A
HETATM   36  N9  UNL     1      -7.688  60.353  12.332  1.00  0.00    -0.361 N
HETATM   37  C15 UNL     1      -7.300  59.296  13.062  1.00  0.00     0.180 A
ATOM     38  H9  UNL     1      -6.986  61.040  12.053  1.00  0.00     0.166 HD
HETATM   39  N10 UNL     1      -8.216  58.390  13.432  1.00  0.00    -0.361 N
HETATM   40  C16 UNL     1      -9.526  58.561  13.058  1.00  0.00     0.104 A
ATOM     41  H10 UNL     1      -7.942  57.579  13.987  1.00  0.00     0.166 HD
ENDBRANCH   9  34
BRANCH   1  42
HETATM   42  N1  UNL     1     -15.261  57.856   8.055  1.00  0.00    -0.222 N
ATOM     43  H1  UNL     1     -14.534  57.519   7.424  1.00  0.00     0.178 HD
BRANCH  42  44
HETATM   44  C2  UNL     1     -16.576  57.436   7.745  1.00  0.00     0.091 C
HETATM   45  C1  UNL     1     -17.004  57.766   6.329  1.00  0.00     0.032 C
HETATM   46  C3  UNL     1     -16.876  55.998   8.093  1.00  0.00     0.032 C
ENDBRANCH  42  44
ENDBRANCH   1  42
TORSDOF 9
ENDMDL