MODEL 1
REMARK VINA RESULT: -9.258170075      0.000      0.000
REMARK  12 active torsions:
REMARK  status: ('A' for Active; 'I' for Inactive)
REMARK    1  A    between atoms: O1_2  and  C2_3
REMARK    2  A    between atoms: C2_3  and  C3_5
REMARK    3  A    between atoms: C3_5  and  C4_6
REMARK    4  A    between atoms: C3_5  and  C13_28
REMARK       I    between atoms: C4_6  and  N1_8
REMARK    5  A    between atoms: N1_8  and  N2_10
REMARK    6  A    between atoms: C5_11  and  O4_12
REMARK    7  A    between atoms: C6_18  and  C7_19
REMARK    8  A    between atoms: C7_19  and  O5_20
REMARK    9  A    between atoms: C7_19  and  C8_22
REMARK   10  A    between atoms: C8_22  and  C9_23
REMARK   11  A    between atoms: C14_31  and  N6_32
REMARK   12  A    between atoms: C15_37  and  N8_38
ROOT
HETATM    1  C4  UNL     1     -13.134  57.775  11.732  1.00  0.00     0.256 C
HETATM    2  O3  UNL     1     -12.402  56.904  11.202  1.00  0.00    -0.270 OA
HETATM    3  N1  UNL     1     -14.458  57.963  11.349  1.00  0.00    -0.256 N
ATOM      4  H1  UNL     1     -14.910  58.707  11.881  1.00  0.00     0.191 HD
ENDROOT
BRANCH   1   5
HETATM    5  C3  UNL     1     -12.505  58.636  12.834  1.00  0.00     0.230 C
BRANCH   5   6
HETATM    6  C2  UNL     1     -13.514  59.558  13.408  1.00  0.00     0.277 C
HETATM    7  O2  UNL     1     -13.750  59.636  14.666  1.00  0.00    -0.264 OA
BRANCH   6   8
HETATM    8  O1  UNL     1     -14.303  60.423  12.657  1.00  0.00    -0.326 OA
HETATM    9  C1  UNL     1     -14.287  61.807  12.815  1.00  0.00     0.213 C
ENDBRANCH   6   8
ENDBRANCH   5   6
BRANCH   5  10
HETATM   10  C13 UNL     1     -11.273  59.282  12.430  1.00  0.00     0.059 A
HETATM   11  N5  UNL     1     -11.183  60.295  11.564  1.00  0.00    -0.194 N
HETATM   12  C14 UNL     1     -10.007  60.893  11.213  1.00  0.00     0.677 A
ATOM     13  H5  UNL     1     -12.043  60.642  11.140  1.00  0.00     0.184 HD
HETATM   14  N7  UNL     1      -8.882  60.442  11.766  1.00  0.00    -0.177 N
HETATM   15  C15 UNL     1      -8.888  59.429  12.646  1.00  0.00     0.122 A
ATOM     16  H7  UNL     1      -7.994  60.876  11.514  1.00  0.00     0.185 HD
HETATM   17  C16 UNL     1     -10.083  58.826  12.997  1.00  0.00     0.007 A
HETATM   18  C17 UNL     1     -10.103  57.738  13.947  1.00  0.00     0.054 C
BRANCH  12  19
HETATM   19  N6  UNL     1     -10.003  61.865  10.368  1.00  0.00    -0.234 N
ATOM     20  H62 UNL     1     -10.224  61.720   9.383  1.00  0.00     0.174 HD
ATOM     21  H61 UNL     1      -9.777  62.810  10.676  1.00  0.00     0.174 HD
ENDBRANCH  12  19
BRANCH  15  22
HETATM   22  N8  UNL     1      -7.780  59.013  13.166  1.00  0.00    -0.385 N
ATOM     23  H82 UNL     1      -6.958  58.886  12.575  1.00  0.00     0.157 HD
ATOM     24  H81 UNL     1      -7.725  58.812  14.164  1.00  0.00     0.157 HD
ENDBRANCH  15  22
ENDBRANCH   5  10
ENDBRANCH   1   5
BRANCH   3  25
HETATM   25  N2  UNL     1     -15.301  57.400  10.442  1.00  0.00    -0.176 N
HETATM   26  C5  UNL     1     -16.146  56.407  10.885  1.00  0.00     0.261 A
HETATM   27  N3  UNL     1     -17.014  55.793  10.062  1.00  0.00    -0.263 N
HETATM   28  N4  UNL     1     -17.090  56.115   8.805  1.00  0.00    -0.290 N
ATOM     29  H3  UNL     1     -17.622  55.062  10.430  1.00  0.00     0.190 HD
HETATM   30  C6  UNL     1     -16.331  57.054   8.257  1.00  0.00     0.151 A
ATOM     31  H4  UNL     1     -17.762  55.624   8.216  1.00  0.00     0.187 HD
HETATM   32  C12 UNL     1     -15.420  57.693   9.143  1.00  0.00     0.300 A
HETATM   33  O6  UNL     1     -14.708  58.580   8.614  1.00  0.00    -0.263 OA
BRANCH  26  34
HETATM   34  O4  UNL     1     -16.134  56.006  12.186  1.00  0.00    -0.330 OA
ATOM     35  H4  UNL     1     -16.910  55.636  12.591  1.00  0.00     0.221 HD
ENDBRANCH  26  34
BRANCH  30  36
HETATM   36  C7  UNL     1     -16.352  57.466   6.895  1.00  0.00     0.099 C
BRANCH  36  37
HETATM   37  O5  UNL     1     -15.184  57.296   6.275  1.00  0.00    -0.358 OA
ATOM     38  H5  UNL     1     -15.259  56.819   5.457  1.00  0.00     0.217 HD
ENDBRANCH  36  37
BRANCH  36  39
HETATM   39  C8  UNL     1     -17.366  58.018   6.072  1.00  0.00     0.041 C
BRANCH  39  40
HETATM   40  C9  UNL     1     -17.912  59.147   5.881  1.00  0.00    -0.085 C
HETATM   41  C10 UNL     1     -17.807  60.107   7.116  1.00  0.00     0.043 C
HETATM   42  C11 UNL     1     -18.633  59.743   4.742  1.00  0.00     0.043 C
ENDBRANCH  39  40
ENDBRANCH  36  39
ENDBRANCH  30  36
ENDBRANCH   3  25
TORSDOF 12
ENDMDL