MODEL 5
REMARK VINA RESULT: -6.930040360      2.463      3.648
REMARK  7 active torsions:
REMARK  status: ('A' for Active; 'I' for Inactive)
REMARK       I    between atoms: C1_4  and  N2_5
REMARK       I    between atoms: C1_4  and  N7_22
REMARK    1  A    between atoms: N2_5  and  C2_7
REMARK    2  A    between atoms: C2_7  and  C3_8
REMARK    3  A    between atoms: C3_8  and  C4_9
REMARK    4  A    between atoms: C4_9  and  N3_10
REMARK    5  A    between atoms: N3_10  and  N4_12
REMARK    6  A    between atoms: N4_12  and  C5_14
REMARK    7  A    between atoms: N7_22  and  N8_24
ROOT
HETATM    1  C3  UNL     1      -1.147  -2.485  17.590  1.00  0.00     0.041 C
ENDROOT
BRANCH   1   2
HETATM    2  C2  UNL     1      -0.808  -1.849  18.915  1.00  0.00     0.139 C
BRANCH   2   3
HETATM    3  N2  UNL     1      -1.281  -0.498  19.040  1.00  0.00    -0.225 N
HETATM    4  C1  UNL     1      -2.308  -0.253  20.024  1.00  0.00     0.691 C
HETATM    5  N1  UNL     1      -2.245   0.866  20.650  1.00  0.00    -0.233 N
HETATM    6  N7  UNL     1      -3.328  -1.234  20.255  1.00  0.00    -0.072 N
ATOM      7  H12 UNL     1      -1.520   1.564  20.485  1.00  0.00     0.174 HD
ATOM      8  H11 UNL     1      -2.971   1.040  21.346  1.00  0.00     0.174 HD
ATOM      9  H7  UNL     1      -3.326  -1.765  21.126  1.00  0.00     0.212 HD
ATOM     10  H2  UNL     1      -0.909   0.253  18.459  1.00  0.00     0.177 HD
BRANCH   6  11
HETATM   11  N8  UNL     1      -4.329  -1.475  19.301  1.00  0.00    -0.024 N
HETATM   12  O1  UNL     1      -5.132  -2.403  19.508  1.00  0.00    -0.516 OA
HETATM   13  O2  UNL     1      -4.446  -0.726  18.160  1.00  0.00    -0.516 OA
ENDBRANCH   6  11
ENDBRANCH   2   3
ENDBRANCH   1   2
BRANCH   1  14
HETATM   14  C4  UNL     1      -1.403  -3.979  17.874  1.00  0.00     0.141 C
BRANCH  14  15
HETATM   15  N3  UNL     1      -2.254  -3.986  19.018  1.00  0.00    -0.322 N
ATOM     16  H3  UNL     1      -2.103  -3.340  19.793  1.00  0.00     0.180 HD
BRANCH  15  17
HETATM   17  N4  UNL     1      -3.280  -4.891  19.041  1.00  0.00    -0.137 N
ATOM     18  H4  UNL     1      -3.629  -5.319  18.183  1.00  0.00     0.205 HD
BRANCH  17  19
HETATM   19  C5  UNL     1      -3.842  -5.211  20.314  1.00  0.00     0.688 C
HETATM   20  N5  UNL     1      -3.753  -4.358  21.308  1.00  0.00    -0.225 N
HETATM   21  C6  UNL     1      -4.302  -4.637  22.594  1.00  0.00     0.139 C
ATOM     22  H5  UNL     1      -3.277  -3.469  21.156  1.00  0.00     0.177 HD
HETATM   23  C7  UNL     1      -5.624  -5.350  22.463  1.00  0.00     0.040 C
HETATM   24  C8  UNL     1      -5.580  -6.545  21.573  1.00  0.00     0.139 C
HETATM   25  N6  UNL     1      -4.512  -6.436  20.583  1.00  0.00    -0.225 N
ATOM     26  H6  UNL     1      -4.237  -7.270  20.064  1.00  0.00     0.177 HD
ENDBRANCH  17  19
ENDBRANCH  15  17
ENDBRANCH  14  15
ENDBRANCH   1  14
TORSDOF 7
ENDMDL