MODEL 5
REMARK VINA RESULT: -6.971448139      2.809      5.966
REMARK  8 active torsions:
REMARK  status: ('A' for Active; 'I' for Inactive)
REMARK    1  A    between atoms: C1_2  and  C2_4
REMARK    2  A    between atoms: C2_4  and  N2_5
REMARK    3  A    between atoms: C2_4  and  C3_9
REMARK    4  A    between atoms: C3_9  and  C4_10
REMARK    5  A    between atoms: C3_9  and  N3_15
REMARK    6  A    between atoms: C5_11  and  C6_12
REMARK    7  A    between atoms: C6_12  and  O2_13
REMARK       I    between atoms: N3_15  and  C7_17
REMARK    8  A    between atoms: C7_17  and  C8_19
ROOT
HETATM    1  C3  UNL     1      -2.854  -2.460  18.634  1.00  0.00     0.147 C
ENDROOT
BRANCH   1   2
HETATM    2  C2  UNL     1      -3.522  -1.174  19.104  1.00  0.00     0.297 C
BRANCH   2   3
HETATM    3  C1  UNL     1      -2.588  -0.239  19.717  1.00  0.00     0.264 C
HETATM    4  N1  UNL     1      -2.037   0.867  19.025  1.00  0.00    -0.060 NA
HETATM    5  O1  UNL     1      -2.242  -0.403  20.912  1.00  0.00    -0.274 OA
ENDBRANCH   2   3
BRANCH   2   6
HETATM    6  N2  UNL     1      -4.574  -1.540  20.048  1.00  0.00    -0.065 N
ATOM      7  H23 UNL     1      -5.324  -0.849  20.067  1.00  0.00     0.275 HD
ATOM      8  H22 UNL     1      -5.113  -2.342  19.722  1.00  0.00     0.275 HD
ATOM      9  H21 UNL     1      -4.182  -1.699  20.976  1.00  0.00     0.275 HD
ENDBRANCH   2   6
ENDBRANCH   1   2
BRANCH   1  10
HETATM   10  C4  UNL     1      -3.212  -3.555  19.569  1.00  0.00    -0.001 C
HETATM   11  C5  UNL     1      -3.913  -4.606  19.181  1.00  0.00    -0.003 C
BRANCH  11  12
HETATM   12  C6  UNL     1      -4.263  -5.688  20.120  1.00  0.00     0.191 C
BRANCH  12  13
HETATM   13  O2  UNL     1      -3.737  -5.508  21.379  1.00  0.00    -0.397 OA
ATOM     14  H2  UNL     1      -3.877  -6.250  21.956  1.00  0.00     0.209 HD
ENDBRANCH  12  13
ENDBRANCH  11  12
ENDBRANCH   1  10
BRANCH   1  15
HETATM   15  N3  UNL     1      -1.426  -2.266  18.612  1.00  0.00    -0.344 N
HETATM   16  C7  UNL     1      -0.605  -2.730  17.551  1.00  0.00     0.289 C
HETATM   17  O3  UNL     1      -1.116  -3.340  16.577  1.00  0.00    -0.264 OA
ATOM     18  H3  UNL     1      -0.987  -1.774  19.390  1.00  0.00     0.163 HD
BRANCH  16  19
HETATM   19  C8  UNL     1       0.832  -2.499  17.593  1.00  0.00     0.206 A
HETATM   20  N4  UNL     1       1.475  -1.635  18.409  1.00  0.00    -0.264 N
HETATM   21  N5  UNL     1       2.784  -1.678  18.181  1.00  0.00    -0.226 N
ATOM     22  H4  UNL     1       1.022  -1.037  19.101  1.00  0.00     0.190 HD
HETATM   23  N6  UNL     1       2.985  -2.560  17.227  1.00  0.00    -0.226 N
ATOM     24  H5  UNL     1       3.499  -1.128  18.658  1.00  0.00     0.210 HD
HETATM   25  N7  UNL     1       1.805  -3.066  16.862  1.00  0.00    -0.264 N
ATOM     26  H6  UNL     1       3.890  -2.815  16.833  1.00  0.00     0.210 HD
ATOM     27  H7  UNL     1       1.664  -3.772  16.139  1.00  0.00     0.190 HD
ENDBRANCH  16  19
ENDBRANCH   1  15
TORSDOF 8
ENDMDL