MODEL 4
REMARK VINA RESULT: -6.670967799      2.166      6.466
REMARK  10 active torsions:
REMARK  status: ('A' for Active; 'I' for Inactive)
REMARK    1  A    between atoms: N1_1  and  C1_5
REMARK    2  A    between atoms: C1_5  and  C2_6
REMARK    3  A    between atoms: C2_6  and  C3_7
REMARK    4  A    between atoms: C3_7  and  C4_8
REMARK    5  A    between atoms: C4_8  and  N2_9
REMARK    6  A    between atoms: C4_8  and  C5_13
REMARK    7  A    between atoms: C5_13  and  N5_19
REMARK    8  A    between atoms: N3_14  and  N4_16
REMARK    9  A    between atoms: N5_19  and  N6_21
REMARK       I    between atoms: N6_21  and  C6_23
REMARK   10  A    between atoms: C6_23  and  C7_25
ROOT
HETATM    1  C5  UNL     1      -1.945  -1.334  18.897  1.00  0.00     0.141 C
HETATM    2  N3  UNL     1      -2.703  -0.431  19.392  1.00  0.00    -0.293 N
ATOM      3  H3  UNL     1      -3.679  -0.675  19.560  1.00  0.00     0.187 HD
ENDROOT
BRANCH   1   4
HETATM    4  C4  UNL     1      -0.535  -1.038  18.635  1.00  0.00     0.253 C
BRANCH   4   5
HETATM    5  C3  UNL     1       0.340  -2.256  18.849  1.00  0.00     0.042 C
BRANCH   5   6
HETATM    6  C2  UNL     1       1.117  -2.593  17.576  1.00  0.00     0.030 C
BRANCH   6   7
HETATM    7  C1  UNL     1       0.826  -4.000  17.128  1.00  0.00     0.230 C
BRANCH   7   8
HETATM    8  N1  UNL     1      -0.116  -4.655  18.000  1.00  0.00    -0.079 N
ATOM      9  H13 UNL     1       0.087  -5.651  18.086  1.00  0.00     0.274 HD
ATOM     10  H12 UNL     1       0.024  -4.379  18.972  1.00  0.00     0.274 HD
ATOM     11  H11 UNL     1      -1.079  -4.496  17.703  1.00  0.00     0.274 HD
ENDBRANCH   7   8
ENDBRANCH   6   7
ENDBRANCH   5   6
ENDBRANCH   4   5
BRANCH   4  12
HETATM   12  N2  UNL     1      -0.424  -0.714  17.206  1.00  0.00    -0.068 N
ATOM     13  H23 UNL     1      -1.143  -0.068  16.875  1.00  0.00     0.275 HD
ATOM     14  H22 UNL     1       0.379  -0.127  16.981  1.00  0.00     0.275 HD
ATOM     15  H21 UNL     1      -0.425  -1.610  16.718  1.00  0.00     0.275 HD
ENDBRANCH   4  12
ENDBRANCH   1   4
BRANCH   1  16
HETATM   16  N5  UNL     1      -2.474  -2.605  18.607  1.00  0.00    -0.283 N
ATOM     17  H5  UNL     1      -2.262  -3.029  17.703  1.00  0.00     0.188 HD
BRANCH  16  18
HETATM   18  N6  UNL     1      -3.277  -3.311  19.507  1.00  0.00    -0.262 N
HETATM   19  C6  UNL     1      -3.632  -4.654  19.233  1.00  0.00     0.306 C
HETATM   20  O1  UNL     1      -3.224  -5.205  18.184  1.00  0.00    -0.262 OA
ATOM     21  H6  UNL     1      -3.607  -2.860  20.360  1.00  0.00     0.190 HD
BRANCH  19  22
HETATM   22  C7  UNL     1      -4.467  -5.410  20.156  1.00  0.00     0.205 A
HETATM   23  N7  UNL     1      -5.628  -5.016  20.713  1.00  0.00    -0.262 N
HETATM   24  N8  UNL     1      -6.086  -5.984  21.499  1.00  0.00    -0.005 NA
ATOM     25  H7  UNL     1      -6.083  -4.116  20.558  1.00  0.00     0.186 HD
HETATM   26  N9  UNL     1      -5.234  -6.997  21.455  1.00  0.00    -0.225 N
HETATM   27  N10 UNL     1      -4.257  -6.649  20.645  1.00  0.00    -0.267 N
ATOM     28  H9  UNL     1      -5.319  -7.880  21.955  1.00  0.00     0.205 HD
ATOM     29  H10 UNL     1      -3.453  -7.235  20.418  1.00  0.00     0.190 HD
ENDBRANCH  19  22
ENDBRANCH  16  18
ENDBRANCH   1  16
BRANCH   2  30
HETATM   30  N4  UNL     1      -2.296   0.858  19.718  1.00  0.00    -0.344 N
ATOM     31  H42 UNL     1      -1.298   1.053  19.638  1.00  0.00     0.176 HD
ATOM     32  H41 UNL     1      -2.918   1.606  20.025  1.00  0.00     0.176 HD
ENDBRANCH   2  30
TORSDOF 10
ENDMDL