MODEL 3
REMARK VINA RESULT: -6.716211167      2.462      5.369
REMARK  8 active torsions:
REMARK  status: ('A' for Active; 'I' for Inactive)
REMARK       I    between atoms: C1_2  and  N2_4
REMARK    1  A    between atoms: N2_4  and  C2_6
REMARK    2  A    between atoms: C2_6  and  C3_7
REMARK    3  A    between atoms: C2_6  and  C9_20
REMARK       I    between atoms: C3_7  and  N3_9
REMARK    4  A    between atoms: N3_9  and  C4_11
REMARK    5  A    between atoms: C4_11  and  C5_12
REMARK    6  A    between atoms: N4_16  and  N5_17
REMARK    7  A    between atoms: C9_20  and  N6_21
REMARK    8  A    between atoms: C9_20  and  O3_25
ROOT
HETATM    1  C2  UNL     1      -2.219  -0.539  18.847  1.00  0.00     0.233 C
ENDROOT
BRANCH   1   2
HETATM    2  N2  UNL     1      -1.688  -0.172  20.166  1.00  0.00    -0.328 N
HETATM    3  C1  UNL     1      -2.376   0.680  21.060  1.00  0.00     0.329 C
HETATM    4  N1  UNL     1      -1.854   1.026  22.328  1.00  0.00    -0.040 NA
HETATM    5  O1  UNL     1      -3.490   1.140  20.704  1.00  0.00    -0.251 OA
ATOM      6  H2  UNL     1      -0.783  -0.548  20.449  1.00  0.00     0.164 HD
ENDBRANCH   1   2
BRANCH   1   7
HETATM    7  C3  UNL     1      -3.474  -1.290  18.970  1.00  0.00     0.245 C
HETATM    8  O2  UNL     1      -4.406  -0.957  18.159  1.00  0.00    -0.271 OA
HETATM    9  N3  UNL     1      -3.757  -2.328  19.876  1.00  0.00    -0.353 N
ATOM     10  H3  UNL     1      -3.038  -2.624  20.537  1.00  0.00     0.162 HD
BRANCH   9  11
HETATM   11  C4  UNL     1      -5.025  -2.972  19.888  1.00  0.00     0.181 C
BRANCH  11  12
HETATM   12  C5  UNL     1      -4.906  -4.409  20.261  1.00  0.00     0.050 A
HETATM   13  C6  UNL     1      -5.554  -5.024  21.309  1.00  0.00     0.030 A
HETATM   14  C7  UNL     1      -5.188  -6.352  21.332  1.00  0.00     0.021 A
HETATM   15  C8  UNL     1      -4.316  -6.554  20.300  1.00  0.00     0.116 A
HETATM   16  N4  UNL     1      -4.165  -5.380  19.676  1.00  0.00    -0.277 N
BRANCH  16  17
HETATM   17  N5  UNL     1      -3.354  -5.156  18.565  1.00  0.00    -0.339 N
ATOM     18  H52 UNL     1      -3.688  -4.930  17.628  1.00  0.00     0.177 HD
ATOM     19  H51 UNL     1      -2.336  -5.203  18.598  1.00  0.00     0.177 HD
ENDBRANCH  16  17
ENDBRANCH  11  12
ENDBRANCH   9  11
ENDBRANCH   1   7
BRANCH   1  20
HETATM   20  C9  UNL     1      -1.137  -1.282  18.088  1.00  0.00     0.348 C
BRANCH  20  21
HETATM   21  N6  UNL     1       0.041  -1.548  18.878  1.00  0.00    -0.051 N
ATOM     22  H63 UNL     1       0.779  -1.951  18.301  1.00  0.00     0.277 HD
ATOM     23  H62 UNL     1       0.496  -0.677  19.152  1.00  0.00     0.277 HD
ATOM     24  H61 UNL     1      -0.140  -2.133  19.694  1.00  0.00     0.277 HD
ENDBRANCH  20  21
BRANCH  20  25
HETATM   25  O3  UNL     1      -1.662  -2.560  17.769  1.00  0.00    -0.368 OA
ATOM     26  H3  UNL     1      -2.011  -2.502  16.887  1.00  0.00     0.212 HD
ENDBRANCH  20  25
ENDBRANCH   1  20
TORSDOF 8
ENDMDL