MODEL 3
REMARK VINA RESULT: -6.450103284      1.266      2.361
REMARK  10 active torsions:
REMARK  status: ('A' for Active; 'I' for Inactive)
REMARK    1  A    between atoms: N1_1  and  C1_4
REMARK    2  A    between atoms: N3_9  and  C3_10
REMARK    3  A    between atoms: C3_10  and  C4_11
REMARK    4  A    between atoms: C4_11  and  C5_12
REMARK    5  A    between atoms: C5_12  and  N4_13
REMARK    6  A    between atoms: C5_12  and  C6_17
REMARK    7  A    between atoms: C6_17  and  C7_18
REMARK    8  A    between atoms: C7_18  and  C8_19
REMARK    9  A    between atoms: C8_19  and  N5_20
REMARK   10  A    between atoms: N5_20  and  N6_21
ROOT
HETATM    1  C3  UNL     1      -2.795  -2.802  18.605  1.00  0.00     0.141 C
ENDROOT
BRANCH   1   2
HETATM    2  N3  UNL     1      -3.454  -3.777  19.437  1.00  0.00    -0.250 N
HETATM    3  C2  UNL     1      -3.962  -3.500  20.649  1.00  0.00     0.344 A
HETATM    4  N2  UNL     1      -4.570  -4.459  21.386  1.00  0.00    -0.141 N
HETATM    5  O1  UNL     1      -3.856  -2.323  21.081  1.00  0.00    -0.246 OA
HETATM    6  C1  UNL     1      -4.679  -5.714  20.921  1.00  0.00     0.683 A
ATOM      7  H2  UNL     1      -4.949  -4.226  22.304  1.00  0.00     0.189 HD
HETATM    8  N7  UNL     1      -4.175  -6.005  19.710  1.00  0.00    -0.141 N
HETATM    9  C9  UNL     1      -3.576  -5.035  18.998  1.00  0.00     0.344 A
ATOM     10  H7  UNL     1      -4.246  -6.951  19.335  1.00  0.00     0.189 HD
HETATM   11  O2  UNL     1      -3.115  -5.334  17.871  1.00  0.00    -0.246 OA
BRANCH   6  12
HETATM   12  N1  UNL     1      -5.264  -6.635  21.629  1.00  0.00    -0.234 N
ATOM     13  H12 UNL     1      -5.881  -6.379  22.400  1.00  0.00     0.174 HD
ATOM     14  H11 UNL     1      -5.113  -7.623  21.424  1.00  0.00     0.174 HD
ENDBRANCH   6  12
ENDBRANCH   1   2
BRANCH   1  15
HETATM   15  C4  UNL     1      -1.383  -2.666  19.052  1.00  0.00     0.053 C
BRANCH  15  16
HETATM   16  C5  UNL     1      -0.366  -3.099  18.036  1.00  0.00     0.185 C
BRANCH  16  17
HETATM   17  N4  UNL     1      -0.133  -4.510  18.085  1.00  0.00    -0.075 N
ATOM     18  H43 UNL     1       0.573  -4.745  18.783  1.00  0.00     0.274 HD
ATOM     19  H42 UNL     1      -0.928  -5.005  18.490  1.00  0.00     0.274 HD
ATOM     20  H41 UNL     1       0.112  -4.886  17.170  1.00  0.00     0.274 HD
ENDBRANCH  16  17
BRANCH  16  21
HETATM   21  C6  UNL     1       0.944  -2.382  18.165  1.00  0.00     0.034 C
BRANCH  21  22
HETATM   22  C7  UNL     1       1.272  -1.804  16.797  1.00  0.00     0.020 C
BRANCH  22  23
HETATM   23  C8  UNL     1       0.020  -1.516  16.005  1.00  0.00     0.134 C
BRANCH  23  24
HETATM   24  N5  UNL     1       0.366  -0.492  15.028  1.00  0.00    -0.148 NA
BRANCH  24  25
HETATM   25  N6  UNL     1       1.506   0.226  15.411  1.00  0.00    -0.348 N
ATOM     26  H62 UNL     1       1.924   0.159  16.339  1.00  0.00     0.172 HD
ATOM     27  H61 UNL     1       1.856   0.812  14.653  1.00  0.00     0.172 HD
ENDBRANCH  24  25
ENDBRANCH  23  24
ENDBRANCH  22  23
ENDBRANCH  21  22
ENDBRANCH  16  21
ENDBRANCH  15  16
ENDBRANCH   1  15
TORSDOF 10
ENDMDL