MODEL 4
REMARK VINA RESULT: -6.879266455      0.974      1.755
REMARK  7 active torsions:
REMARK  status: ('A' for Active; 'I' for Inactive)
REMARK    1  A    between atoms: N1_1  and  C1_5
REMARK    2  A    between atoms: C1_5  and  C2_6
REMARK    3  A    between atoms: C2_6  and  O1_7
REMARK    4  A    between atoms: C2_6  and  C3_9
REMARK    5  A    between atoms: C3_9  and  C4_10
REMARK    6  A    between atoms: C3_9  and  N2_12
REMARK    7  A    between atoms: C5_14  and  C6_15
ROOT
HETATM    1  N2  UNL     1      -0.937  -3.441  18.310  1.00  0.00    -0.385 N
ATOM      2  H2  UNL     1      -0.608  -4.305  18.742  1.00  0.00     0.159 HD
HETATM    3  C5  UNL     1      -2.143  -3.067  18.514  1.00  0.00     0.104 C
ENDROOT
BRANCH   1   4
HETATM    4  C3  UNL     1      -0.027  -2.679  17.490  1.00  0.00     0.173 C
BRANCH   4   5
HETATM    5  C2  UNL     1       0.586  -1.518  18.248  1.00  0.00     0.172 C
BRANCH   5   6
HETATM    6  C1  UNL     1       2.091  -1.494  18.121  1.00  0.00     0.263 C
BRANCH   6   7
HETATM    7  N1  UNL     1       2.551  -2.525  17.236  1.00  0.00    -0.077 N
ATOM      8  H13 UNL     1       1.790  -3.144  16.953  1.00  0.00     0.274 HD
ATOM      9  H12 UNL     1       2.796  -2.152  16.319  1.00  0.00     0.274 HD
ATOM     10  H11 UNL     1       3.325  -3.046  17.649  1.00  0.00     0.274 HD
ENDBRANCH   6   7
ENDBRANCH   5   6
BRANCH   5  11
HETATM   11  O1  UNL     1       0.078  -0.348  17.692  1.00  0.00    -0.391 OA
ATOM     12  H1  UNL     1      -0.505   0.057  18.324  1.00  0.00     0.210 HD
ENDBRANCH   5  11
ENDBRANCH   4   5
BRANCH   4  13
HETATM   13  C4  UNL     1      -0.723  -2.073  16.303  1.00  0.00     0.258 C
HETATM   14  O2  UNL     1      -0.791  -2.681  15.263  1.00  0.00    -0.305 OA
ENDBRANCH   4  13
ENDBRANCH   1   4
BRANCH   3  15
HETATM   15  C6  UNL     1      -3.091  -3.806  19.334  1.00  0.00     0.088 A
HETATM   16  C7  UNL     1      -3.487  -5.076  18.979  1.00  0.00     0.137 A
HETATM   17  N3  UNL     1      -2.952  -5.634  17.806  1.00  0.00    -0.081 NA
HETATM   18  N4  UNL     1      -4.373  -5.796  19.724  1.00  0.00    -0.296 N
HETATM   19  C8  UNL     1      -4.883  -5.264  20.841  1.00  0.00     0.328 A
ATOM     20  H4  UNL     1      -4.646  -6.735  19.432  1.00  0.00     0.171 HD
HETATM   21  O3  UNL     1      -5.699  -5.943  21.516  1.00  0.00    -0.247 OA
HETATM   22  N5  UNL     1      -4.509  -4.024  21.205  1.00  0.00    -0.275 N
HETATM   23  C9  UNL     1      -3.637  -3.288  20.492  1.00  0.00     0.264 A
ATOM     24  H5  UNL     1      -4.902  -3.626  22.058  1.00  0.00     0.173 HD
HETATM   25  O4  UNL     1      -3.322  -2.134  20.880  1.00  0.00    -0.267 OA
ENDBRANCH   3  15
TORSDOF 7
ENDMDL