MODEL 4
REMARK VINA RESULT: -7.474954340      2.006      5.518
REMARK  7 active torsions:
REMARK  status: ('A' for Active; 'I' for Inactive)
REMARK    1  A    between atoms: N1_1  and  C1_4
REMARK    2  A    between atoms: C2_9  and  C3_10
REMARK    3  A    between atoms: C3_10  and  N4_11
REMARK    4  A    between atoms: N4_11  and  C4_12
REMARK    5  A    between atoms: N4_11  and  C6_24
REMARK       I    between atoms: N5_13  and  C5_15
REMARK       I    between atoms: C5_15  and  N6_16
REMARK       I    between atoms: C5_15  and  N7_20
REMARK    6  A    between atoms: N7_20  and  N8_21
REMARK    7  A    between atoms: C6_24  and  C7_25
ROOT
HETATM    1  N4  UNL     1      -3.314  -2.411  19.483  1.00  0.00    -0.361 N
ENDROOT
BRANCH   1   2
HETATM    2  C3  UNL     1      -2.607  -2.109  18.272  1.00  0.00     0.210 C
BRANCH   2   3
HETATM    3  C2  UNL     1      -1.373  -2.927  18.085  1.00  0.00     0.160 A
HETATM    4  N3  UNL     1      -1.126  -4.205  18.425  1.00  0.00    -0.279 N
HETATM    5  N2  UNL     1       0.115  -4.443  18.039  1.00  0.00    -0.263 N
ATOM      6  H3  UNL     1      -1.764  -4.855  18.884  1.00  0.00     0.189 HD
HETATM    7  C1  UNL     1       0.637  -3.345  17.471  1.00  0.00     0.238 A
ATOM      8  H2  UNL     1       0.603  -5.330  18.155  1.00  0.00     0.190 HD
HETATM    9  O2  UNL     1      -0.301  -2.431  17.515  1.00  0.00    -0.262 OA
BRANCH   7  10
HETATM   10  N1  UNL     1       1.844  -3.214  16.974  1.00  0.00    -0.364 N
ATOM     11  H12 UNL     1       2.347  -3.890  16.399  1.00  0.00     0.159 HD
ATOM     12  H11 UNL     1       2.469  -2.415  17.084  1.00  0.00     0.159 HD
ENDBRANCH   7  10
ENDBRANCH   2   3
ENDBRANCH   1   2
BRANCH   1  13
HETATM   13  C4  UNL     1      -3.852  -3.693  19.677  1.00  0.00     0.177 C
HETATM   14  N5  UNL     1      -4.438  -4.049  20.762  1.00  0.00    -0.345 N
HETATM   15  C5  UNL     1      -4.995  -5.367  20.968  1.00  0.00     0.396 C
ATOM     16  H5  UNL     1      -4.515  -3.368  21.517  1.00  0.00     0.163 HD
HETATM   17  N6  UNL     1      -4.025  -6.415  20.896  1.00  0.00    -0.042 N
HETATM   18  N7  UNL     1      -5.737  -5.353  22.208  1.00  0.00    -0.093 NA
ATOM     19  H63 UNL     1      -3.514  -6.373  20.014  1.00  0.00     0.278 HD
ATOM     20  H62 UNL     1      -3.259  -6.243  21.545  1.00  0.00     0.278 HD
ATOM     21  H61 UNL     1      -4.418  -7.345  21.040  1.00  0.00     0.278 HD
BRANCH  18  22
HETATM   22  N8  UNL     1      -4.965  -5.033  23.313  1.00  0.00    -0.345 N
ATOM     23  H82 UNL     1      -3.964  -4.850  23.244  1.00  0.00     0.172 HD
ATOM     24  H81 UNL     1      -5.493  -5.000  24.185  1.00  0.00     0.172 HD
ENDBRANCH  18  22
ENDBRANCH   1  13
BRANCH   1  25
HETATM   25  C6  UNL     1      -3.464  -1.423  20.514  1.00  0.00     0.223 C
BRANCH  25  26
HETATM   26  C7  UNL     1      -2.790  -0.144  20.262  1.00  0.00     0.248 C
HETATM   27  N9  UNL     1      -3.452   0.830  19.474  1.00  0.00    -0.061 NA
HETATM   28  O1  UNL     1      -1.655   0.098  20.726  1.00  0.00    -0.275 OA
ENDBRANCH  25  26
ENDBRANCH   1  25
TORSDOF 7
ENDMDL