MODEL 1
REMARK VINA RESULT: -6.922828058      0.000      0.000
REMARK  7 active torsions:
REMARK  status: ('A' for Active; 'I' for Inactive)
REMARK    1  A    between atoms: N1_1  and  C1_4
REMARK    2  A    between atoms: C4_11  and  C5_12
REMARK    3  A    between atoms: C5_12  and  C6_13
REMARK       I    between atoms: C6_13  and  N4_15
REMARK    4  A    between atoms: N4_15  and  C7_17
REMARK    5  A    between atoms: C7_17  and  C8_18
REMARK    6  A    between atoms: C8_18  and  N5_19
REMARK    7  A    between atoms: N5_19  and  N6_20
ROOT
HETATM    1  C1  UNL     1      -3.045  -3.372  19.262  1.00  0.00     0.129 A
HETATM    2  N2  UNL     1      -3.725  -2.271  19.559  1.00  0.00    -0.337 N
ATOM      3  H2  UNL     1      -4.639  -2.363  20.003  1.00  0.00     0.168 HD
HETATM    4  C2  UNL     1      -3.247  -1.022  19.292  1.00  0.00     0.182 A
HETATM    5  N3  UNL     1      -2.044  -0.938  18.709  1.00  0.00    -0.349 N
ATOM      6  H3  UNL     1      -1.670  -0.012  18.501  1.00  0.00     0.167 HD
HETATM    7  C3  UNL     1      -1.301  -2.019  18.382  1.00  0.00     0.087 A
HETATM    8  C4  UNL     1      -0.076  -1.933  17.784  1.00  0.00     0.048 A
HETATM    9  N7  UNL     1       0.570  -3.113  17.500  1.00  0.00    -0.353 N
ATOM     10  H7  UNL     1       1.486  -3.064  17.054  1.00  0.00     0.166 HD
HETATM   11  C9  UNL     1       0.074  -4.308  17.772  1.00  0.00     0.181 A
HETATM   12  N8  UNL     1      -1.138  -4.420  18.365  1.00  0.00    -0.347 N
ATOM     13  H8  UNL     1      -1.539  -5.332  18.585  1.00  0.00     0.167 HD
HETATM   14  C10 UNL     1      -1.794  -3.275  18.655  1.00  0.00     0.106 A
ENDROOT
BRANCH   8  15
HETATM   15  C5  UNL     1       0.567  -0.647  17.494  1.00  0.00     0.162 C
BRANCH  15  16
HETATM   16  C6  UNL     1       0.410  -0.377  16.046  1.00  0.00     0.223 C
HETATM   17  O1  UNL     1      -0.013  -1.287  15.306  1.00  0.00    -0.273 OA
HETATM   18  N4  UNL     1       0.712   0.892  15.455  1.00  0.00    -0.360 N
ATOM     19  H4  UNL     1       1.061   1.662  16.026  1.00  0.00     0.162 HD
BRANCH  18  20
HETATM   20  C7  UNL     1       0.510   1.057  14.037  1.00  0.00     0.140 C
BRANCH  20  21
HETATM   21  C8  UNL     1       0.198   2.447  13.603  1.00  0.00     0.154 C
BRANCH  21  22
HETATM   22  N5  UNL     1      -0.891   3.007  14.371  1.00  0.00    -0.147 NA
BRANCH  22  23
HETATM   23  N6  UNL     1      -1.758   3.763  13.614  1.00  0.00    -0.348 N
ATOM     24  H62 UNL     1      -2.750   3.542  13.534  1.00  0.00     0.172 HD
ATOM     25  H61 UNL     1      -1.308   4.553  13.152  1.00  0.00     0.172 HD
ENDBRANCH  22  23
ENDBRANCH  21  22
ENDBRANCH  20  21
ENDBRANCH  18  20
ENDBRANCH  15  16
ENDBRANCH   8  15
BRANCH   1  26
HETATM   26  N1  UNL     1      -3.493  -4.564  19.526  1.00  0.00    -0.384 N
ATOM     27  H12 UNL     1      -4.344  -4.634  20.084  1.00  0.00     0.157 HD
ATOM     28  H11 UNL     1      -3.034  -5.410  19.190  1.00  0.00     0.157 HD
ENDBRANCH   1  26
TORSDOF 7
ENDMDL