MODEL 1
REMARK VINA RESULT: -6.414027090      0.000      0.000
REMARK  9 active torsions:
REMARK  status: ('A' for Active; 'I' for Inactive)
REMARK    1  A    between atoms: C2_7  and  C3_8
REMARK    2  A    between atoms: C3_8  and  C4_9
REMARK    3  A    between atoms: C4_9  and  N3_10
REMARK    4  A    between atoms: C4_9  and  C5_14
REMARK       I    between atoms: C5_14  and  N4_16
REMARK    5  A    between atoms: N4_16  and  C6_18
REMARK    6  A    between atoms: C6_18  and  C7_19
REMARK    7  A    between atoms: C7_19  and  N5_20
REMARK    8  A    between atoms: C8_26  and  C9_27
REMARK    9  A    between atoms: C9_27  and  N7_28
ROOT
HETATM    1  N1  UNL     1      -3.101  -5.721  18.212  1.00  0.00    -0.234 N
ATOM      2  H11 UNL     1      -3.174  -6.710  18.448  1.00  0.00     0.174 HD
ATOM      3  H12 UNL     1      -2.771  -5.450  17.287  1.00  0.00     0.174 HD
HETATM    4  C1  UNL     1      -3.435  -4.872  19.110  1.00  0.00     0.678 A
HETATM    5  N2  UNL     1      -3.338  -3.551  18.795  1.00  0.00    -0.181 N
ATOM      6  H2  UNL     1      -3.009  -3.263  17.873  1.00  0.00     0.185 HD
HETATM    7  C2  UNL     1      -3.682  -2.625  19.715  1.00  0.00     0.101 A
HETATM    8  N6  UNL     1      -4.112  -3.014  20.924  1.00  0.00    -0.333 N
ATOM      9  H6  UNL     1      -4.370  -2.307  21.613  1.00  0.00     0.168 HD
HETATM   10  C8  UNL     1      -4.213  -4.316  21.248  1.00  0.00     0.124 A
HETATM   11  N8  UNL     1      -3.868  -5.227  20.324  1.00  0.00    -0.179 N
ATOM     12  H8  UNL     1      -3.939  -6.219  20.555  1.00  0.00     0.185 HD
ENDROOT
BRANCH   7  13
HETATM   13  C3  UNL     1      -3.602  -1.167  19.441  1.00  0.00     0.119 C
BRANCH  13  14
HETATM   14  C4  UNL     1      -2.349  -0.633  20.125  1.00  0.00     0.281 C
BRANCH  14  15
HETATM   15  N3  UNL     1      -2.671   0.608  20.753  1.00  0.00    -0.066 N
ATOM     16  H33 UNL     1      -1.978   1.333  20.566  1.00  0.00     0.275 HD
ATOM     17  H32 UNL     1      -3.473   1.068  20.323  1.00  0.00     0.275 HD
ATOM     18  H31 UNL     1      -2.803   0.440  21.751  1.00  0.00     0.275 HD
ENDBRANCH  14  15
BRANCH  14  19
HETATM   19  C5  UNL     1      -1.307  -0.409  19.098  1.00  0.00     0.248 C
HETATM   20  O1  UNL     1      -1.277   0.696  18.504  1.00  0.00    -0.271 OA
HETATM   21  N4  UNL     1      -0.342  -1.394  18.759  1.00  0.00    -0.358 N
ATOM     22  H4  UNL     1      -0.359  -2.296  19.235  1.00  0.00     0.162 HD
BRANCH  21  23
HETATM   23  C6  UNL     1       0.655  -1.145  17.760  1.00  0.00     0.150 C
BRANCH  23  24
HETATM   24  C7  UNL     1       2.035  -1.560  18.187  1.00  0.00     0.249 C
BRANCH  24  25
HETATM   25  N5  UNL     1       2.740  -2.288  17.160  1.00  0.00    -0.078 N
ATOM     26  H53 UNL     1       3.742  -2.097  17.199  1.00  0.00     0.274 HD
ATOM     27  H52 UNL     1       2.755  -3.288  17.364  1.00  0.00     0.274 HD
ATOM     28  H51 UNL     1       2.370  -2.111  16.226  1.00  0.00     0.274 HD
ENDBRANCH  24  25
ENDBRANCH  23  24
ENDBRANCH  21  23
ENDBRANCH  14  19
ENDBRANCH  13  14
ENDBRANCH   7  13
BRANCH  10  29
HETATM   29  C9  UNL     1      -4.684  -4.755  22.568  1.00  0.00     0.306 C
BRANCH  29  30
HETATM   30  N7  UNL     1      -5.492  -5.945  22.420  1.00  0.00    -0.073 N
ATOM     31  H73 UNL     1      -6.446  -5.808  22.757  1.00  0.00     0.274 HD
ATOM     32  H72 UNL     1      -5.710  -6.144  21.444  1.00  0.00     0.274 HD
ATOM     33  H71 UNL     1      -5.029  -6.728  22.879  1.00  0.00     0.274 HD
ENDBRANCH  29  30
ENDBRANCH  10  29
TORSDOF 9
ENDMDL