MODEL 5
REMARK VINA RESULT: -7.104384818      2.279      5.252
REMARK  9 active torsions:
REMARK  status: ('A' for Active; 'I' for Inactive)
REMARK    1  A    between atoms: N1_1  and  C1_5
REMARK    2  A    between atoms: C1_5  and  C2_6
REMARK    3  A    between atoms: C2_6  and  N2_7
REMARK    4  A    between atoms: C2_6  and  C3_12
REMARK    5  A    between atoms: N2_7  and  N3_9
REMARK    6  A    between atoms: C5_14  and  C6_15
REMARK    7  A    between atoms: C7_20  and  N6_21
REMARK    8  A    between atoms: N6_21  and  N7_23
REMARK    9  A    between atoms: N7_23  and  C8_25
ROOT
HETATM    1  C3  UNL     1      -0.878  -1.874  18.299  1.00  0.00     0.054 A
HETATM    2  C4  UNL     1      -1.222  -0.742  19.008  1.00  0.00     0.063 A
HETATM    3  C5  UNL     1      -2.339  -0.798  19.815  1.00  0.00     0.116 A
HETATM    4  N5  UNL     1      -3.075  -1.912  19.917  1.00  0.00    -0.185 N
ATOM      5  H5  UNL     1      -3.900  -1.943  20.517  1.00  0.00     0.184 HD
HETATM    6  C7  UNL     1      -2.695  -2.993  19.201  1.00  0.00     0.697 A
HETATM    7  N8  UNL     1      -1.623  -2.964  18.417  1.00  0.00    -0.192 N
ATOM      8  H8  UNL     1      -1.368  -3.801  17.893  1.00  0.00     0.184 HD
ENDROOT
BRANCH   1   9
HETATM    9  C2  UNL     1       0.327  -1.811  17.429  1.00  0.00     0.174 C
BRANCH   9  10
HETATM   10  C1  UNL     1       0.239  -2.950  16.431  1.00  0.00     0.262 C
BRANCH  10  11
HETATM   11  N1  UNL     1       1.266  -3.899  16.742  1.00  0.00    -0.077 N
ATOM     12  H13 UNL     1       2.146  -3.455  17.001  1.00  0.00     0.274 HD
ATOM     13  H12 UNL     1       1.095  -4.389  17.621  1.00  0.00     0.274 HD
ATOM     14  H11 UNL     1       1.364  -4.534  15.950  1.00  0.00     0.274 HD
ENDBRANCH  10  11
ENDBRANCH   9  10
BRANCH   9  15
HETATM   15  N2  UNL     1       1.480  -1.905  18.271  1.00  0.00    -0.331 N
ATOM     16  H2  UNL     1       1.557  -2.597  19.016  1.00  0.00     0.180 HD
BRANCH  15  17
HETATM   17  N3  UNL     1       2.476  -0.995  18.001  1.00  0.00    -0.349 N
ATOM     18  H32 UNL     1       2.267  -0.013  17.820  1.00  0.00     0.176 HD
ATOM     19  H31 UNL     1       3.422  -1.377  17.998  1.00  0.00     0.176 HD
ENDBRANCH  15  17
ENDBRANCH   9  15
ENDBRANCH   1   9
BRANCH   3  20
HETATM   20  C6  UNL     1      -2.715   0.386  20.568  1.00  0.00     0.282 C
HETATM   21  N4  UNL     1      -1.966   0.873  21.668  1.00  0.00    -0.056 NA
HETATM   22  O1  UNL     1      -3.751   1.038  20.258  1.00  0.00    -0.269 OA
ENDBRANCH   3  20
BRANCH   6  23
HETATM   23  N6  UNL     1      -3.410  -4.045  19.313  1.00  0.00    -0.130 N
ATOM     24  H6  UNL     1      -3.796  -4.498  18.485  1.00  0.00     0.205 HD
BRANCH  23  25
HETATM   25  N7  UNL     1      -3.659  -4.567  20.590  1.00  0.00    -0.263 N
ATOM     26  H7  UNL     1      -3.087  -4.264  21.379  1.00  0.00     0.190 HD
BRANCH  25  27
HETATM   27  C8  UNL     1      -4.695  -5.512  20.797  1.00  0.00     0.369 C
HETATM   28  O2  UNL     1      -4.492  -6.710  20.457  1.00  0.00    -0.282 OA
ENDBRANCH  25  27
ENDBRANCH  23  25
ENDBRANCH   6  23
TORSDOF 9
ENDMDL