MODEL 2
REMARK VINA RESULT: -6.405425243      3.004      5.624
REMARK  5 active torsions:
REMARK  status: ('A' for Active; 'I' for Inactive)
REMARK    1  A    between atoms: N3_8  and  C4_10
REMARK    2  A    between atoms: C8_15  and  N5_16
REMARK    3  A    between atoms: N5_16  and  C9_18
REMARK    4  A    between atoms: C9_18  and  C10_19
REMARK    5  A    between atoms: C12_26  and  C13_27
ROOT
HETATM    1  C1  UNL     1     -36.567 169.396  78.017  1.00  0.00     0.149 C
HETATM    2  N1  UNL     1     -36.261 170.614  77.366  1.00  0.00    -0.366 N
ATOM      3  H1  UNL     1     -35.718 171.299  77.892  1.00  0.00     0.162 HD
HETATM    4  C2  UNL     1     -36.622 170.943  76.124  1.00  0.00     0.183 C
HETATM    5  N2  UNL     1     -37.371 170.097  75.281  1.00  0.00    -0.317 N
ATOM      6  H2  UNL     1     -36.879 169.274  74.934  1.00  0.00     0.170 HD
HETATM    7  C3  UNL     1     -38.811 170.244  74.819  1.00  0.00     0.098 C
HETATM    8  N3  UNL     1     -39.509 169.234  74.512  1.00  0.00    -0.374 N
ATOM      9  H3  UNL     1     -39.036 168.335  74.596  1.00  0.00     0.161 HD
HETATM   10  C7  UNL     1     -39.308 171.617  74.878  1.00  0.00     0.219 C
HETATM   11  N4  UNL     1     -38.931 172.575  73.880  1.00  0.00    -0.189 N
HETATM   12  C8  UNL     1     -39.356 173.817  74.090  1.00  0.00     0.680 C
HETATM   13  N6  UNL     1     -37.804 174.014  74.936  1.00  0.00    -0.161 N
ATOM     14  H6  UNL     1     -37.581 174.830  75.507  1.00  0.00     0.187 HD
HETATM   15  C11 UNL     1     -36.960 172.996  74.755  1.00  0.00     0.198 C
HETATM   16  N7  UNL     1     -36.917 171.899  73.923  1.00  0.00    -0.339 N
ATOM     17  H7  UNL     1     -36.203 171.171  73.941  1.00  0.00     0.164 HD
HETATM   18  C12 UNL     1     -38.085 171.945  72.987  1.00  0.00     0.208 C
HETATM   19  N8  UNL     1     -36.085 172.318  75.831  1.00  0.00    -0.299 N
ATOM     20  H8  UNL     1     -35.268 172.737  76.276  1.00  0.00     0.172 HD
ENDROOT
BRANCH   8  21
HETATM   21  C4  UNL     1     -40.842 169.173  74.072  1.00  0.00     0.074 C
HETATM   22  C5  UNL     1     -40.878 169.676  72.619  1.00  0.00     0.031 C
HETATM   23  C6  UNL     1     -41.444 167.785  74.025  1.00  0.00     0.031 C
ENDBRANCH   8  21
BRANCH  12  24
HETATM   24  N5  UNL     1     -39.777 174.993  74.280  1.00  0.00    -0.225 N
ATOM     25  H5  UNL     1     -39.740 175.311  75.249  1.00  0.00     0.177 HD
BRANCH  24  26
HETATM   26  C9  UNL     1     -40.291 175.940  73.359  1.00  0.00     0.149 C
BRANCH  26  27
HETATM   27  C10 UNL     1     -39.528 175.794  72.036  1.00  0.00     0.105 C
HETATM   28 BR1  UNL     1     -40.655 176.254  70.529  1.00  0.00    -0.095 Br
ENDBRANCH  26  27
ENDBRANCH  24  26
ENDBRANCH  12  24
BRANCH  18  29
HETATM   29  C13 UNL     1     -37.744 172.812  71.815  1.00  0.00     0.021 C
HETATM   30  C14 UNL     1     -38.810 172.918  70.784  1.00  0.00     0.013 C
HETATM   31  C15 UNL     1     -36.468 172.366  71.127  1.00  0.00     0.013 C
ENDBRANCH  18  29
TORSDOF 5
ENDMDL