MODEL 1
REMARK VINA RESULT: -7.173857951      0.000      0.000
REMARK  7 active torsions:
REMARK  status: ('A' for Active; 'I' for Inactive)
REMARK    1  A    between atoms: N1_2  and  C3_4
REMARK    2  A    between atoms: C3_4  and  C4_5
REMARK       I    between atoms: C4_5  and  N2_7
REMARK    3  A    between atoms: N2_7  and  C5_9
REMARK    4  A    between atoms: C7_16  and  N5_17
REMARK    5  A    between atoms: N5_17  and  C8_19
REMARK    6  A    between atoms: C10_21  and  C11_22
REMARK    7  A    between atoms: C11_22  and  O3_23
ROOT
HETATM    1  C5  UNL     1     -39.163 173.326  74.493  1.00  0.00     0.703 A
HETATM    2  N3  UNL     1     -39.235 174.671  74.418  1.00  0.00    -0.140 N
ATOM      3  H3  UNL     1     -39.335 175.234  75.263  1.00  0.00     0.189 HD
HETATM    4  C6  UNL     1     -39.174 175.248  73.221  1.00  0.00     0.352 A
HETATM    5  O2  UNL     1     -39.234 176.506  73.045  1.00  0.00    -0.246 OA
HETATM    6  N4  UNL     1     -39.039 174.469  72.112  1.00  0.00    -0.140 N
ATOM      7  H4  UNL     1     -38.991 174.913  71.195  1.00  0.00     0.189 HD
HETATM    8  C7  UNL     1     -38.967 173.128  72.199  1.00  0.00     0.697 A
HETATM    9  N6  UNL     1     -39.030 172.561  73.404  1.00  0.00    -0.022 N
ATOM     10  H6  UNL     1     -38.977 171.546  73.496  1.00  0.00     0.203 HD
ENDROOT
BRANCH   8  11
HETATM   11  N5  UNL     1     -38.838 172.405  71.116  1.00  0.00    -0.221 N
ATOM     12  H5  UNL     1     -39.388 172.664  70.296  1.00  0.00     0.178 HD
BRANCH  11  13
HETATM   13  C8  UNL     1     -37.962 171.263  71.015  1.00  0.00     0.101 C
HETATM   14  C9  UNL     1     -38.175 170.637  69.645  1.00  0.00     0.034 C
HETATM   15  C10 UNL     1     -37.007 171.169  68.857  1.00  0.00     0.030 C
HETATM   16  C12 UNL     1     -35.881 170.985  69.852  1.00  0.00     0.022 C
HETATM   17  C13 UNL     1     -34.608 171.646  69.409  1.00  0.00     0.028 C
HETATM   18 BR1  UNL     1     -35.655 169.121  70.219  1.00  0.00    -0.085 Br
HETATM   19  C14 UNL     1     -36.497 171.699  71.058  1.00  0.00     0.046 C
BRANCH  15  20
HETATM   20  C11 UNL     1     -36.798 170.460  67.558  1.00  0.00     0.170 C
BRANCH  20  21
HETATM   21  O3  UNL     1     -37.838 169.607  67.253  1.00  0.00    -0.400 OA
ATOM     22  H3  UNL     1     -37.533 168.769  66.926  1.00  0.00     0.209 HD
ENDBRANCH  20  21
ENDBRANCH  15  20
ENDBRANCH  11  13
ENDBRANCH   8  11
BRANCH   1  23
HETATM   23  N2  UNL     1     -39.221 172.757  75.642  1.00  0.00    -0.157 N
HETATM   24  C4  UNL     1     -39.328 171.343  75.743  1.00  0.00     0.264 C
HETATM   25  O1  UNL     1     -40.439 170.821  75.494  1.00  0.00    -0.271 OA
ATOM     26  H2  UNL     1     -39.190 173.324  76.490  1.00  0.00     0.187 HD
BRANCH  24  27
HETATM   27  C3  UNL     1     -38.117 170.596  76.134  1.00  0.00     0.374 C
BRANCH  27  28
HETATM   28  N1  UNL     1     -38.101 169.246  75.610  1.00  0.00     0.088 N
HETATM   29  C1  UNL     1     -37.028 168.547  76.334  1.00  0.00     0.310 C
HETATM   30  C2  UNL     1     -37.744 169.200  74.205  1.00  0.00     0.310 C
ENDBRANCH  27  28
ENDBRANCH  24  27
ENDBRANCH   1  23
TORSDOF 7
ENDMDL