MODEL 4
REMARK VINA RESULT: -6.747403950      3.047      7.999
REMARK  6 active torsions:
REMARK  status: ('A' for Active; 'I' for Inactive)
REMARK    1  A    between atoms: C2_2  and  C3_3
REMARK    2  A    between atoms: C4_6  and  N2_7
REMARK       I    between atoms: N2_7  and  C5_9
REMARK    3  A    between atoms: C5_9  and  C6_11
REMARK       I    between atoms: C6_11  and  N3_13
REMARK    4  A    between atoms: N3_13  and  C7_15
REMARK    5  A    between atoms: C7_15  and  C8_16
REMARK       I    between atoms: C8_16  and  N4_18
REMARK    6  A    between atoms: N4_18  and  C9_20
ROOT
HETATM    1  N2  UNL     1     -37.088 173.780  74.899  1.00  0.00    -0.151 N
ATOM      2  H2  UNL     1     -36.320 174.346  74.535  1.00  0.00     0.188 HD
HETATM    3  C5  UNL     1     -38.416 174.136  74.551  1.00  0.00     0.327 C
HETATM    4  O1  UNL     1     -39.260 174.486  75.436  1.00  0.00    -0.261 OA
ENDROOT
BRANCH   3   5
HETATM    5  C6  UNL     1     -38.859 174.114  73.159  1.00  0.00     0.310 C
HETATM    6  O2  UNL     1     -39.834 174.878  72.845  1.00  0.00    -0.262 OA
HETATM    7  N3  UNL     1     -38.231 173.278  72.203  1.00  0.00    -0.344 N
ATOM      8  H3  UNL     1     -37.460 172.686  72.512  1.00  0.00     0.163 HD
BRANCH   7   9
HETATM    9  C7  UNL     1     -38.619 173.222  70.836  1.00  0.00     0.225 C
BRANCH   9  10
HETATM   10  C8  UNL     1     -38.509 171.862  70.269  1.00  0.00     0.235 C
HETATM   11  O3  UNL     1     -37.997 171.684  69.141  1.00  0.00    -0.272 OA
HETATM   12  N4  UNL     1     -38.984 170.737  70.998  1.00  0.00    -0.352 N
ATOM     13  H4  UNL     1     -39.401 170.886  71.917  1.00  0.00     0.163 HD
BRANCH  12  14
HETATM   14  C9  UNL     1     -38.897 169.386  70.483  1.00  0.00     0.022 C
HETATM   15  C10 UNL     1     -37.470 168.935  70.536  1.00  0.00     0.037 C
HETATM   16  C11 UNL     1     -39.799 168.509  71.338  1.00  0.00     0.037 C
HETATM   17  C12 UNL     1     -39.462 169.336  69.080  1.00  0.00     0.037 C
ENDBRANCH  12  14
ENDBRANCH   9  10
ENDBRANCH   7   9
ENDBRANCH   3   5
BRANCH   1  18
HETATM   18  C4  UNL     1     -36.807 172.771  75.655  1.00  0.00     0.688 A
HETATM   19  N1  UNL     1     -35.642 172.608  76.292  1.00  0.00    -0.194 N
HETATM   20  C3  UNL     1     -35.352 171.560  77.076  1.00  0.00     0.049 A
ATOM     21  H1  UNL     1     -34.929 173.328  76.173  1.00  0.00     0.184 HD
HETATM   22  C14 UNL     1     -36.318 170.587  77.235  1.00  0.00     0.102 A
HETATM   23  C13 UNL     1     -37.517 170.769  76.571  1.00  0.00     0.279 A
HETATM   24 BR1  UNL     1     -35.979 169.054  78.341  1.00  0.00    -0.043 Br
HETATM   25  N5  UNL     1     -37.782 171.828  75.792  1.00  0.00    -0.155 N
HETATM   26  O4  UNL     1     -38.380 169.855  76.741  1.00  0.00    -0.266 OA
ATOM     27  H5  UNL     1     -38.681 171.923  75.319  1.00  0.00     0.187 HD
BRANCH  20  28
HETATM   28  C2  UNL     1     -34.027 171.474  77.738  1.00  0.00     0.055 C
HETATM   29  C1  UNL     1     -33.805 172.606  78.716  1.00  0.00     0.011 C
ENDBRANCH  20  28
ENDBRANCH   1  18
TORSDOF 6
ENDMDL