MODEL 4
REMARK VINA RESULT: -6.218468513      5.520      8.300
REMARK  5 active torsions:
REMARK  status: ('A' for Active; 'I' for Inactive)
REMARK    1  A    between atoms: C4_6  and  C5_7
REMARK    2  A    between atoms: C9_12  and  O1_13
REMARK    3  A    between atoms: N3_20  and  C13_22
REMARK    4  A    between atoms: C13_22  and  C14_23
REMARK    5  A    between atoms: C14_23  and  N4_24
ROOT
HETATM    1  C1  UNL     1     -38.547 169.236  76.325  1.00  0.00     0.047 C
HETATM    2  C2  UNL     1     -37.811 170.337  76.174  1.00  0.00     0.078 A
HETATM    3  N1  UNL     1     -36.609 170.444  76.763  1.00  0.00    -0.340 N
ATOM      4  H1  UNL     1     -36.250 169.678  77.333  1.00  0.00     0.167 HD
HETATM    5  C3  UNL     1     -35.881 171.562  76.601  1.00  0.00     0.108 A
HETATM    6  C4  UNL     1     -34.688 171.628  77.204  1.00  0.00     0.060 C
HETATM    7  N2  UNL     1     -36.354 172.555  75.859  1.00  0.00    -0.325 N
ATOM      8  H2  UNL     1     -35.777 173.390  75.755  1.00  0.00     0.169 HD
HETATM    9  C12 UNL     1     -37.565 172.531  75.223  1.00  0.00     0.160 A
HETATM   10  N3  UNL     1     -37.957 173.518  74.528  1.00  0.00    -0.351 N
ATOM     11  H3  UNL     1     -37.292 174.290  74.503  1.00  0.00     0.166 HD
HETATM   12  C17 UNL     1     -38.307 171.391  75.391  1.00  0.00     0.241 A
HETATM   13  O2  UNL     1     -39.442 171.234  74.863  1.00  0.00    -0.282 OA
ENDROOT
BRANCH   6  14
HETATM   14  C5  UNL     1     -34.197 170.532  78.007  1.00  0.00    -0.023 A
HETATM   15  C6  UNL     1     -33.484 169.539  77.362  1.00  0.00     0.031 A
HETATM   16  C7  UNL     1     -33.021 168.494  78.154  1.00  0.00     0.014 A
HETATM   17 BR1  UNL     1     -32.033 167.090  77.344  1.00  0.00    -0.051 Br
HETATM   18  C8  UNL     1     -33.267 168.464  79.513  1.00  0.00     0.056 A
HETATM   19  C9  UNL     1     -33.984 169.477  80.116  1.00  0.00     0.073 A
HETATM   20  C10 UNL     1     -34.455 170.524  79.361  1.00  0.00    -0.018 A
HETATM   21  C11 UNL     1     -35.238 171.637  80.006  1.00  0.00     0.052 C
BRANCH  19  22
HETATM   22  O1  UNL     1     -34.235 169.458  81.473  1.00  0.00    -0.360 OA
ATOM     23  H1  UNL     1     -33.770 168.863  82.048  1.00  0.00     0.217 HD
ENDBRANCH  19  22
ENDBRANCH   6  14
BRANCH  10  24
HETATM   24  C13 UNL     1     -39.123 173.757  73.787  1.00  0.00     0.092 C
BRANCH  24  25
HETATM   25  C14 UNL     1     -38.755 174.275  72.418  1.00  0.00     0.315 C
BRANCH  25  26
HETATM   26  N4  UNL     1     -39.291 175.554  72.117  1.00  0.00     0.084 N
HETATM   27  C15 UNL     1     -40.084 176.052  73.224  1.00  0.00     0.309 C
HETATM   28  C16 UNL     1     -40.007 175.645  70.888  1.00  0.00     0.309 C
ENDBRANCH  25  26
ENDBRANCH  24  25
ENDBRANCH  10  24
TORSDOF 5
ENDMDL