MODEL 4
REMARK VINA RESULT: -5.780319542      1.771      2.150
REMARK  7 active torsions:
REMARK  status: ('A' for Active; 'I' for Inactive)
REMARK    1  A    between atoms: C2_2  and  N1_3
REMARK       I    between atoms: N1_3  and  C3_5
REMARK    2  A    between atoms: C3_5  and  C4_7
REMARK    3  A    between atoms: N3_13  and  C6_14
REMARK    4  A    between atoms: C6_14  and  N4_16
REMARK    5  A    between atoms: N4_16  and  C7_18
REMARK    6  A    between atoms: C7_18  and  C10_21
REMARK    7  A    between atoms: C10_21  and  O3_22
ROOT
HETATM    1  C4  UNL     1     -38.562 172.040  74.762  1.00  0.00     0.228 C
HETATM    2 BR1  UNL     1     -37.425 171.318  76.077  1.00  0.00    -0.043 Br
HETATM    3  N2  UNL     1     -39.949 171.744  74.873  1.00  0.00    -0.309 N
ATOM      4  H2  UNL     1     -40.655 172.361  75.275  1.00  0.00     0.166 HD
HETATM    5  C5  UNL     1     -40.192 170.467  74.342  1.00  0.00     0.331 C
HETATM    6  O2  UNL     1     -41.109 169.697  74.610  1.00  0.00    -0.246 OA
HETATM    7  N3  UNL     1     -39.112 170.208  73.366  1.00  0.00    -0.230 N
HETATM    8  C11 UNL     1     -38.304 171.348  73.409  1.00  0.00     0.140 C
HETATM    9  S2  UNL     1     -37.245 171.875  72.297  1.00  0.00    -0.060 SA
ENDROOT
BRANCH   7  10
HETATM   10  C6  UNL     1     -39.045 168.986  72.633  1.00  0.00     0.184 C
HETATM   11  S1  UNL     1     -39.744 168.986  71.133  1.00  0.00    -0.040 SA
BRANCH  10  12
HETATM   12  N4  UNL     1     -38.268 167.892  73.042  1.00  0.00    -0.356 N
ATOM     13  H4  UNL     1     -37.351 167.808  72.601  1.00  0.00     0.162 HD
BRANCH  12  14
HETATM   14  C7  UNL     1     -38.595 166.880  73.995  1.00  0.00     0.046 C
HETATM   15  C8  UNL     1     -40.016 166.432  73.993  1.00  0.00     0.040 C
HETATM   16  C9  UNL     1     -37.684 165.654  73.955  1.00  0.00     0.040 C
BRANCH  14  17
HETATM   17  C10 UNL     1     -38.322 167.463  75.409  1.00  0.00     0.194 C
BRANCH  17  18
HETATM   18  O3  UNL     1     -39.509 167.626  76.073  1.00  0.00    -0.398 OA
ATOM     19  H3  UNL     1     -40.056 166.861  75.938  1.00  0.00     0.209 HD
ENDBRANCH  17  18
ENDBRANCH  14  17
ENDBRANCH  12  14
ENDBRANCH  10  12
ENDBRANCH   7  10
BRANCH   1  20
HETATM   20  C3  UNL     1     -38.341 173.511  74.533  1.00  0.00     0.264 C
HETATM   21  N1  UNL     1     -39.343 174.130  73.637  1.00  0.00    -0.358 N
ATOM     22  H1  UNL     1     -40.082 173.549  73.239  1.00  0.00     0.162 HD
HETATM   23  O1  UNL     1     -37.442 174.134  75.016  1.00  0.00    -0.269 OA
BRANCH  21  24
HETATM   24  C2  UNL     1     -39.300 175.510  73.318  1.00  0.00     0.118 C
HETATM   25  C1  UNL     1     -39.762 175.868  71.944  1.00  0.00     0.026 C
ENDBRANCH  21  24
ENDBRANCH   1  20
TORSDOF 7
ENDMDL