MODEL 3
REMARK VINA RESULT: -7.190488377      1.223      1.232
REMARK  4 active torsions:
REMARK  status: ('A' for Active; 'I' for Inactive)
REMARK       I    between atoms: N1_11  and  C9_12
REMARK    1  A    between atoms: C11_15  and  C12_16
REMARK       I    between atoms: C12_16  and  N2_18
REMARK    2  A    between atoms: N2_18  and  C13_20
REMARK    3  A    between atoms: C13_20  and  C14_21
REMARK    4  A    between atoms: C14_21  and  N3_22
REMARK       I    between atoms: N3_22  and  C15_24
ROOT
HETATM    1  C1  UNL     1     -38.217 171.004  76.189  1.00  0.00     0.019 C
HETATM    2  C2  UNL     1     -38.464 170.935  74.892  1.00  0.00    -0.027 C
HETATM    3  C3  UNL     1     -39.535 170.068  74.330  1.00  0.00     0.177 C
HETATM    4  O1  UNL     1     -39.409 168.766  74.800  1.00  0.00    -0.368 OA
HETATM    5  C4  UNL     1     -39.782 167.955  73.702  1.00  0.00     0.070 C
HETATM    6  C5  UNL     1     -41.263 168.070  73.499  1.00  0.00     0.047 C
HETATM    7  C6  UNL     1     -39.359 166.524  73.927  1.00  0.00     0.047 C
HETATM    8  C7  UNL     1     -38.982 168.606  72.589  1.00  0.00     0.117 C
HETATM    9 BR1  UNL     1     -37.125 168.165  72.928  1.00  0.00    -0.086 Br
HETATM   10  C8  UNL     1     -39.269 170.068  72.870  1.00  0.00     0.139 C
HETATM   11  N1  UNL     1     -38.144 170.919  72.593  1.00  0.00    -0.326 N
HETATM   12  C9  UNL     1     -37.518 170.994  71.324  1.00  0.00     0.217 C
HETATM   13  C10 UNL     1     -36.357 171.864  71.012  1.00  0.00     0.117 C
HETATM   14  O2  UNL     1     -37.957 170.287  70.393  1.00  0.00    -0.274 OA
HETATM   15  C11 UNL     1     -37.771 171.660  73.781  1.00  0.00     0.211 C
ENDROOT
BRANCH  15  16
HETATM   16  C12 UNL     1     -38.228 173.047  73.782  1.00  0.00     0.245 C
HETATM   17  O3  UNL     1     -37.515 173.868  74.457  1.00  0.00    -0.271 OA
HETATM   18  N2  UNL     1     -39.367 173.539  73.112  1.00  0.00    -0.357 N
ATOM     19  H2  UNL     1     -39.938 172.888  72.572  1.00  0.00     0.162 HD
BRANCH  18  20
HETATM   20  C13 UNL     1     -39.755 174.925  73.160  1.00  0.00     0.142 C
BRANCH  20  21
HETATM   21  C14 UNL     1     -39.219 175.717  71.999  1.00  0.00     0.142 C
BRANCH  21  22
HETATM   22  N3  UNL     1     -40.315 176.482  71.451  1.00  0.00    -0.363 N
HETATM   23  C15 UNL     1     -40.686 176.467  70.080  1.00  0.00     0.181 C
HETATM   24  N4  UNL     1     -39.824 176.484  69.126  1.00  0.00    -0.374 N
HETATM   25  N5  UNL     1     -42.068 176.431  69.774  1.00  0.00    -0.064 NA
ATOM     26  H42 UNL     1     -38.828 176.509  69.346  1.00  0.00     0.158 HD
ATOM     27  H41 UNL     1     -40.090 176.473  68.141  1.00  0.00     0.158 HD
ATOM     28  H3  UNL     1     -40.855 177.068  72.087  1.00  0.00     0.162 HD
ENDBRANCH  21  22
ENDBRANCH  20  21
ENDBRANCH  18  20
ENDBRANCH  15  16
TORSDOF 4
ENDMDL