MODEL 3
REMARK VINA RESULT: -7.132471226      1.273      1.273
REMARK  5 active torsions:
REMARK  status: ('A' for Active; 'I' for Inactive)
REMARK    1  A    between atoms: C2_2  and  C3_3
REMARK    2  A    between atoms: C6_9  and  O2_10
REMARK    3  A    between atoms: C8_16  and  C9_17
REMARK    4  A    between atoms: C9_17  and  N3_18
REMARK       I    between atoms: N3_18  and  C10_20
REMARK    5  A    between atoms: C10_20  and  C11_22
ROOT
HETATM    1  C3  UNL     1     -39.461 174.312  73.394  1.00  0.00     0.151 C
HETATM    2  C4  UNL     1     -39.195 174.191  74.850  1.00  0.00     0.229 C
HETATM    3  O1  UNL     1     -39.171 175.195  75.603  1.00  0.00    -0.273 OA
HETATM    4  N1  UNL     1     -38.971 172.876  75.341  1.00  0.00    -0.351 N
ATOM      5  H1  UNL     1     -38.603 172.762  76.285  1.00  0.00     0.163 HD
HETATM    6  C5  UNL     1     -39.244 171.690  74.553  1.00  0.00     0.146 C
HETATM    7  C6  UNL     1     -38.962 171.853  73.101  1.00  0.00     0.221 C
HETATM    8  C7  UNL     1     -37.923 170.932  72.573  1.00  0.00     0.262 C
HETATM    9  O3  UNL     1     -37.026 171.273  71.753  1.00  0.00    -0.270 OA
HETATM   10  N2  UNL     1     -37.948 169.596  73.023  1.00  0.00    -0.351 N
ATOM     11  H2  UNL     1     -37.610 168.843  72.424  1.00  0.00     0.163 HD
HETATM   12  C8  UNL     1     -38.460 169.306  74.344  1.00  0.00     0.112 C
HETATM   13  C12 UNL     1     -38.553 170.534  75.207  1.00  0.00    -0.001 C
HETATM   14  C13 UNL     1     -37.171 170.952  75.687  1.00  0.00     0.019 C
HETATM   15  C14 UNL     1     -39.349 170.160  76.442  1.00  0.00     0.019 C
HETATM   16  C15 UNL     1     -38.633 173.281  72.729  1.00  0.00     0.185 C
HETATM   17  O5  UNL     1     -37.748 173.530  71.938  1.00  0.00    -0.293 OA
ENDROOT
BRANCH  12  18
HETATM   18  C9  UNL     1     -39.773 168.556  74.282  1.00  0.00     0.148 C
BRANCH  18  19
HETATM   19  N3  UNL     1     -39.568 167.126  74.330  1.00  0.00    -0.358 N
HETATM   20  C10 UNL     1     -39.257 166.316  73.230  1.00  0.00     0.227 C
HETATM   21  O4  UNL     1     -39.109 166.695  72.062  1.00  0.00    -0.273 OA
ATOM     22  H3  UNL     1     -39.658 166.670  75.238  1.00  0.00     0.162 HD
BRANCH  20  23
HETATM   23  C11 UNL     1     -39.082 164.839  73.479  1.00  0.00     0.187 C
HETATM   24 BR1  UNL     1     -40.163 164.226  74.935  1.00  0.00    -0.087 Br
ENDBRANCH  20  23
ENDBRANCH  18  19
ENDBRANCH  12  18
BRANCH   7  25
HETATM   25  O2  UNL     1     -40.121 171.569  72.335  1.00  0.00    -0.371 OA
ATOM     26  H2  UNL     1     -39.964 170.834  71.754  1.00  0.00     0.211 HD
ENDBRANCH   7  25
BRANCH   1  27
HETATM   27  C2  UNL     1     -39.209 175.697  72.879  1.00  0.00     0.017 C
HETATM   28  C1  UNL     1     -40.071 176.085  71.723  1.00  0.00     0.006 C
ENDBRANCH   1  27
TORSDOF 5
ENDMDL