MODEL 2
REMARK VINA RESULT: -6.683269328      1.678      2.135
REMARK  7 active torsions:
REMARK  status: ('A' for Active; 'I' for Inactive)
REMARK    1  A    between atoms: C3_3  and  C4_4
REMARK    2  A    between atoms: C5_5  and  C6_6
REMARK       I    between atoms: C6_6  and  N1_8
REMARK    3  A    between atoms: N1_8  and  N2_10
REMARK       I    between atoms: N2_10  and  C7_12
REMARK    4  A    between atoms: C7_12  and  C8_14
REMARK    5  A    between atoms: N3_16  and  N4_18
REMARK       I    between atoms: N4_18  and  C10_19
REMARK    6  A    between atoms: C10_19  and  C11_21
REMARK    7  A    between atoms: C11_21  and  C12_22
ROOT
HETATM    1  C1  UNL     1     -40.663 176.483  70.167  1.00  0.00     0.113 C
HETATM    2  C2  UNL     1     -40.130 175.711  71.327  1.00  0.00    -0.097 C
HETATM    3  C3  UNL     1     -39.688 175.069  72.242  1.00  0.00    -0.015 C
ENDROOT
BRANCH   3   4
HETATM    4  C4  UNL     1     -39.150 174.276  73.304  1.00  0.00    -0.005 C
HETATM    5  C5  UNL     1     -38.706 173.579  74.182  1.00  0.00     0.010 C
BRANCH   5   6
HETATM    6  C6  UNL     1     -38.172 172.690  75.218  1.00  0.00     0.315 C
HETATM    7  O1  UNL     1     -38.955 172.302  76.091  1.00  0.00    -0.256 OA
HETATM    8  N1  UNL     1     -36.823 172.324  75.170  1.00  0.00    -0.256 N
ATOM      9  H1  UNL     1     -36.238 172.695  74.422  1.00  0.00     0.191 HD
BRANCH   8  10
HETATM   10  N2  UNL     1     -36.256 171.473  76.108  1.00  0.00    -0.262 N
HETATM   11  C7  UNL     1     -35.433 172.016  77.111  1.00  0.00     0.284 C
HETATM   12  O2  UNL     1     -35.274 173.283  77.111  1.00  0.00    -0.265 OA
ATOM     13  H2  UNL     1     -36.432 170.470  76.070  1.00  0.00     0.190 HD
BRANCH  11  14
HETATM   14  C8  UNL     1     -34.764 171.240  78.126  1.00  0.00     0.103 C
HETATM   15  C9  UNL     1     -34.210 171.896  79.346  1.00  0.00     0.077 C
HETATM   16  N3  UNL     1     -34.616 169.945  78.033  1.00  0.00    -0.232 N
ATOM     17  H3  UNL     1     -34.990 169.495  77.198  1.00  0.00     0.202 HD
BRANCH  16  18
HETATM   18  N4  UNL     1     -34.018 169.159  78.932  1.00  0.00    -0.286 NA
HETATM   19  C10 UNL     1     -33.427 168.383  79.819  1.00  0.00     0.316 C
HETATM   20  O3  UNL     1     -34.035 167.628  80.676  1.00  0.00    -0.255 OA
BRANCH  19  21
HETATM   21  C11 UNL     1     -31.906 168.221  80.000  1.00  0.00     0.162 C
BRANCH  21  22
HETATM   22  C12 UNL     1     -31.348 169.615  80.056  1.00  0.00    -0.014 A
HETATM   23  C13 UNL     1     -31.236 170.478  81.118  1.00  0.00     0.096 A
HETATM   24  N5  UNL     1     -30.613 171.594  80.720  1.00  0.00    -0.373 N
HETATM   25  C14 UNL     1     -30.299 171.511  79.405  1.00  0.00     0.107 A
ATOM     26  H5  UNL     1     -30.405 172.391  81.319  1.00  0.00     0.164 HD
HETATM   27  C15 UNL     1     -30.761 170.282  78.998  1.00  0.00     0.034 A
HETATM   28 BR1  UNL     1     -30.651 169.568  77.226  1.00  0.00    -0.049 Br
ENDBRANCH  21  22
ENDBRANCH  19  21
ENDBRANCH  16  18
ENDBRANCH  11  14
ENDBRANCH   8  10
ENDBRANCH   5   6
ENDBRANCH   3   4
TORSDOF 7
ENDMDL