MODEL 4
REMARK VINA RESULT: -6.501383805      2.142      3.801
REMARK  7 active torsions:
REMARK  status: ('A' for Active; 'I' for Inactive)
REMARK    1  A    between atoms: C4_7  and  O1_8
REMARK    2  A    between atoms: O1_8  and  C5_9
REMARK    3  A    between atoms: C5_9  and  N2_10
REMARK    4  A    between atoms: C8_14  and  O2_15
REMARK    5  A    between atoms: N3_17  and  C9_18
REMARK    6  A    between atoms: C15_24  and  O3_25
REMARK    7  A    between atoms: C16_27  and  O4_28
ROOT
HETATM    1  C5  UNL     1     -37.308 170.602  76.597  1.00  0.00     0.299 C
ENDROOT
BRANCH   1   2
HETATM    2  O1  UNL     1     -36.485 171.487  77.103  1.00  0.00    -0.362 OA
BRANCH   2   3
HETATM    3  C4  UNL     1     -35.174 171.488  77.179  1.00  0.00     0.180 C
HETATM    4  C3  UNL     1     -34.723 172.588  78.145  1.00  0.00     0.267 C
HETATM    5  N1  UNL     1     -34.841 172.178  79.516  1.00  0.00    -0.066 N
HETATM    6  C2  UNL     1     -34.018 171.033  79.817  1.00  0.00     0.213 C
ATOM      7  H12 UNL     1     -35.815 172.008  79.768  1.00  0.00     0.277 HD
ATOM      8  H11 UNL     1     -34.642 172.951  80.151  1.00  0.00     0.277 HD
HETATM    9  C1  UNL     1     -34.051 170.740  81.300  1.00  0.00     0.043 C
HETATM   10  C16 UNL     1     -34.529 169.878  79.005  1.00  0.00     0.179 C
HETATM   11  C15 UNL     1     -34.467 170.211  77.543  1.00  0.00     0.179 C
BRANCH  10  12
HETATM   12  O4  UNL     1     -35.781 169.446  79.416  1.00  0.00    -0.391 OA
ATOM     13  H4  UNL     1     -36.445 169.553  78.746  1.00  0.00     0.210 HD
ENDBRANCH  10  12
BRANCH  11  14
HETATM   14  O3  UNL     1     -33.109 170.392  77.250  1.00  0.00    -0.390 OA
ATOM     15  H3  UNL     1     -32.615 169.933  77.918  1.00  0.00     0.210 HD
ENDBRANCH  11  14
ENDBRANCH   2   3
ENDBRANCH   1   2
BRANCH   1  16
HETATM   16  N2  UNL     1     -38.006 171.148  75.444  1.00  0.00    -0.330 N
HETATM   17  C6  UNL     1     -38.228 172.491  75.347  1.00  0.00     0.117 A
HETATM   18  C7  UNL     1     -38.895 172.952  74.238  1.00  0.00     0.077 A
HETATM   19 BR1  UNL     1     -39.271 174.811  73.973  1.00  0.00    -0.045 Br
HETATM   20  C8  UNL     1     -39.314 172.040  73.269  1.00  0.00     0.162 A
HETATM   21  N3  UNL     1     -39.098 170.739  73.367  1.00  0.00    -0.318 N
HETATM   22  C14 UNL     1     -38.433 170.312  74.479  1.00  0.00     0.189 A
BRANCH  20  23
HETATM   23  O2  UNL     1     -39.983 172.491  72.156  1.00  0.00    -0.345 OA
ATOM     24  H2  UNL     1     -40.781 172.057  71.881  1.00  0.00     0.219 HD
ENDBRANCH  20  23
BRANCH  21  25
HETATM   25  C9  UNL     1     -39.476 169.774  72.461  1.00  0.00     0.092 C
HETATM   26  C10 UNL     1     -40.997 169.548  72.630  1.00  0.00     0.026 C
HETATM   27  C11 UNL     1     -40.994 168.433  73.682  1.00  0.00     0.002 C
HETATM   28  C12 UNL     1     -39.816 167.551  73.303  1.00  0.00     0.002 C
HETATM   29  C13 UNL     1     -38.994 168.423  72.379  1.00  0.00     0.026 C
ENDBRANCH  21  25
ENDBRANCH   1  16
TORSDOF 7
ENDMDL