MODEL 5
REMARK VINA RESULT: -4.924963146      3.586      4.939
REMARK  2 active torsions:
REMARK  status: ('A' for Active; 'I' for Inactive)
REMARK    1  A    between atoms: C2_5  and  N3_6
REMARK    2  A    between atoms: N3_6  and  C3_8
ROOT
HETATM    1  N1  UNL     1      32.653 -45.177 -10.244  1.00  0.00    -0.172 NA
HETATM    2  C1  UNL     1      31.739 -45.591  -9.650  1.00  0.00     0.182 C
HETATM    3  N2  UNL     1      30.653 -46.060  -8.937  1.00  0.00    -0.290 N
ATOM      4  H2  UNL     1      29.734 -46.092  -9.378  1.00  0.00     0.178 HD
HETATM    5  C2  UNL     1      30.789 -46.457  -7.720  1.00  0.00     0.186 C
ENDROOT
BRANCH   5   6
HETATM    6  N3  UNL     1      29.680 -46.944  -6.969  1.00  0.00    -0.381 N
ATOM      7  H3  UNL     1      28.745 -46.607  -7.197  1.00  0.00     0.160 HD
BRANCH   6   8
HETATM    8  C3  UNL     1      29.836 -47.904  -5.890  1.00  0.00     0.082 C
HETATM    9  C4  UNL     1      30.653 -47.230  -4.814  1.00  0.00     0.025 C
HETATM   10  C5  UNL     1      31.518 -48.250  -4.115  1.00  0.00     0.002 C
HETATM   11  C6  UNL     1      30.616 -49.183  -3.377  1.00  0.00     0.000 C
HETATM   12  C7  UNL     1      29.862 -50.133  -4.237  1.00  0.00     0.000 C
HETATM   13  C8  UNL     1      30.443 -50.328  -5.605  1.00  0.00     0.002 C
HETATM   14  C9  UNL     1      30.496 -49.118  -6.455  1.00  0.00     0.025 C
ENDBRANCH   6   8
ENDBRANCH   5   6
TORSDOF 2
ENDMDL