MODEL 4
REMARK VINA RESULT: -4.599496181      3.474      6.343
REMARK  3 active torsions:
REMARK  status: ('A' for Active; 'I' for Inactive)
REMARK    1  A    between atoms: C2_2  and  O1_5
REMARK    2  A    between atoms: O1_5  and  N1_6
REMARK    3  A    between atoms: C8_11  and  N2_12
ROOT
HETATM    1  N1  UNL     1      31.138 -45.591 -11.194  1.00  0.00    -0.274 N
ATOM      2  H1  UNL     1      30.227 -45.687 -10.745  1.00  0.00     0.193 HD
HETATM    3  C5  UNL     1      31.190 -45.823 -12.438  1.00  0.00     0.012 C
HETATM    4  C6  UNL     1      32.341 -45.776 -13.385  1.00  0.00     0.056 C
HETATM    5  C7  UNL     1      31.765 -45.684 -14.761  1.00  0.00     0.039 C
HETATM    6  C8  UNL     1      30.299 -45.387 -14.521  1.00  0.00     0.189 C
HETATM    7  C9  UNL     1      30.028 -46.222 -13.279  1.00  0.00     0.087 C
ENDROOT
BRANCH   1   8
HETATM    8  O1  UNL     1      32.171 -45.228 -10.404  1.00  0.00    -0.271 OA
BRANCH   8   9
HETATM    9  C2  UNL     1      32.760 -46.058  -9.421  1.00  0.00     0.078 C
HETATM   10  C1  UNL     1      34.233 -46.213  -9.689  1.00  0.00     0.048 C
HETATM   11  C3  UNL     1      32.507 -45.378  -8.080  1.00  0.00     0.048 C
HETATM   12  C4  UNL     1      32.085 -47.404  -9.358  1.00  0.00     0.048 C
ENDBRANCH   8   9
ENDBRANCH   1   8
BRANCH   6  13
HETATM   13  N2  UNL     1      30.180 -43.976 -14.160  1.00  0.00    -0.075 N
ATOM     14  H23 UNL     1      29.847 -43.838 -13.207  1.00  0.00     0.274 HD
ATOM     15  H22 UNL     1      31.085 -43.517 -14.054  1.00  0.00     0.274 HD
ATOM     16  H21 UNL     1      29.587 -43.523 -14.856  1.00  0.00     0.274 HD
ENDBRANCH   6  13
TORSDOF 3
ENDMDL