MODEL 4
REMARK VINA RESULT: -4.110069529      1.184      1.184
REMARK  3 active torsions:
REMARK  status: ('A' for Active; 'I' for Inactive)
REMARK    1  A    between atoms: C2_2  and  O1_3
REMARK    2  A    between atoms: C2_2  and  C3_5
REMARK    3  A    between atoms: C3_5  and  S1_6
ROOT
HETATM    1  S1  UNL     1      33.103 -47.995  -5.664  1.00  0.00    -0.038 SA
HETATM    2  C4  UNL     1      34.228 -48.580  -6.892  1.00  0.00     0.134 C
HETATM    3  N1  UNL     1      34.959 -48.980  -7.701  1.00  0.00    -0.184 NA
ENDROOT
BRANCH   1   4
HETATM    4  C3  UNL     1      31.870 -46.936  -6.438  1.00  0.00     0.048 C
HETATM    5  C5  UNL     1      32.435 -45.559  -6.582  1.00  0.00     0.024 C
HETATM    6  C6  UNL     1      32.568 -45.339  -8.099  1.00  0.00     0.002 C
HETATM    7  C7  UNL     1      31.311 -46.081  -8.547  1.00  0.00     0.002 C
HETATM    8  C8  UNL     1      31.495 -47.393  -7.825  1.00  0.00     0.024 C
BRANCH   4   9
HETATM    9  C2  UNL     1      30.637 -46.970  -5.543  1.00  0.00     0.133 C
HETATM   10  C1  UNL     1      30.884 -47.874  -4.342  1.00  0.00     0.041 C
BRANCH   9  11
HETATM   11  O1  UNL     1      30.277 -45.724  -5.078  1.00  0.00    -0.394 OA
ATOM     12  H1  UNL     1      29.417 -45.514  -5.423  1.00  0.00     0.210 HD
ENDBRANCH   9  11
ENDBRANCH   4   9
ENDBRANCH   1   4
TORSDOF 3
ENDMDL