MODEL 1
REMARK VINA RESULT: -4.635092101      0.000      0.000
REMARK  3 active torsions:
REMARK  status: ('A' for Active; 'I' for Inactive)
REMARK    1  A    between atoms: C5_5  and  N1_6
REMARK    2  A    between atoms: N1_6  and  C6_8
REMARK    3  A    between atoms: C7_10  and  O1_11
ROOT
HETATM    1  C1  UNL     1      34.998 -46.852 -10.669  1.00  0.00     0.010 C
HETATM    2  C2  UNL     1      34.241 -45.801  -9.857  1.00  0.00    -0.016 C
HETATM    3  C3  UNL     1      33.825 -46.331  -8.536  1.00  0.00     0.006 C
HETATM    4  C4  UNL     1      32.611 -45.678  -7.948  1.00  0.00     0.028 C
HETATM    5  C5  UNL     1      31.442 -45.610  -8.875  1.00  0.00     0.110 C
HETATM    6  C7  UNL     1      31.817 -45.944 -10.284  1.00  0.00     0.141 C
HETATM    7  C8  UNL     1      33.113 -45.316 -10.721  1.00  0.00     0.038 C
ENDROOT
BRANCH   5   8
HETATM    8  N1  UNL     1      30.389 -46.472  -8.417  1.00  0.00    -0.383 N
ATOM      9  H1  UNL     1      29.651 -46.769  -9.056  1.00  0.00     0.160 HD
BRANCH   8  10
HETATM   10  C6  UNL     1      30.386 -46.867  -7.188  1.00  0.00     0.166 C
HETATM   11  S1  UNL     1      29.915 -47.840  -5.985  1.00  0.00    -0.075 SA
ENDBRANCH   8  10
ENDBRANCH   5   8
BRANCH   6  12
HETATM   12  O1  UNL     1      30.792 -45.601 -11.161  1.00  0.00    -0.394 OA
ATOM     13  H1  UNL     1      30.318 -46.375 -11.443  1.00  0.00     0.210 HD
ENDBRANCH   6  12
TORSDOF 3
ENDMDL