MODEL 4
REMARK VINA RESULT: -5.001995150      1.839      2.367
REMARK  2 active torsions:
REMARK  status: ('A' for Active; 'I' for Inactive)
REMARK    1  A    between atoms: C2_2  and  C3_3
REMARK    2  A    between atoms: C8_8  and  O1_9
ROOT
HETATM    1  C3  UNL     1      31.220 -46.606  -7.254  1.00  0.00     0.098 C
HETATM    2  C4  UNL     1      32.432 -47.391  -6.858  1.00  0.00     0.026 C
HETATM    3  C5  UNL     1      33.415 -47.412  -8.009  1.00  0.00     0.002 C
HETATM    4  C6  UNL     1      33.808 -46.023  -8.440  1.00  0.00     0.004 C
HETATM    5  C7  UNL     1      33.496 -45.806  -9.904  1.00  0.00     0.055 C
HETATM    6  C8  UNL     1      32.085 -45.230 -10.044  1.00  0.00     0.234 C
HETATM    7  N1  UNL     1      31.189 -46.312  -9.735  1.00  0.00    -0.312 N
ATOM      8  H1  UNL     1      30.731 -46.736 -10.541  1.00  0.00     0.182 HD
HETATM    9  N2  UNL     1      30.885 -46.812  -8.636  1.00  0.00    -0.334 N
ATOM     10  H2  UNL     1      30.217 -47.574  -8.747  1.00  0.00     0.180 HD
ENDROOT
BRANCH   1  11
HETATM   11  C2  UNL     1      30.030 -46.870  -6.364  1.00  0.00     0.022 C
HETATM   12  C1  UNL     1      30.377 -46.857  -4.909  1.00  0.00     0.007 C
ENDBRANCH   1  11
BRANCH   6  13
HETATM   13  O1  UNL     1      31.874 -44.724 -11.313  1.00  0.00    -0.370 OA
HETATM   14  C9  UNL     1      30.821 -45.367 -11.975  1.00  0.00     0.204 C
ENDBRANCH   6  13
TORSDOF 2
ENDMDL