MODEL 5
REMARK VINA RESULT: -4.617082174      3.867      4.865
REMARK  2 active torsions:
REMARK  status: ('A' for Active; 'I' for Inactive)
REMARK    1  A    between atoms: C6_8  and  C7_9
REMARK    2  A    between atoms: N2_10  and  O1_12
ROOT
HETATM    1  C1  UNL     1      30.748 -45.070 -11.553  1.00  0.00     0.064 C
HETATM    2  C2  UNL     1      31.313 -45.686 -10.349  1.00  0.00    -0.008 C
HETATM    3  N1  UNL     1      30.732 -45.761  -9.210  1.00  0.00    -0.391 N
ATOM      4  H1  UNL     1      29.797 -45.382  -9.055  1.00  0.00     0.159 HD
HETATM    5  C3  UNL     1      31.472 -46.408  -8.164  1.00  0.00     0.081 C
HETATM    6  C4  UNL     1      31.978 -47.778  -8.546  1.00  0.00     0.026 C
HETATM    7  C5  UNL     1      32.427 -47.770  -9.986  1.00  0.00     0.023 C
HETATM    8  C6  UNL     1      32.690 -46.314 -10.365  1.00  0.00     0.032 C
HETATM    9  C8  UNL     1      33.476 -45.602  -9.287  1.00  0.00     0.023 C
HETATM   10  C9  UNL     1      32.726 -45.551  -7.976  1.00  0.00     0.026 C
ENDROOT
BRANCH   8  11
HETATM   11  C7  UNL     1      33.329 -46.195 -11.669  1.00  0.00     0.102 C
HETATM   12  N2  UNL     1      34.167 -45.258 -11.906  1.00  0.00    -0.283 N
ATOM     13  H2  UNL     1      34.360 -44.608 -11.144  1.00  0.00     0.192 HD
BRANCH  12  14
HETATM   14  O1  UNL     1      34.820 -45.047 -13.070  1.00  0.00    -0.291 OA
ATOM     15  H1  UNL     1      35.475 -44.378 -13.233  1.00  0.00     0.244 HD
ENDBRANCH  12  14
ENDBRANCH   8  11
TORSDOF 2
ENDMDL