MODEL 4
REMARK VINA RESULT: -4.875930125      3.265      5.915
REMARK  3 active torsions:
REMARK  status: ('A' for Active; 'I' for Inactive)
REMARK    1  A    between atoms: C2_2  and  C4_4
REMARK    2  A    between atoms: C4_4  and  C5_5
REMARK    3  A    between atoms: C8_8  and  O1_10
ROOT
HETATM    1  C5  UNL     1      32.522 -46.133  -7.909  1.00  0.00     0.161 C
HETATM    2  C6  UNL     1      32.665 -47.420  -7.094  1.00  0.00     0.040 C
HETATM    3  C7  UNL     1      32.106 -47.076  -5.712  1.00  0.00     0.073 C
HETATM    4  C8  UNL     1      30.618 -46.806  -5.944  1.00  0.00     0.191 C
HETATM    5  C9  UNL     1      29.889 -48.139  -5.769  1.00  0.00     0.082 C
HETATM    6  O2  UNL     1      30.386 -46.341  -7.219  1.00  0.00    -0.201 OA
HETATM    7  O3  UNL     1      31.289 -45.534  -7.680  1.00  0.00    -0.233 OA
ENDROOT
BRANCH   1   8
HETATM    8  C4  UNL     1      32.701 -46.523  -9.355  1.00  0.00     0.039 C
BRANCH   8   9
HETATM    9  C2  UNL     1      32.681 -45.330 -10.278  1.00  0.00    -0.020 C
HETATM   10  C1  UNL     1      33.836 -45.298 -11.228  1.00  0.00     0.009 C
HETATM   11  C3  UNL     1      31.403 -45.349 -11.089  1.00  0.00     0.009 C
ENDBRANCH   8   9
ENDBRANCH   1   8
BRANCH   4  12
HETATM   12  O1  UNL     1      30.213 -45.921  -4.948  1.00  0.00    -0.363 OA
ATOM     13  H1  UNL     1      29.551 -46.372  -4.437  1.00  0.00     0.213 HD
ENDBRANCH   4  12
TORSDOF 3
ENDMDL