MODEL 3
REMARK VINA RESULT: -4.188403049      5.688      7.146
REMARK  3 active torsions:
REMARK  status: ('A' for Active; 'I' for Inactive)
REMARK    1  A    between atoms: C2_2  and  N1_4
REMARK    2  A    between atoms: C2_2  and  S1_8
REMARK    3  A    between atoms: S1_8  and  C4_9
ROOT
HETATM    1  C1  UNL     1      29.252 -46.272 -14.299  1.00  0.00     0.058 C
HETATM    2  C2  UNL     1      30.572 -45.715 -13.837  1.00  0.00     0.164 C
HETATM    3  C3  UNL     1      31.483 -45.387 -14.990  1.00  0.00     0.058 C
ENDROOT
BRANCH   2   4
HETATM    4  N1  UNL     1      30.383 -44.505 -13.077  1.00  0.00    -0.062 N
ATOM      5  H13 UNL     1      31.166 -44.328 -12.449  1.00  0.00     0.276 HD
ATOM      6  H12 UNL     1      30.464 -43.675 -13.663  1.00  0.00     0.276 HD
ATOM      7  H11 UNL     1      29.495 -44.527 -12.575  1.00  0.00     0.276 HD
ENDBRANCH   2   4
BRANCH   2   8
HETATM    8  S1  UNL     1      31.472 -46.913 -12.792  1.00  0.00    -0.127 SA
BRANCH   8   9
HETATM    9  C4  UNL     1      32.408 -45.912 -11.605  1.00  0.00     0.050 C
HETATM   10  C5  UNL     1      31.870 -46.253 -10.220  1.00  0.00     0.015 C
HETATM   11  C6  UNL     1      32.642 -45.306  -9.308  1.00  0.00     0.001 C
HETATM   12  C7  UNL     1      34.012 -45.922  -9.187  1.00  0.00     0.000 C
HETATM   13  C8  UNL     1      34.628 -46.337 -10.468  1.00  0.00     0.001 C
HETATM   14  C9  UNL     1      33.882 -46.082 -11.718  1.00  0.00     0.015 C
ENDBRANCH   8   9
ENDBRANCH   2   8
TORSDOF 3
ENDMDL