MODEL 1
REMARK VINA RESULT: -5.283221387      0.000      0.000
REMARK  2 active torsions:
REMARK  status: ('A' for Active; 'I' for Inactive)
REMARK    1  A    between atoms: N2_5  and  O1_7
REMARK    2  A    between atoms: O1_7  and  N3_8
ROOT
HETATM    1  C1  UNL     1      32.851 -45.339  -9.172  1.00  0.00     0.083 C
HETATM    2  C2  UNL     1      31.472 -45.567  -9.653  1.00  0.00     0.110 C
HETATM    3  C3  UNL     1      31.200 -45.390 -11.048  1.00  0.00     0.114 C
HETATM    4  N1  UNL     1      30.971 -45.229 -12.184  1.00  0.00    -0.190 NA
HETATM    5  N2  UNL     1      30.569 -45.912  -8.817  1.00  0.00    -0.235 N
ATOM      6  H2  UNL     1      29.611 -46.075  -9.128  1.00  0.00     0.197 HD
ENDROOT
BRANCH   5   7
HETATM    7  O1  UNL     1      30.906 -46.061  -7.500  1.00  0.00    -0.151 OA
BRANCH   7   8
HETATM    8  N3  UNL     1      30.195 -46.807  -6.600  1.00  0.00    -0.227 N
HETATM    9  C4  UNL     1      29.704 -47.989  -7.150  1.00  0.00     0.097 C
HETATM   10  C5  UNL     1      29.315 -49.070  -6.208  1.00  0.00     0.047 C
HETATM   11  C6  UNL     1      30.495 -49.273  -5.252  1.00  0.00     0.010 C
HETATM   12  C7  UNL     1      30.539 -47.974  -4.446  1.00  0.00     0.047 C
HETATM   13  C8  UNL     1      30.645 -46.765  -5.280  1.00  0.00     0.097 C
ENDBRANCH   7   8
ENDBRANCH   5   7
TORSDOF 2
ENDMDL