MODEL 2
REMARK VINA RESULT: -4.671757271      1.579      2.472
REMARK  4 active torsions:
REMARK  status: ('A' for Active; 'I' for Inactive)
REMARK    1  A    between atoms: O1_2  and  N1_3
REMARK    2  A    between atoms: N1_3  and  C2_5
REMARK    3  A    between atoms: C2_5  and  N2_6
REMARK    4  A    between atoms: N2_6  and  C3_8
ROOT
HETATM    1  C3  UNL     1      31.761 -45.183 -10.399  1.00  0.00     0.091 C
HETATM    2  C4  UNL     1      31.541 -45.763  -9.043  1.00  0.00     0.026 C
HETATM    3  C5  UNL     1      32.703 -45.651  -8.117  1.00  0.00     0.002 C
HETATM    4  C6  UNL     1      33.634 -46.838  -8.260  1.00  0.00     0.000 C
HETATM    5  C7  UNL     1      34.648 -46.498  -9.315  1.00  0.00     0.000 C
HETATM    6  C8  UNL     1      33.936 -46.263 -10.624  1.00  0.00     0.002 C
HETATM    7  C9  UNL     1      33.246 -44.945 -10.699  1.00  0.00     0.026 C
ENDROOT
BRANCH   1   8
HETATM    8  N2  UNL     1      31.372 -46.182 -11.380  1.00  0.00    -0.337 N
ATOM      9  H2  UNL     1      31.635 -47.162 -11.281  1.00  0.00     0.171 HD
BRANCH   8  10
HETATM   10  C2  UNL     1      30.686 -45.769 -12.370  1.00  0.00     0.069 C
BRANCH  10  11
HETATM   11  N1  UNL     1      29.976 -45.295 -13.320  1.00  0.00    -0.216 N
ATOM     12  H1  UNL     1      28.961 -45.391 -13.310  1.00  0.00     0.205 HD
BRANCH  11  13
HETATM   13  O1  UNL     1      30.598 -44.664 -14.335  1.00  0.00    -0.277 OA
HETATM   14  C1  UNL     1      31.060 -45.213 -15.522  1.00  0.00     0.238 C
ENDBRANCH  11  13
ENDBRANCH  10  11
ENDBRANCH   8  10
ENDBRANCH   1   8
TORSDOF 4
ENDMDL