MODEL 5
REMARK VINA RESULT: -7.118301620      2.345      6.047
REMARK  5 active torsions:
REMARK  status: ('A' for Active; 'I' for Inactive)
REMARK    1  A    between atoms: C2_2  and  N1_3
REMARK    2  A    between atoms: N1_3  and  C3_5
REMARK    3  A    between atoms: C6_12  and  N4_13
REMARK    4  A    between atoms: N4_13  and  N5_15
REMARK    5  A    between atoms: C8_18  and  C9_19
REMARK       I    between atoms: C9_19  and  N6_21
ROOT
HETATM    1  C3  UNL     1      31.062  49.185  -6.470  1.00  0.00     0.149 A
HETATM    2  N2  UNL     1      30.610  47.941  -6.703  1.00  0.00    -0.323 N
ATOM      3  H2  UNL     1      30.809  47.501  -7.601  1.00  0.00     0.169 HD
HETATM    4  C4  UNL     1      29.899  47.260  -5.780  1.00  0.00     0.153 A
HETATM    5  C5  UNL     1      29.616  47.834  -4.559  1.00  0.00     0.114 A
HETATM    6  N3  UNL     1      30.056  49.063  -4.311  1.00  0.00    -0.333 N
ATOM      7  H3  UNL     1      29.855  49.502  -3.412  1.00  0.00     0.168 HD
HETATM    8  C6  UNL     1      30.776  49.742  -5.255  1.00  0.00     0.165 A
HETATM    9  C8  UNL     1      28.875  46.924  -3.797  1.00  0.00     0.147 A
HETATM   10  N7  UNL     1      28.739  45.846  -4.581  1.00  0.00    -0.290 N
ATOM     11  H7  UNL     1      28.242  44.996  -4.316  1.00  0.00     0.187 HD
HETATM   12  N8  UNL     1      29.335  46.034  -5.743  1.00  0.00    -0.279 N
HETATM   13  C11 UNL     1      29.406  45.095  -6.855  1.00  0.00     0.179 C
ENDROOT
BRANCH   8  14
HETATM   14  N4  UNL     1      31.164  50.919  -4.945  1.00  0.00    -0.287 N
ATOM     15  H4  UNL     1      32.122  51.042  -4.616  1.00  0.00     0.188 HD
BRANCH  14  16
HETATM   16  N5  UNL     1      30.353  52.029  -5.034  1.00  0.00    -0.339 N
HETATM   17  C7  UNL     1      30.610  53.105  -6.009  1.00  0.00     0.167 C
ATOM     18  H5  UNL     1      29.552  52.109  -4.407  1.00  0.00     0.179 HD
ENDBRANCH  14  16
ENDBRANCH   8  14
BRANCH   1  19
HETATM   19  N1  UNL     1      31.721  49.804  -7.335  1.00  0.00    -0.373 N
ATOM     20  H1  UNL     1      31.752  50.816  -7.216  1.00  0.00     0.161 HD
BRANCH  19  21
HETATM   21  C2  UNL     1      32.430  49.302  -8.456  1.00  0.00     0.117 C
HETATM   22  C1  UNL     1      31.747  49.535  -9.779  1.00  0.00     0.026 C
ENDBRANCH  19  21
ENDBRANCH   1  19
BRANCH   9  23
HETATM   23  C9  UNL     1      28.377  47.142  -2.448  1.00  0.00     0.271 C
HETATM   24  O1  UNL     1      28.365  48.261  -1.885  1.00  0.00    -0.266 OA
HETATM   25  N6  UNL     1      27.876  46.026  -1.726  1.00  0.00    -0.360 N
HETATM   26  C10 UNL     1      27.369  46.159  -0.395  1.00  0.00     0.149 C
ATOM     27  H6  UNL     1      27.877  45.106  -2.168  1.00  0.00     0.162 HD
ENDBRANCH   9  23
TORSDOF 5
ENDMDL