MODEL 2
REMARK VINA RESULT: -6.747040327      3.170      6.167
REMARK  5 active torsions:
REMARK  status: ('A' for Active; 'I' for Inactive)
REMARK       I    between atoms: C2_2  and  N1_4
REMARK    1  A    between atoms: N1_4  and  C3_6
REMARK    2  A    between atoms: C4_9  and  N3_10
REMARK    3  A    between atoms: C6_16  and  C7_17
REMARK    4  A    between atoms: N6_19  and  S1_21
REMARK    5  A    between atoms: S1_21  and  N7_23
ROOT
HETATM    1  C3  UNL     1      30.420  47.238  -3.586  1.00  0.00     0.138 A
HETATM    2  N2  UNL     1      29.304  46.512  -3.338  1.00  0.00    -0.176 N
ATOM      3  H2  UNL     1      28.987  45.817  -4.014  1.00  0.00     0.186 HD
HETATM    4  C4  UNL     1      28.610  46.708  -2.195  1.00  0.00     0.677 A
HETATM    5  N4  UNL     1      29.026  47.612  -1.319  1.00  0.00    -0.201 N
ATOM      6  H4  UNL     1      28.496  47.752  -0.459  1.00  0.00     0.183 HD
HETATM    7  C5  UNL     1      30.132  48.350  -1.537  1.00  0.00     0.124 A
HETATM    8  C6  UNL     1      30.879  48.194  -2.685  1.00  0.00     0.066 A
ENDROOT
BRANCH   8   9
HETATM    9  C7  UNL     1      32.073  48.970  -2.951  1.00  0.00     0.139 C
HETATM   10  N5  UNL     1      33.340  48.360  -2.822  1.00  0.00    -0.081 NA
HETATM   11  N6  UNL     1      31.976  50.166  -3.289  1.00  0.00    -0.289 N
ATOM     12  H6  UNL     1      30.972  50.344  -3.303  1.00  0.00     0.178 HD
BRANCH  11  13
HETATM   13  S1  UNL     1      32.663  51.628  -3.732  1.00  0.00     0.101 S
HETATM   14  C8  UNL     1      33.880  50.955  -4.967  1.00  0.00     0.160 C
HETATM   15  O2  UNL     1      31.963  52.712  -5.229  1.00  0.00    -0.229 OA
BRANCH  13  16
HETATM   16  N7  UNL     1      34.023  52.634  -2.824  1.00  0.00    -0.345 N
ATOM     17  H72 UNL     1      34.003  52.552  -1.808  1.00  0.00     0.167 HD
ATOM     18  H71 UNL     1      34.748  53.228  -3.226  1.00  0.00     0.167 HD
ENDBRANCH  13  16
ENDBRANCH  11  13
ENDBRANCH   8   9
BRANCH   1  19
HETATM   19  N1  UNL     1      31.098  47.072  -4.664  1.00  0.00    -0.312 N
HETATM   20  C2  UNL     1      30.510  46.400  -5.767  1.00  0.00     0.219 C
HETATM   21  C1  UNL     1      30.081  47.226  -6.935  1.00  0.00     0.117 C
HETATM   22  O1  UNL     1      30.330  45.158  -5.813  1.00  0.00    -0.274 OA
ATOM     23  H1  UNL     1      32.054  47.422  -4.728  1.00  0.00     0.170 HD
ENDBRANCH   1  19
BRANCH   4  24
HETATM   24  N3  UNL     1      27.559  45.974  -2.038  1.00  0.00    -0.234 N
ATOM     25  H32 UNL     1      26.905  45.742  -2.786  1.00  0.00     0.174 HD
ATOM     26  H31 UNL     1      27.399  45.619  -1.096  1.00  0.00     0.174 HD
ENDBRANCH   4  24
TORSDOF 5
ENDMDL