MODEL 3
REMARK VINA RESULT: -6.669484942      3.723      5.647
REMARK  5 active torsions:
REMARK  status: ('A' for Active; 'I' for Inactive)
REMARK       I    between atoms: N1_2  and  C2_4
REMARK       I    between atoms: C2_4  and  N2_6
REMARK    1  A    between atoms: N2_6  and  C3_8
REMARK    2  A    between atoms: C3_8  and  N3_10
REMARK    3  A    between atoms: N3_10  and  N4_12
REMARK    4  A    between atoms: N4_12  and  S2_14
REMARK    5  A    between atoms: S2_14  and  N5_17
REMARK       I    between atoms: N5_17  and  C4_19
REMARK       I    between atoms: C4_19  and  N6_21
ROOT
HETATM    1  N4  UNL     1      31.217  49.553  -3.845  1.00  0.00    -0.207 N
ATOM      2  H4  UNL     1      30.525  49.892  -4.514  1.00  0.00     0.201 HD
ENDROOT
BRANCH   1   3
HETATM    3  N3  UNL     1      32.005  50.368  -3.063  1.00  0.00    -0.265 N
ATOM      4  H3  UNL     1      31.761  50.435  -2.075  1.00  0.00     0.190 HD
BRANCH   3   5
HETATM    5  C3  UNL     1      33.128  51.127  -3.500  1.00  0.00     0.195 C
HETATM    6  S1  UNL     1      32.976  52.766  -3.672  1.00  0.00    -0.039 SA
BRANCH   5   7
HETATM    7  N2  UNL     1      34.347  50.473  -3.781  1.00  0.00    -0.284 N
HETATM    8  C2  UNL     1      34.571  49.742  -4.985  1.00  0.00     0.322 C
HETATM    9  N1  UNL     1      35.824  49.092  -5.213  1.00  0.00    -0.347 N
HETATM   10  O1  UNL     1      33.683  49.656  -5.855  1.00  0.00    -0.247 OA
HETATM   11  C1  UNL     1      36.039  48.359  -6.431  1.00  0.00     0.151 C
ATOM     12  H1  UNL     1      36.564  49.148  -4.513  1.00  0.00     0.163 HD
ATOM     13  H2  UNL     1      35.099  50.525  -3.094  1.00  0.00     0.173 HD
ENDBRANCH   5   7
ENDBRANCH   3   5
ENDBRANCH   1   3
BRANCH   1  14
HETATM   14  S2  UNL     1      31.546  47.891  -3.549  1.00  0.00     0.340 S
HETATM   15  O2  UNL     1      32.837  47.794  -2.741  1.00  0.00    -0.181 OA
HETATM   16  O3  UNL     1      31.693  47.154  -4.861  1.00  0.00    -0.181 OA
BRANCH  14  17
HETATM   17  N5  UNL     1      30.245  47.161  -2.676  1.00  0.00    -0.218 N
HETATM   18  C4  UNL     1      29.780  47.736  -1.485  1.00  0.00     0.332 C
HETATM   19  O4  UNL     1      30.349  48.808  -1.078  1.00  0.00    -0.246 OA
HETATM   20  N6  UNL     1      28.720  47.173  -0.735  1.00  0.00    -0.342 N
HETATM   21  C5  UNL     1      28.274  47.854   0.477  1.00  0.00     0.154 C
HETATM   22  C6  UNL     1      28.049  45.956  -1.086  1.00  0.00     0.154 C
ATOM     23  H5  UNL     1      29.813  46.307  -3.029  1.00  0.00     0.185 HD
ENDBRANCH  14  17
ENDBRANCH   1  14
TORSDOF 5
ENDMDL