MODEL 2
REMARK VINA RESULT: -7.936953564      1.717      1.942
REMARK  4 active torsions:
REMARK  status: ('A' for Active; 'I' for Inactive)
REMARK    1  A    between atoms: C2_2  and  N1_3
REMARK       I    between atoms: N1_3  and  C3_5
REMARK       I    between atoms: C3_5  and  N2_7
REMARK    2  A    between atoms: N2_7  and  N3_9
REMARK    3  A    between atoms: N3_9  and  C4_11
REMARK    4  A    between atoms: C5_14  and  C6_15
ROOT
HETATM    1  C4  UNL     1      29.251  47.905  -3.303  1.00  0.00     0.700 C
HETATM    2  N4  UNL     1      29.577  47.440  -2.100  1.00  0.00    -0.184 N
ATOM      3  H4  UNL     1      30.491  46.992  -2.029  1.00  0.00     0.184 HD
HETATM    4  C5  UNL     1      28.840  47.485  -0.942  1.00  0.00     0.124 C
HETATM    5  C7  UNL     1      27.863  48.401  -0.609  1.00  0.00     0.026 C
HETATM    6  C8  UNL     1      27.682  48.760   0.797  1.00  0.00     0.055 C
HETATM    7  C9  UNL     1      27.035  49.017  -1.556  1.00  0.00     0.248 C
HETATM    8  O3  UNL     1      25.997  49.528  -1.088  1.00  0.00    -0.282 OA
HETATM    9  C10 UNL     1      27.215  49.132  -2.939  1.00  0.00     0.310 C
HETATM   10  O4  UNL     1      26.266  49.617  -3.607  1.00  0.00    -0.263 OA
HETATM   11  N6  UNL     1      28.303  48.781  -3.659  1.00  0.00    -0.151 N
ATOM     12  H6  UNL     1      28.415  49.230  -4.568  1.00  0.00     0.188 HD
ENDROOT
BRANCH   1  13
HETATM   13  N3  UNL     1      29.985  47.416  -4.268  1.00  0.00    -0.128 N
ATOM     14  H3  UNL     1      30.444  48.051  -4.922  1.00  0.00     0.205 HD
BRANCH  13  15
HETATM   15  N2  UNL     1      30.149  46.049  -4.416  1.00  0.00    -0.237 N
HETATM   16  C3  UNL     1      29.850  45.424  -5.654  1.00  0.00     0.335 C
HETATM   17  N1  UNL     1      29.997  44.032  -5.866  1.00  0.00    -0.342 N
HETATM   18  O1  UNL     1      29.435  46.151  -6.595  1.00  0.00    -0.246 OA
ATOM     19  H1  UNL     1      30.332  43.435  -5.110  1.00  0.00     0.164 HD
ATOM     20  H2  UNL     1      30.487  45.490  -3.632  1.00  0.00     0.192 HD
BRANCH  17  21
HETATM   21  C2  UNL     1      29.678  43.460  -7.138  1.00  0.00     0.120 C
HETATM   22  C1  UNL     1      30.923  43.468  -7.999  1.00  0.00     0.026 C
ENDBRANCH  17  21
ENDBRANCH  13  15
ENDBRANCH   1  13
BRANCH   4  23
HETATM   23  C6  UNL     1      29.105  46.480   0.050  1.00  0.00     0.282 C
HETATM   24  N5  UNL     1      28.329  45.298   0.090  1.00  0.00    -0.056 NA
HETATM   25  O2  UNL     1      30.008  46.618   0.884  1.00  0.00    -0.269 OA
ENDBRANCH   4  23
TORSDOF 4
ENDMDL