MODEL 3
REMARK VINA RESULT: -8.252513907      1.569      1.879
REMARK  4 active torsions:
REMARK  status: ('A' for Active; 'I' for Inactive)
REMARK    1  A    between atoms: C5_10  and  N3_11
REMARK    2  A    between atoms: N3_11  and  C6_13
REMARK    3  A    between atoms: N6_19  and  C8_21
REMARK    4  A    between atoms: C8_21  and  C9_22
ROOT
HETATM    1  C1  UNL     1      25.637  49.252  -3.215  1.00  0.00     0.019 C
HETATM    2  C2  UNL     1      26.201  48.485  -2.474  1.00  0.00    -0.056 C
HETATM    3  C3  UNL     1      26.859  47.562  -1.597  1.00  0.00     0.133 A
HETATM    4  N1  UNL     1      26.289  46.490  -1.008  1.00  0.00    -0.287 N
ATOM      5  H1  UNL     1      25.315  46.211  -1.122  1.00  0.00     0.188 HD
HETATM    6  N2  UNL     1      27.184  45.848  -0.259  1.00  0.00    -0.263 N
ATOM      7  H2  UNL     1      26.994  45.007   0.286  1.00  0.00     0.190 HD
HETATM    8  C4  UNL     1      28.368  46.470  -0.323  1.00  0.00     0.289 A
HETATM    9  O1  UNL     1      29.417  46.113   0.271  1.00  0.00    -0.264 OA
HETATM   10  C5  UNL     1      28.172  47.548  -1.163  1.00  0.00     0.141 A
ENDROOT
BRANCH  10  11
HETATM   11  N3  UNL     1      29.134  48.503  -1.540  1.00  0.00    -0.328 N
ATOM     12  H3  UNL     1      29.296  49.314  -0.943  1.00  0.00     0.168 HD
BRANCH  11  13
HETATM   13  C6  UNL     1      29.832  48.370  -2.651  1.00  0.00     0.167 A
HETATM   14  N4  UNL     1      29.479  48.759  -3.883  1.00  0.00    -0.278 N
HETATM   15  N5  UNL     1      30.291  48.544  -4.846  1.00  0.00    -0.278 N
ATOM     16  H4  UNL     1      28.582  49.215  -4.049  1.00  0.00     0.189 HD
HETATM   17  C7  UNL     1      31.453  47.945  -4.594  1.00  0.00     0.163 A
ATOM     18  H5  UNL     1      30.052  48.829  -5.795  1.00  0.00     0.189 HD
HETATM   19  N6  UNL     1      32.415  47.636  -5.435  1.00  0.00    -0.361 N
HETATM   20  S1  UNL     1      31.368  47.682  -2.909  1.00  0.00    -0.015 SA
ATOM     21  H6  UNL     1      33.265  47.172  -5.113  1.00  0.00     0.162 HD
BRANCH  19  22
HETATM   22  C8  UNL     1      32.236  47.969  -6.815  1.00  0.00     0.221 C
BRANCH  22  23
HETATM   23  C9  UNL     1      31.584  46.879  -7.582  1.00  0.00     0.248 C
HETATM   24  N7  UNL     1      30.197  46.988  -7.849  1.00  0.00    -0.061 NA
HETATM   25  O2  UNL     1      32.189  45.862  -8.010  1.00  0.00    -0.275 OA
ENDBRANCH  22  23
ENDBRANCH  19  22
ENDBRANCH  11  13
ENDBRANCH  10  11
TORSDOF 4
ENDMDL