MODEL 4
REMARK VINA RESULT: -7.954011976      1.359      4.132
REMARK  4 active torsions:
REMARK  status: ('A' for Active; 'I' for Inactive)
REMARK       I    between atoms: N1_2  and  C2_4
REMARK    1  A    between atoms: C2_4  and  C3_6
REMARK    2  A    between atoms: C5_8  and  N2_9
REMARK    3  A    between atoms: N2_9  and  C6_11
REMARK    4  A    between atoms: C8_16  and  N4_17
REMARK       I    between atoms: N4_17  and  C9_19
ROOT
HETATM    1  C3  UNL     1      29.954  46.900  -6.738  1.00  0.00     0.104 A
HETATM    2  C4  UNL     1      30.441  48.139  -6.374  1.00  0.00     0.067 A
HETATM    3  C5  UNL     1      30.140  48.705  -5.128  1.00  0.00     0.068 A
HETATM    4  C7  UNL     1      29.333  47.964  -4.286  1.00  0.00     0.120 A
HETATM    5  N3  UNL     1      28.872  48.231  -3.041  1.00  0.00    -0.185 N
ATOM      6  H3  UNL     1      29.048  49.066  -2.482  1.00  0.00     0.184 HD
HETATM    7  C8  UNL     1      28.122  47.148  -2.693  1.00  0.00     0.688 A
HETATM    8  N6  UNL     1      28.097  46.233  -3.652  1.00  0.00    -0.174 N
ATOM      9  H6  UNL     1      27.608  45.338  -3.634  1.00  0.00     0.186 HD
HETATM   10  C10 UNL     1      28.844  46.723  -4.650  1.00  0.00     0.151 A
HETATM   11  N7  UNL     1      29.168  46.232  -5.857  1.00  0.00    -0.336 N
ATOM     12  H7  UNL     1      28.806  45.316  -6.123  1.00  0.00     0.168 HD
ENDROOT
BRANCH   1  13
HETATM   13  C2  UNL     1      30.273  46.319  -8.037  1.00  0.00     0.267 C
HETATM   14  N1  UNL     1      31.602  46.106  -8.448  1.00  0.00    -0.360 N
HETATM   15  C1  UNL     1      31.912  45.517  -9.765  1.00  0.00     0.149 C
ATOM     16  H1  UNL     1      32.366  46.364  -7.823  1.00  0.00     0.162 HD
HETATM   17  O1  UNL     1      29.332  46.000  -8.806  1.00  0.00    -0.266 OA
ENDBRANCH   1  13
BRANCH   3  18
HETATM   18  N2  UNL     1      30.621  49.850  -4.853  1.00  0.00    -0.332 N
ATOM     19  H2  UNL     1      30.607  50.058  -3.854  1.00  0.00     0.168 HD
BRANCH  18  20
HETATM   20  C6  UNL     1      31.151  50.861  -5.601  1.00  0.00     0.353 C
HETATM   21  O2  UNL     1      30.635  52.021  -5.702  1.00  0.00    -0.283 OA
ENDBRANCH  18  20
ENDBRANCH   3  18
BRANCH   7  22
HETATM   22  N4  UNL     1      27.514  47.062  -1.535  1.00  0.00    -0.143 N
HETATM   23  C9  UNL     1      28.267  46.786  -0.364  1.00  0.00     0.346 C
HETATM   24  N5  UNL     1      27.862  45.706   0.457  1.00  0.00    -0.039 NA
HETATM   25  O3  UNL     1      29.286  47.466  -0.028  1.00  0.00    -0.250 OA
ATOM     26  H4  UNL     1      26.504  47.194  -1.476  1.00  0.00     0.188 HD
ENDBRANCH   7  22
TORSDOF 4
ENDMDL