MODEL 5
REMARK VINA RESULT: -7.790258896      3.417      5.934
REMARK  6 active torsions:
REMARK  status: ('A' for Active; 'I' for Inactive)
REMARK       I    between atoms: N1_2  and  C2_4
REMARK       I    between atoms: C2_4  and  N2_5
REMARK       I    between atoms: C2_4  and  N8_25
REMARK    1  A    between atoms: N2_5  and  C3_7
REMARK    2  A    between atoms: C3_7  and  N3_8
REMARK    3  A    between atoms: C3_7  and  C4_12
REMARK       I    between atoms: C4_12  and  N4_14
REMARK    4  A    between atoms: N4_14  and  C5_16
REMARK    5  A    between atoms: N8_25  and  C7_27
REMARK    6  A    between atoms: C7_27  and  C8_28
ROOT
HETATM    1  C3  UNL     1      29.663  47.316  -5.561  1.00  0.00     0.389 C
ENDROOT
BRANCH   1   2
HETATM    2  N2  UNL     1      30.999  47.096  -5.139  1.00  0.00    -0.189 N
HETATM    3  C2  UNL     1      31.707  48.031  -4.632  1.00  0.00     0.671 C
HETATM    4  N1  UNL     1      31.083  49.328  -4.502  1.00  0.00    -0.231 N
HETATM    5  N8  UNL     1      33.061  47.849  -4.223  1.00  0.00    -0.226 N
HETATM    6  C1  UNL     1      31.324  50.387  -5.432  1.00  0.00     0.165 C
ATOM      7  H1  UNL     1      30.450  49.494  -3.720  1.00  0.00     0.177 HD
ATOM      8  H8  UNL     1      33.640  47.130  -4.656  1.00  0.00     0.177 HD
ATOM      9  H2  UNL     1      31.405  46.166  -5.244  1.00  0.00     0.180 HD
BRANCH   5  10
HETATM   10  C7  UNL     1      33.592  48.684  -3.204  1.00  0.00     0.142 C
BRANCH  10  11
HETATM   11  C8  UNL     1      35.023  49.092  -3.417  1.00  0.00    -0.004 C
HETATM   12  C9  UNL     1      35.449  48.642  -4.824  1.00  0.00     0.011 C
HETATM   13  C10 UNL     1      36.001  48.560  -2.442  1.00  0.00     0.011 C
ENDBRANCH  10  11
ENDBRANCH   5  10
ENDBRANCH   1   2
BRANCH   1  14
HETATM   14  N3  UNL     1      29.604  46.986  -6.989  1.00  0.00    -0.049 N
ATOM     15  H33 UNL     1      28.657  47.009  -7.367  1.00  0.00     0.277 HD
ATOM     16  H32 UNL     1      30.000  47.713  -7.585  1.00  0.00     0.277 HD
ATOM     17  H31 UNL     1      30.061  46.081  -7.104  1.00  0.00     0.277 HD
ENDBRANCH   1  14
BRANCH   1  18
HETATM   18  C4  UNL     1      28.618  46.585  -4.836  1.00  0.00     0.286 C
HETATM   19  O1  UNL     1      28.642  45.313  -4.995  1.00  0.00    -0.268 OA
HETATM   20  N4  UNL     1      27.619  47.109  -4.010  1.00  0.00    -0.155 N
ATOM     21  H4  UNL     1      26.947  47.777  -4.386  1.00  0.00     0.187 HD
BRANCH  20  22
HETATM   22  C5  UNL     1      27.544  46.750  -2.772  1.00  0.00     0.703 A
HETATM   23  N5  UNL     1      26.447  46.696  -1.985  1.00  0.00    -0.128 N
HETATM   24  N6  UNL     1      26.783  46.284  -0.776  1.00  0.00    -0.237 N
ATOM     25  H5  UNL     1      25.501  46.937  -2.280  1.00  0.00     0.205 HD
HETATM   26  C6  UNL     1      28.124  46.060  -0.753  1.00  0.00     0.353 A
ATOM     27  H6  UNL     1      26.144  46.155   0.008  1.00  0.00     0.192 HD
HETATM   28  O2  UNL     1      28.825  45.661   0.216  1.00  0.00    -0.245 OA
HETATM   29  N7  UNL     1      28.570  46.356  -2.004  1.00  0.00    -0.139 N
ATOM     30  H7  UNL     1      29.540  46.288  -2.311  1.00  0.00     0.189 HD
ENDBRANCH  20  22
ENDBRANCH   1  18
TORSDOF 6
ENDMDL