MODEL 5
REMARK VINA RESULT: -6.007314742      2.182      2.562
REMARK  10 active torsions:
REMARK  status: ('A' for Active; 'I' for Inactive)
REMARK    1  A    between atoms: N1_1  and  N2_4
REMARK    2  A    between atoms: N2_4  and  N3_5
REMARK       I    between atoms: N3_5  and  C1_7
REMARK    3  A    between atoms: C1_7  and  C2_9
REMARK    4  A    between atoms: C2_9  and  N4_10
REMARK    5  A    between atoms: N4_10  and  C3_12
REMARK    6  A    between atoms: N5_13  and  N6_15
REMARK    7  A    between atoms: N6_15  and  C4_17
REMARK    8  A    between atoms: C4_17  and  N7_19
REMARK    9  A    between atoms: N7_19  and  N8_21
REMARK   10  A    between atoms: N8_21  and  C5_23
ROOT
HETATM    1  C3  UNL     1      26.142  48.595  -2.430  1.00  0.00     0.193 C
HETATM    2  N5  UNL     1      26.862  48.966  -3.414  1.00  0.00    -0.294 N
ATOM      3  H5  UNL     1      26.437  49.274  -4.288  1.00  0.00     0.187 HD
ENDROOT
BRANCH   2   4
HETATM    4  N6  UNL     1      28.248  48.937  -3.260  1.00  0.00    -0.274 N
ATOM      5  H6  UNL     1      28.712  49.470  -2.523  1.00  0.00     0.189 HD
BRANCH   4   6
HETATM    6  C4  UNL     1      28.986  48.139  -4.168  1.00  0.00     0.205 C
HETATM    7  S1  UNL     1      28.587  46.563  -4.291  1.00  0.00    -0.038 SA
BRANCH   6   8
HETATM    8  N7  UNL     1      30.038  48.684  -4.948  1.00  0.00    -0.273 N
ATOM      9  H7  UNL     1      30.434  48.160  -5.728  1.00  0.00     0.189 HD
BRANCH   8  10
HETATM   10  N8  UNL     1      30.514  49.943  -4.628  1.00  0.00    -0.276 N
ATOM     11  H8  UNL     1      29.863  50.714  -4.484  1.00  0.00     0.189 HD
BRANCH  10  12
HETATM   12  C5  UNL     1      31.899  50.156  -4.501  1.00  0.00     0.199 C
HETATM   13  N9  UNL     1      32.541  49.990  -3.221  1.00  0.00    -0.068 NA
HETATM   14  S2  UNL     1      32.776  50.595  -5.817  1.00  0.00    -0.043 SA
ENDBRANCH  10  12
ENDBRANCH   8  10
ENDBRANCH   6   8
ENDBRANCH   4   6
ENDBRANCH   2   4
BRANCH   1  15
HETATM   15  N4  UNL     1      26.717  48.167  -1.217  1.00  0.00    -0.376 N
ATOM     16  H4  UNL     1      27.038  48.866  -0.548  1.00  0.00     0.160 HD
BRANCH  15  17
HETATM   17  C2  UNL     1      26.864  46.766  -0.894  1.00  0.00     0.225 C
BRANCH  17  18
HETATM   18  C1  UNL     1      28.185  46.547  -0.267  1.00  0.00     0.265 C
HETATM   19  N3  UNL     1      28.963  47.678   0.108  1.00  0.00    -0.182 N
ATOM     20  H3  UNL     1      28.809  48.082   1.032  1.00  0.00     0.207 HD
HETATM   21  O1  UNL     1      28.574  45.366  -0.089  1.00  0.00    -0.269 OA
BRANCH  19  22
HETATM   22  N2  UNL     1      29.806  48.195  -0.614  1.00  0.00    -0.241 NA
BRANCH  22  23
HETATM   23  N1  UNL     1      30.713  48.820  -1.155  1.00  0.00    -0.260 N
ATOM     24  H12 UNL     1      31.363  48.087  -0.870  1.00  0.00     0.193 HD
ATOM     25  H11 UNL     1      31.336  49.461  -1.647  1.00  0.00     0.193 HD
ENDBRANCH  22  23
ENDBRANCH  19  22
ENDBRANCH  17  18
ENDBRANCH  15  17
ENDBRANCH   1  15
TORSDOF 10
ENDMDL