MODEL 3
REMARK VINA RESULT: -5.902061998      2.161      5.541
REMARK  9 active torsions:
REMARK  status: ('A' for Active; 'I' for Inactive)
REMARK       I    between atoms: C2_2  and  N1_4
REMARK    1  A    between atoms: N1_4  and  N2_6
REMARK    2  A    between atoms: N2_6  and  C3_8
REMARK    3  A    between atoms: C3_8  and  N3_10
REMARK    4  A    between atoms: N3_10  and  N4_12
REMARK    5  A    between atoms: N4_12  and  C4_14
REMARK    6  A    between atoms: C4_14  and  N5_16
REMARK    7  A    between atoms: N5_16  and  C5_18
REMARK    8  A    between atoms: C5_18  and  C6_19
REMARK    9  A    between atoms: C6_19  and  N6_20
ROOT
HETATM    1  N3  UNL     1      29.647  48.736  -2.840  1.00  0.00    -0.273 N
ATOM      2  H3  UNL     1      29.720  49.200  -1.934  1.00  0.00     0.189 HD
ENDROOT
BRANCH   1   3
HETATM    3  C3  UNL     1      30.756  48.029  -3.368  1.00  0.00     0.205 C
HETATM    4  S1  UNL     1      32.105  48.851  -3.746  1.00  0.00    -0.038 SA
BRANCH   3   5
HETATM    5  N2  UNL     1      30.647  46.630  -3.551  1.00  0.00    -0.273 N
ATOM      6  H2  UNL     1      30.588  46.021  -2.735  1.00  0.00     0.189 HD
BRANCH   5   7
HETATM    7  N1  UNL     1      30.618  46.072  -4.816  1.00  0.00    -0.268 N
HETATM    8  C2  UNL     1      29.433  45.823  -5.537  1.00  0.00     0.232 C
HETATM    9  C1  UNL     1      29.424  45.233  -6.898  1.00  0.00     0.119 C
HETATM   10  O1  UNL     1      28.288  46.101  -5.046  1.00  0.00    -0.272 OA
ATOM     11  H1  UNL     1      31.506  45.827  -5.252  1.00  0.00     0.190 HD
ENDBRANCH   5   7
ENDBRANCH   3   5
ENDBRANCH   1   3
BRANCH   1  12
HETATM   12  N4  UNL     1      28.458  48.796  -3.563  1.00  0.00    -0.274 N
ATOM     13  H4  UNL     1      28.449  49.172  -4.511  1.00  0.00     0.189 HD
BRANCH  12  14
HETATM   14  C4  UNL     1      27.268  48.330  -2.970  1.00  0.00     0.186 C
HETATM   15  S2  UNL     1      26.012  49.334  -2.844  1.00  0.00    -0.040 SA
BRANCH  14  16
HETATM   16  N5  UNL     1      27.225  47.020  -2.483  1.00  0.00    -0.361 N
ATOM     17  H5  UNL     1      27.778  46.302  -2.951  1.00  0.00     0.162 HD
BRANCH  16  18
HETATM   18  C5  UNL     1      26.427  46.653  -1.348  1.00  0.00     0.166 C
BRANCH  18  19
HETATM   19  C6  UNL     1      27.311  46.174  -0.237  1.00  0.00     0.076 C
BRANCH  19  20
HETATM   20  N6  UNL     1      28.217  47.133   0.250  1.00  0.00    -0.400 N
HETATM   21  C7  UNL     1      27.774  48.448   0.482  1.00  0.00     0.148 C
HETATM   22  C8  UNL     1      29.595  46.904   0.190  1.00  0.00     0.148 C
ENDBRANCH  19  20
ENDBRANCH  18  19
ENDBRANCH  16  18
ENDBRANCH  14  16
ENDBRANCH  12  14
ENDBRANCH   1  12
TORSDOF 9
ENDMDL