MODEL 2
REMARK VINA RESULT: -7.398848108      2.385      3.321
REMARK  5 active torsions:
REMARK  status: ('A' for Active; 'I' for Inactive)
REMARK       I    between atoms: N1_2  and  C2_4
REMARK       I    between atoms: C2_4  and  N2_6
REMARK    1  A    between atoms: N2_6  and  S1_8
REMARK    2  A    between atoms: S1_8  and  N3_9
REMARK    3  A    between atoms: S1_8  and  N4_13
REMARK    4  A    between atoms: N4_13  and  C3_15
REMARK    5  A    between atoms: C5_17  and  C6_18
ROOT
HETATM    1  N4  UNL     1      28.456  46.780  -4.761  1.00  0.00    -0.269 N
ATOM      2  H4  UNL     1      27.626  46.529  -5.297  1.00  0.00     0.180 HD
ENDROOT
BRANCH   1   3
HETATM    3  S1  UNL     1      29.866  46.512  -5.615  1.00  0.00     0.201 S
HETATM    4  O2  UNL     1      31.076  46.610  -4.702  1.00  0.00    -0.206 OA
BRANCH   3   5
HETATM    5  N2  UNL     1      29.879  44.936  -6.370  1.00  0.00    -0.236 N
HETATM    6  C2  UNL     1      30.815  44.593  -7.377  1.00  0.00     0.329 C
HETATM    7  N1  UNL     1      30.796  43.324  -7.966  1.00  0.00    -0.347 N
HETATM    8  O1  UNL     1      31.669  45.464  -7.730  1.00  0.00    -0.246 OA
HETATM    9  C1  UNL     1      31.742  42.955  -8.997  1.00  0.00     0.151 C
ATOM     10  H1  UNL     1      30.099  42.644  -7.662  1.00  0.00     0.163 HD
ATOM     11  H2  UNL     1      29.192  44.242  -6.077  1.00  0.00     0.183 HD
ENDBRANCH   3   5
BRANCH   3  12
HETATM   12  N3  UNL     1      30.082  47.555  -6.738  1.00  0.00    -0.328 N
ATOM     13  H32 UNL     1      30.467  47.364  -7.663  1.00  0.00     0.168 HD
ATOM     14  H31 UNL     1      29.768  48.455  -6.375  1.00  0.00     0.168 HD
ENDBRANCH   3  12
ENDBRANCH   1   3
BRANCH   1  15
HETATM   15  C3  UNL     1      28.168  47.220  -3.610  1.00  0.00     0.130 A
HETATM   16  C4  UNL     1      27.920  46.471  -2.495  1.00  0.00     0.070 A
HETATM   17  C5  UNL     1      27.624  47.071  -1.271  1.00  0.00     0.074 A
HETATM   18  C7  UNL     1      27.582  48.444  -1.205  1.00  0.00     0.273 A
HETATM   19  O4  UNL     1      27.311  48.991  -0.091  1.00  0.00    -0.266 OA
HETATM   20  N5  UNL     1      27.827  49.162  -2.307  1.00  0.00    -0.264 N
HETATM   21  N6  UNL     1      28.104  48.589  -3.447  1.00  0.00    -0.282 N
ATOM     22  H5  UNL     1      27.797  50.180  -2.255  1.00  0.00     0.190 HD
ATOM     23  H6  UNL     1      28.281  49.183  -4.257  1.00  0.00     0.188 HD
BRANCH  17  24
HETATM   24  C6  UNL     1      27.378  46.250  -0.113  1.00  0.00     0.275 C
HETATM   25  O3  UNL     1      28.176  45.383   0.259  1.00  0.00    -0.301 OA
ENDBRANCH  17  24
ENDBRANCH   1  15
TORSDOF 5
ENDMDL