MODEL 1
REMARK VINA RESULT: -7.207975409      0.000      0.000
REMARK  7 active torsions:
REMARK  status: ('A' for Active; 'I' for Inactive)
REMARK    1  A    between atoms: S1_2  and  S2_3
REMARK    2  A    between atoms: S2_3  and  C2_4
REMARK    3  A    between atoms: C2_4  and  C3_5
REMARK    4  A    between atoms: C3_5  and  O1_6
REMARK    5  A    between atoms: C3_5  and  N1_8
REMARK    6  A    between atoms: N1_8  and  N2_9
REMARK       I    between atoms: N2_9  and  C4_11
REMARK    7  A    between atoms: C4_11  and  C5_13
ROOT
HETATM    1  C5  UNL     1      28.752  46.522  -4.334  1.00  0.00     0.106 A
HETATM    2  C6  UNL     1      28.147  47.753  -4.414  1.00  0.00     0.066 A
HETATM    3  C7  UNL     1      27.843  48.412  -3.256  1.00  0.00     0.052 A
HETATM    4  N3  UNL     1      27.295  49.612  -3.283  1.00  0.00    -0.398 N
ATOM      5  H31 UNL     1      27.068  50.103  -2.419  1.00  0.00     0.156 HD
ATOM      6  H32 UNL     1      27.067  50.060  -4.170  1.00  0.00     0.156 HD
HETATM    7  C8  UNL     1      28.151  47.808  -2.058  1.00  0.00     0.112 A
HETATM    8  C9  UNL     1      27.876  48.546  -0.832  1.00  0.00     0.105 C
HETATM    9  N4  UNL     1      27.651  49.149   0.170  1.00  0.00    -0.191 NA
HETATM   10  C10 UNL     1      28.745  46.589  -1.978  1.00  0.00     0.140 A
HETATM   11  N5  UNL     1      29.060  45.960  -0.735  1.00  0.00    -0.081 NA
HETATM   12  N6  UNL     1      29.052  45.930  -3.162  1.00  0.00    -0.339 N
ATOM     13  H6  UNL     1      29.498  45.013  -3.144  1.00  0.00     0.167 HD
ENDROOT
BRANCH   1  14
HETATM   14  C4  UNL     1      29.246  45.976  -5.642  1.00  0.00     0.297 C
HETATM   15  N2  UNL     1      29.716  46.893  -6.565  1.00  0.00    -0.195 N
ATOM     16  H2  UNL     1      29.639  47.801  -6.107  1.00  0.00     0.205 HD
HETATM   17  O2  UNL     1      29.178  44.746  -5.745  1.00  0.00    -0.263 OA
BRANCH  15  18
HETATM   18  N1  UNL     1      30.216  47.144  -7.754  1.00  0.00    -0.301 NA
BRANCH  18  19
HETATM   19  C3  UNL     1      30.725  47.392  -8.967  1.00  0.00     0.224 C
BRANCH  19  20
HETATM   20  C2  UNL     1      31.323  48.572  -9.599  1.00  0.00     0.188 C
BRANCH  20  21
HETATM   21  S2  UNL     1      33.048  48.861  -9.330  1.00  0.00    -0.089 SA
BRANCH  21  22
HETATM   22  S1  UNL     1      33.952  47.303  -8.185  1.00  0.00    -0.102 SA
HETATM   23  C1  UNL     1      33.689  47.647  -6.426  1.00  0.00     0.102 C
ENDBRANCH  21  22
ENDBRANCH  20  21
ENDBRANCH  19  20
BRANCH  19  24
HETATM   24  O1  UNL     1      30.709  46.366  -9.847  1.00  0.00    -0.337 OA
ATOM     25  H1  UNL     1      30.843  45.547  -9.384  1.00  0.00     0.220 HD
ENDBRANCH  19  24
ENDBRANCH  18  19
ENDBRANCH  15  18
ENDBRANCH   1  14
TORSDOF 7
ENDMDL