MODEL 1
REMARK VINA RESULT: -8.458011398      0.000      0.000
REMARK  5 active torsions:
REMARK  status: ('A' for Active; 'I' for Inactive)
REMARK    1  A    between atoms: C2_2  and  N1_4
REMARK       I    between atoms: N1_4  and  C4_6
REMARK       I    between atoms: C4_6  and  N2_8
REMARK       I    between atoms: N2_8  and  C5_10
REMARK    2  A    between atoms: C5_10  and  C6_12
REMARK    3  A    between atoms: C6_12  and  C8_14
REMARK    4  A    between atoms: C9_15  and  C10_16
REMARK    5  A    between atoms: C12_27  and  N7_28
ROOT
HETATM    1  C8  UNL     1      33.029  49.461  -4.468  1.00  0.00     0.040 A
HETATM    2  C9  UNL     1      34.303  50.039  -4.251  1.00  0.00     0.155 A
HETATM    3  O3  UNL     1      34.087  51.319  -4.328  1.00  0.00    -0.232 OA
HETATM    4  N6  UNL     1      32.915  51.668  -4.543  1.00  0.00    -0.244 N
ATOM      5  H6  UNL     1      32.582  52.628  -4.627  1.00  0.00     0.196 HD
HETATM    6  C12 UNL     1      32.135  50.513  -4.649  1.00  0.00     0.129 A
ENDROOT
BRANCH   1   7
HETATM    7  C6  UNL     1      32.755  48.048  -4.478  1.00  0.00     0.114 C
HETATM    8  C7  UNL     1      32.483  47.521  -5.928  1.00  0.00     0.025 C
BRANCH   7   9
HETATM    9  C5  UNL     1      31.491  47.647  -3.794  1.00  0.00     0.234 C
HETATM   10  N2  UNL     1      30.494  46.802  -4.292  1.00  0.00    -0.279 N
HETATM   11  C4  UNL     1      29.223  46.688  -3.640  1.00  0.00     0.323 C
ATOM     12  H2  UNL     1      30.674  46.257  -5.136  1.00  0.00     0.173 HD
HETATM   13  N1  UNL     1      28.926  47.187  -2.341  1.00  0.00    -0.339 N
HETATM   14  O1  UNL     1      28.315  46.120  -4.279  1.00  0.00    -0.247 OA
ATOM     15  H1  UNL     1      29.628  47.585  -1.716  1.00  0.00     0.164 HD
HETATM   16  O2  UNL     1      31.341  48.165  -2.634  1.00  0.00    -0.272 OA
BRANCH  13  17
HETATM   17  C2  UNL     1      27.448  47.067  -1.977  1.00  0.00     0.078 C
HETATM   18  C1  UNL     1      27.421  46.481  -0.574  1.00  0.00     0.032 C
HETATM   19  C3  UNL     1      26.866  48.427  -1.980  1.00  0.00     0.032 C
ENDBRANCH  13  17
ENDBRANCH   7   9
ENDBRANCH   1   7
BRANCH   2  20
HETATM   20  C10 UNL     1      35.554  49.344  -4.003  1.00  0.00     0.158 A
HETATM   21  N3  UNL     1      35.910  49.035  -2.673  1.00  0.00    -0.334 N
HETATM   22  C11 UNL     1      37.080  48.400  -2.672  1.00  0.00     0.199 A
ATOM     23  H3  UNL     1      35.359  49.261  -1.845  1.00  0.00     0.168 HD
HETATM   24  N4  UNL     1      37.478  48.278  -3.972  1.00  0.00    -0.294 N
HETATM   25  N5  UNL     1      36.523  48.862  -4.729  1.00  0.00    -0.282 N
ATOM     26  H4  UNL     1      38.331  47.833  -4.307  1.00  0.00     0.187 HD
ATOM     27  H5  UNL     1      36.556  48.917  -5.747  1.00  0.00     0.188 HD
ENDBRANCH   2  20
BRANCH   6  28
HETATM   28  N7  UNL     1      30.921  50.574  -4.793  1.00  0.00    -0.384 N
ATOM     29  H72 UNL     1      30.433  49.969  -5.453  1.00  0.00     0.157 HD
ATOM     30  H71 UNL     1      30.197  51.185  -4.415  1.00  0.00     0.157 HD
ENDBRANCH   6  28
TORSDOF 5
ENDMDL