MODEL 5
REMARK VINA RESULT: -7.474344124      2.062      3.928
REMARK  7 active torsions:
REMARK  status: ('A' for Active; 'I' for Inactive)
REMARK    1  A    between atoms: C2_2  and  S1_3
REMARK    2  A    between atoms: S1_3  and  C3_4
REMARK    3  A    between atoms: C4_7  and  N2_8
REMARK    4  A    between atoms: C5_13  and  N4_14
REMARK    5  A    between atoms: C7_17  and  C8_18
REMARK    6  A    between atoms: N5_19  and  N6_21
REMARK    7  A    between atoms: N6_21  and  C9_23
ROOT
HETATM    1  C3  UNL     1      31.186  46.968  -7.322  1.00  0.00     0.101 A
HETATM    2  N1  UNL     1      31.762  46.464  -8.403  1.00  0.00    -0.185 N
ATOM      3  H1  UNL     1      32.247  47.108  -9.030  1.00  0.00     0.185 HD
HETATM    4  C4  UNL     1      31.749  45.155  -8.728  1.00  0.00     0.678 A
HETATM    5  N3  UNL     1      31.118  44.309  -7.911  1.00  0.00    -0.176 N
ATOM      6  H3  UNL     1      31.097  43.315  -8.139  1.00  0.00     0.186 HD
HETATM    7  C5  UNL     1      30.512  44.740  -6.796  1.00  0.00     0.131 A
HETATM    8  C7  UNL     1      30.537  46.085  -6.482  1.00  0.00     0.059 A
ENDROOT
BRANCH   8   9
HETATM    9  C8  UNL     1      29.871  46.545  -5.268  1.00  0.00     0.125 C
HETATM   10  N5  UNL     1      28.602  46.756  -5.257  1.00  0.00    -0.297 N
ATOM     11  H5  UNL     1      28.068  46.597  -6.112  1.00  0.00     0.186 HD
BRANCH  10  12
HETATM   12  N6  UNL     1      27.937  47.192  -4.127  1.00  0.00    -0.133 N
ATOM     13  H6  UNL     1      27.001  47.584  -4.228  1.00  0.00     0.205 HD
BRANCH  12  14
HETATM   14  C9  UNL     1      28.509  47.114  -2.828  1.00  0.00     0.688 C
HETATM   15  N7  UNL     1      29.067  48.172  -2.321  1.00  0.00    -0.225 N
HETATM   16  C10 UNL     1      29.628  47.996  -0.980  1.00  0.00     0.139 C
ATOM     17  H7  UNL     1      29.111  49.060  -2.820  1.00  0.00     0.177 HD
HETATM   18  C11 UNL     1      28.518  47.319  -0.169  1.00  0.00     0.040 C
HETATM   19  C12 UNL     1      28.332  45.909  -0.658  1.00  0.00     0.139 C
HETATM   20  N8  UNL     1      28.466  45.888  -2.105  1.00  0.00    -0.225 N
ATOM     21  H8  UNL     1      28.529  44.999  -2.601  1.00  0.00     0.177 HD
ENDBRANCH  12  14
ENDBRANCH  10  12
ENDBRANCH   8   9
BRANCH   1  22
HETATM   22  S1  UNL     1      31.204  48.700  -6.903  1.00  0.00    -0.111 SA
BRANCH  22  23
HETATM   23  C2  UNL     1      32.518  49.170  -5.795  1.00  0.00     0.076 C
HETATM   24  C1  UNL     1      33.605  48.149  -5.736  1.00  0.00     0.016 C
ENDBRANCH  22  23
ENDBRANCH   1  22
BRANCH   7  25
HETATM   25  N4  UNL     1      29.903  43.882  -6.018  1.00  0.00    -0.379 N
HETATM   26  C6  UNL     1      29.038  42.885  -6.590  1.00  0.00     0.147 C
ATOM     27  H4  UNL     1      30.041  43.920  -5.008  1.00  0.00     0.160 HD
ENDBRANCH   7  25
BRANCH   4  28
HETATM   28  N2  UNL     1      32.333  44.738  -9.805  1.00  0.00    -0.234 N
ATOM     29  H22 UNL     1      32.764  45.392 -10.459  1.00  0.00     0.174 HD
ATOM     30  H21 UNL     1      32.374  43.741 -10.020  1.00  0.00     0.174 HD
ENDBRANCH   4  28
TORSDOF 7
ENDMDL