MODEL 1
REMARK VINA RESULT: -9.045970240      0.000      0.000
REMARK  6 active torsions:
REMARK  status: ('A' for Active; 'I' for Inactive)
REMARK    1  A    between atoms: C2_2  and  O1_3
REMARK    2  A    between atoms: O1_3  and  C3_4
REMARK    3  A    between atoms: C3_4  and  C4_6
REMARK    4  A    between atoms: C5_7  and  C6_8
REMARK    5  A    between atoms: C7_9  and  O3_10
REMARK    6  A    between atoms: C8_14  and  N2_15
ROOT
HETATM    1  C6  UNL     1      29.579  47.138  -4.801  1.00  0.00     0.028 A
HETATM    2  C7  UNL     1      29.093  45.839  -4.807  1.00  0.00     0.152 A
HETATM    3  N1  UNL     1      29.541  44.895  -5.653  1.00  0.00    -0.322 N
ATOM      4  H1  UNL     1      29.156  43.951  -5.632  1.00  0.00     0.169 HD
HETATM    5  C8  UNL     1      30.481  45.217  -6.504  1.00  0.00     0.107 A
HETATM    6  C9  UNL     1      31.024  46.508  -6.552  1.00  0.00    -0.005 A
HETATM    7  C10 UNL     1      32.151  46.705  -7.474  1.00  0.00     0.053 C
HETATM    8  C11 UNL     1      30.586  47.521  -5.697  1.00  0.00     0.012 A
HETATM    9  C12 UNL     1      31.155  48.847  -5.693  1.00  0.00     0.043 C
HETATM   10  C13 UNL     1      31.661  49.415  -7.001  1.00  0.00     0.289 C
HETATM   11  N3  UNL     1      31.610  50.906  -6.824  1.00  0.00    -0.068 N
ATOM     12  H31 UNL     1      30.651  51.252  -6.786  1.00  0.00     0.277 HD
ATOM     13  H32 UNL     1      31.915  51.401  -7.662  1.00  0.00     0.277 HD
HETATM   14  C14 UNL     1      32.362  51.289  -5.675  1.00  0.00     0.252 C
HETATM   15  C15 UNL     1      31.797  50.688  -4.397  1.00  0.00     0.147 C
HETATM   16  N4  UNL     1      30.652  49.857  -4.828  1.00  0.00    -0.389 N
ATOM     17  H4  UNL     1      29.678  49.986  -4.554  1.00  0.00     0.159 HD
ENDROOT
BRANCH   1  18
HETATM   18  C5  UNL     1      28.953  48.092  -3.945  1.00  0.00     0.023 C
HETATM   19  C4  UNL     1      27.640  48.047  -3.691  1.00  0.00     0.083 C
BRANCH  19  20
HETATM   20  C3  UNL     1      26.994  49.036  -2.805  1.00  0.00     0.282 C
HETATM   21  O2  UNL     1      26.666  50.152  -3.251  1.00  0.00    -0.260 OA
BRANCH  20  22
HETATM   22  O1  UNL     1      26.740  48.749  -1.477  1.00  0.00    -0.319 OA
BRANCH  22  23
HETATM   23  C2  UNL     1      27.824  48.747  -0.558  1.00  0.00     0.174 C
HETATM   24  C1  UNL     1      28.191  47.372  -0.098  1.00  0.00     0.034 C
ENDBRANCH  22  23
ENDBRANCH  20  22
ENDBRANCH  19  20
ENDBRANCH   1  18
BRANCH   2  25
HETATM   25  O3  UNL     1      28.106  45.387  -3.934  1.00  0.00    -0.345 OA
ATOM     26  H3  UNL     1      28.273  44.770  -3.231  1.00  0.00     0.219 HD
ENDBRANCH   2  25
BRANCH   5  27
HETATM   27  N2  UNL     1      30.926  44.311  -7.316  1.00  0.00    -0.385 N
ATOM     28  H22 UNL     1      31.751  43.769  -7.058  1.00  0.00     0.157 HD
ATOM     29  H21 UNL     1      30.435  44.155  -8.197  1.00  0.00     0.157 HD
ENDBRANCH   5  27
TORSDOF 6
ENDMDL