MODEL 5
REMARK VINA RESULT: -7.968827332      3.105      4.532
REMARK  4 active torsions:
REMARK  status: ('A' for Active; 'I' for Inactive)
REMARK    1  A    between atoms: C2_2  and  C4_4
REMARK    2  A    between atoms: C4_4  and  N1_5
REMARK    3  A    between atoms: C4_4  and  C12_22
REMARK       I    between atoms: N1_5  and  C5_7
REMARK    4  A    between atoms: C5_7  and  C6_9
ROOT
HETATM    1  C6  UNL     1      30.446  47.410  -4.673  1.00  0.00     0.100 A
HETATM    2  S1  UNL     1      31.824  47.987  -5.491  1.00  0.00    -0.064 SA
HETATM    3  C7  UNL     1      32.291  47.033  -6.819  1.00  0.00     0.094 A
HETATM    4  N2  UNL     1      33.312  47.280  -7.590  1.00  0.00    -0.392 N
ATOM      5  H21 UNL     1      33.592  46.708  -8.386  1.00  0.00     0.156 HD
ATOM      6  H22 UNL     1      33.905  48.094  -7.425  1.00  0.00     0.156 HD
HETATM    7  C8  UNL     1      31.485  45.929  -7.043  1.00  0.00     0.102 A
HETATM    8  N3  UNL     1      31.851  45.089  -8.169  1.00  0.00    -0.098 NA
HETATM    9  C9  UNL     1      30.394  45.582  -6.294  1.00  0.00     0.097 A
HETATM   10  C10 UNL     1      29.674  44.376  -6.695  1.00  0.00     0.103 C
HETATM   11  N4  UNL     1      29.079  43.415  -7.022  1.00  0.00    -0.191 NA
HETATM   12  C11 UNL     1      29.906  46.256  -5.202  1.00  0.00     0.091 A
HETATM   13  N5  UNL     1      28.739  45.751  -4.525  1.00  0.00    -0.099 NA
ENDROOT
BRANCH   1  14
HETATM   14  C5  UNL     1      29.857  48.076  -3.490  1.00  0.00     0.261 C
HETATM   15  N1  UNL     1      28.503  47.957  -3.162  1.00  0.00    -0.342 N
ATOM     16  H1  UNL     1      27.886  47.394  -3.748  1.00  0.00     0.163 HD
HETATM   17  O1  UNL     1      30.632  48.766  -2.781  1.00  0.00    -0.267 OA
BRANCH  15  18
HETATM   18  C4  UNL     1      27.974  48.625  -1.997  1.00  0.00     0.189 C
BRANCH  18  19
HETATM   19  C2  UNL     1      27.597  47.606  -0.929  1.00  0.00     0.011 C
HETATM   20  C1  UNL     1      26.813  46.519  -1.601  1.00  0.00     0.012 C
HETATM   21  C3  UNL     1      28.870  47.106  -0.282  1.00  0.00     0.012 C
ENDBRANCH  18  19
BRANCH  18  22
HETATM   22  C12 UNL     1      26.762  49.427  -2.355  1.00  0.00     0.197 C
HETATM   23  O2  UNL     1      26.109  49.986  -1.467  1.00  0.00    -0.646 OA
HETATM   24  O3  UNL     1      26.367  49.550  -3.669  1.00  0.00    -0.646 OA
ENDBRANCH  18  22
ENDBRANCH  15  18
ENDBRANCH   1  14
TORSDOF 4
ENDMDL