MODEL 2
REMARK VINA RESULT: -7.942087404      3.179      4.878
REMARK  6 active torsions:
REMARK  status: ('A' for Active; 'I' for Inactive)
REMARK    1  A    between atoms: C2_2  and  O1_3
REMARK    2  A    between atoms: O1_3  and  C3_4
REMARK    3  A    between atoms: C3_4  and  C4_6
REMARK    4  A    between atoms: C10_15  and  C11_16
REMARK    5  A    between atoms: C11_16  and  O3_17
REMARK    6  A    between atoms: C11_16  and  N3_19
REMARK       I    between atoms: N3_19  and  C12_21
ROOT
HETATM    1  C4  UNL     1      30.551  48.641  -5.901  1.00  0.00     0.057 A
HETATM    2  C5  UNL     1      30.969  47.931  -7.057  1.00  0.00     0.042 A
HETATM    3  C6  UNL     1      30.632  46.640  -7.307  1.00  0.00     0.065 A
HETATM    4  C7  UNL     1      31.094  45.986  -8.505  1.00  0.00     0.101 C
HETATM    5  N1  UNL     1      31.463  45.480  -9.476  1.00  0.00    -0.191 NA
HETATM    6  C8  UNL     1      29.852  46.001  -6.393  1.00  0.00     0.058 A
HETATM    7  S1  UNL     1      29.411  44.290  -6.716  1.00  0.00    -0.049 SA
HETATM    8  C9  UNL     1      29.421  46.643  -5.270  1.00  0.00     0.081 A
HETATM    9  N2  UNL     1      28.614  45.904  -4.376  1.00  0.00    -0.100 NA
HETATM   10  C10 UNL     1      29.772  47.998  -5.017  1.00  0.00     0.057 A
ENDROOT
BRANCH   1  11
HETATM   11  C3  UNL     1      31.298  49.854  -5.692  1.00  0.00     0.294 C
HETATM   12  O2  UNL     1      31.481  50.707  -6.561  1.00  0.00    -0.259 OA
BRANCH  11  13
HETATM   13  O1  UNL     1      31.883  50.140  -4.453  1.00  0.00    -0.318 OA
BRANCH  13  14
HETATM   14  C2  UNL     1      33.230  49.775  -4.184  1.00  0.00     0.174 C
HETATM   15  C1  UNL     1      33.336  48.380  -3.633  1.00  0.00     0.034 C
ENDBRANCH  13  14
ENDBRANCH  11  13
ENDBRANCH   1  11
BRANCH  10  16
HETATM   16  C11 UNL     1      29.211  48.574  -3.822  1.00  0.00     0.155 C
BRANCH  16  17
HETATM   17  O3  UNL     1      29.879  48.397  -2.713  1.00  0.00    -0.345 OA
ATOM     18  H3  UNL     1      29.624  48.931  -1.971  1.00  0.00     0.219 HD
ENDBRANCH  16  17
BRANCH  16  19
HETATM   19  N3  UNL     1      28.029  49.299  -3.615  1.00  0.00    -0.311 N
HETATM   20  C12 UNL     1      27.024  48.864  -2.677  1.00  0.00     0.187 C
HETATM   21  N4  UNL     1      25.963  49.578  -2.537  1.00  0.00    -0.373 N
HETATM   22  N5  UNL     1      27.132  47.694  -1.895  1.00  0.00    -0.064 NA
ATOM     23  H42 UNL     1      25.885  50.423  -3.101  1.00  0.00     0.158 HD
ATOM     24  H41 UNL     1      25.252  49.270  -1.873  1.00  0.00     0.158 HD
ATOM     25  H3  UNL     1      27.876  50.159  -4.142  1.00  0.00     0.170 HD
ENDBRANCH  16  19
ENDBRANCH  10  16
TORSDOF 6
ENDMDL