MODEL 2
REMARK VINA RESULT: -7.329421451      2.697      4.338
REMARK  7 active torsions:
REMARK  status: ('A' for Active; 'I' for Inactive)
REMARK    1  A    between atoms: O1_2  and  C2_3
REMARK    2  A    between atoms: C5_8  and  N2_9
REMARK    3  A    between atoms: C6_14  and  N4_15
REMARK    4  A    between atoms: N4_15  and  O2_17
REMARK    5  A    between atoms: O2_17  and  C7_18
REMARK    6  A    between atoms: C9_24  and  O3_25
REMARK    7  A    between atoms: C11_27  and  O4_28
ROOT
HETATM    1  C2  UNL     1      31.371  49.222  -6.852  1.00  0.00     0.106 A
HETATM    2  C3  UNL     1      31.149  47.964  -7.418  1.00  0.00     0.071 A
HETATM    3  C4  UNL     1      30.550  46.967  -6.666  1.00  0.00     0.069 A
HETATM    4  N1  UNL     1      30.333  45.755  -7.242  1.00  0.00    -0.191 N
ATOM      5  H1  UNL     1      30.621  45.596  -8.207  1.00  0.00     0.184 HD
HETATM    6  C5  UNL     1      29.746  44.768  -6.554  1.00  0.00     0.678 A
HETATM    7  N3  UNL     1      29.379  45.013  -5.288  1.00  0.00    -0.174 N
ATOM      8  H3  UNL     1      28.930  44.262  -4.765  1.00  0.00     0.186 HD
HETATM    9  C6  UNL     1      29.570  46.195  -4.666  1.00  0.00     0.156 A
HETATM   10  C8  UNL     1      30.170  47.223  -5.344  1.00  0.00     0.074 A
HETATM   11  C9  UNL     1      30.397  48.469  -4.801  1.00  0.00     0.120 A
HETATM   12  C11 UNL     1      30.999  49.476  -5.557  1.00  0.00     0.136 A
ENDROOT
BRANCH   9  13
HETATM   13  N4  UNL     1      29.167  46.366  -3.444  1.00  0.00    -0.240 N
ATOM     14  H4  UNL     1      29.837  46.602  -2.711  1.00  0.00     0.196 HD
BRANCH  13  15
HETATM   15  O2  UNL     1      27.835  46.228  -3.143  1.00  0.00    -0.203 OA
BRANCH  15  16
HETATM   16  C7  UNL     1      27.282  46.903  -2.060  1.00  0.00     0.249 C
HETATM   17  N5  UNL     1      27.210  46.245  -0.944  1.00  0.00    -0.366 N
ATOM     18  H52 UNL     1      27.545  45.283  -0.878  1.00  0.00     0.159 HD
ATOM     19  H51 UNL     1      26.805  46.740  -0.150  1.00  0.00     0.159 HD
HETATM   20  N6  UNL     1      26.815  48.242  -2.151  1.00  0.00    -0.055 NA
ENDBRANCH  15  16
ENDBRANCH  13  15
ENDBRANCH   9  13
BRANCH   6  21
HETATM   21  N2  UNL     1      29.546  43.622  -7.110  1.00  0.00    -0.234 N
ATOM     22  H22 UNL     1      30.012  42.777  -6.781  1.00  0.00     0.174 HD
ATOM     23  H21 UNL     1      28.906  43.541  -7.901  1.00  0.00     0.174 HD
ENDBRANCH   6  21
BRANCH  11  24
HETATM   24  O3  UNL     1      30.031  48.738  -3.476  1.00  0.00    -0.352 OA
HETATM   25  C10 UNL     1      30.974  48.607  -2.415  1.00  0.00     0.210 C
ENDBRANCH  11  24
BRANCH  12  26
HETATM   26  O4  UNL     1      31.209  50.690  -4.997  1.00  0.00    -0.351 OA
HETATM   27  C12 UNL     1      32.382  51.177  -4.424  1.00  0.00     0.210 C
ENDBRANCH  12  26
BRANCH   1  28
HETATM   28  O1  UNL     1      31.960  50.219  -7.580  1.00  0.00    -0.353 OA
HETATM   29  C1  UNL     1      33.323  50.235  -7.956  1.00  0.00     0.210 C
ENDBRANCH   1  28
TORSDOF 7
ENDMDL