MODEL 4
REMARK VINA RESULT: -8.036136403      1.294      1.311
REMARK  7 active torsions:
REMARK  status: ('A' for Active; 'I' for Inactive)
REMARK    1  A    between atoms: C2_2  and  C8_13
REMARK    2  A    between atoms: C3_3  and  C4_4
REMARK    3  A    between atoms: C4_4  and  C5_6
REMARK    4  A    between atoms: C5_6  and  O2_7
REMARK    5  A    between atoms: C5_6  and  C6_9
REMARK    6  A    between atoms: C6_9  and  O3_11
REMARK    7  A    between atoms: C9_14  and  O4_15
ROOT
HETATM    1  C8  UNL     1      30.586  47.098  -5.195  1.00  0.00     0.089 C
HETATM    2  C9  UNL     1      29.552  46.222  -5.541  1.00  0.00     0.159 C
HETATM    3  N1  UNL     1      29.614  45.051  -6.234  1.00  0.00    -0.301 N
ATOM      4  H1  UNL     1      28.951  44.326  -5.961  1.00  0.00     0.171 HD
HETATM    5  C10 UNL     1      30.450  44.749  -7.235  1.00  0.00     0.285 C
HETATM    6  O5  UNL     1      30.380  43.604  -7.761  1.00  0.00    -0.265 OA
HETATM    7  C11 UNL     1      31.426  45.575  -7.788  1.00  0.00     0.172 C
HETATM    8  S1  UNL     1      31.916  45.132  -9.276  1.00  0.00    -0.054 SA
HETATM    9  N2  UNL     1      31.987  46.675  -7.224  1.00  0.00    -0.309 N
ATOM     10  H2  UNL     1      32.645  47.202  -7.798  1.00  0.00     0.170 HD
HETATM   11  C12 UNL     1      31.756  47.143  -5.961  1.00  0.00     0.261 C
HETATM   12  O6  UNL     1      32.753  47.677  -5.445  1.00  0.00    -0.267 OA
ENDROOT
BRANCH   1  13
HETATM   13  C2  UNL     1      30.477  47.876  -3.993  1.00  0.00    -0.038 C
HETATM   14  C1  UNL     1      30.149  49.332  -4.085  1.00  0.00     0.049 C
HETATM   15  C3  UNL     1      30.572  47.346  -2.790  1.00  0.00     0.060 C
BRANCH  15  16
HETATM   16  C4  UNL     1      30.391  48.032  -1.534  1.00  0.00     0.180 C
HETATM   17  O1  UNL     1      31.204  48.854  -1.026  1.00  0.00    -0.290 OA
BRANCH  16  18
HETATM   18  C5  UNL     1      29.138  47.753  -0.759  1.00  0.00     0.220 C
BRANCH  18  19
HETATM   19  O2  UNL     1      28.379  48.895  -0.743  1.00  0.00    -0.385 OA
ATOM     20  H2  UNL     1      27.465  48.647  -0.819  1.00  0.00     0.210 HD
ENDBRANCH  18  19
BRANCH  18  21
HETATM   21  C6  UNL     1      28.376  46.591  -1.353  1.00  0.00     0.150 C
HETATM   22  C7  UNL     1      26.964  47.100  -1.630  1.00  0.00     0.042 C
BRANCH  21  23
HETATM   23  O3  UNL     1      28.245  45.576  -0.409  1.00  0.00    -0.393 OA
ATOM     24  H3  UNL     1      27.617  44.930  -0.712  1.00  0.00     0.210 HD
ENDBRANCH  21  23
ENDBRANCH  18  21
ENDBRANCH  16  18
ENDBRANCH  15  16
ENDBRANCH   1  13
BRANCH   2  25
HETATM   25  O4  UNL     1      28.295  46.604  -5.122  1.00  0.00    -0.345 OA
ATOM     26  H4  UNL     1      27.584  46.048  -5.417  1.00  0.00     0.219 HD
ENDBRANCH   2  25
TORSDOF 7
ENDMDL