MODEL 4
REMARK VINA RESULT: -7.630602526      1.615      2.318
REMARK  7 active torsions:
REMARK  status: ('A' for Active; 'I' for Inactive)
REMARK    1  A    between atoms: C2_2  and  N1_3
REMARK    2  A    between atoms: N1_3  and  N2_5
REMARK    3  A    between atoms: N3_7  and  C4_9
REMARK    4  A    between atoms: C4_9  and  N4_10
REMARK    5  A    between atoms: C5_11  and  N5_12
REMARK    6  A    between atoms: C6_17  and  N7_18
REMARK    7  A    between atoms: N9_25  and  C9_27
ROOT
HETATM    1  C9  UNL     1      32.996  51.405  -3.851  1.00  0.00     0.262 C
HETATM    2  C10 UNL     1      32.679  52.778  -4.240  1.00  0.00     0.079 C
HETATM    3  N10 UNL     1      32.413  53.870  -4.554  1.00  0.00    -0.196 NA
ENDROOT
BRANCH   1   4
HETATM    4  N9  UNL     1      31.802  50.590  -3.784  1.00  0.00    -0.214 N
HETATM    5  C8  UNL     1      31.623  49.537  -4.517  1.00  0.00     0.681 A
HETATM    6  N8  UNL     1      32.489  49.051  -5.427  1.00  0.00    -0.184 N
HETATM    7  N11 UNL     1      30.531  48.758  -4.486  1.00  0.00    -0.173 N
HETATM    8  C7  UNL     1      31.917  47.938  -5.975  1.00  0.00     0.138 A
ATOM      9  H8  UNL     1      33.402  49.441  -5.663  1.00  0.00     0.184 HD
HETATM   10  C6  UNL     1      32.323  47.036  -6.943  1.00  0.00     0.146 A
HETATM   11  C11 UNL     1      30.689  47.761  -5.381  1.00  0.00     0.172 A
HETATM   12  N6  UNL     1      31.487  46.039  -7.242  1.00  0.00    -0.175 N
HETATM   13  C5  UNL     1      30.285  45.885  -6.644  1.00  0.00     0.682 A
ATOM     14  H6  UNL     1      31.767  45.364  -7.952  1.00  0.00     0.186 HD
HETATM   15  N4  UNL     1      29.872  46.745  -5.705  1.00  0.00    -0.148 N
ATOM     16  H11 UNL     1      29.718  48.896  -3.886  1.00  0.00     0.186 HD
ATOM     17  H9  UNL     1      31.068  50.856  -3.129  1.00  0.00     0.178 HD
BRANCH  10  18
HETATM   18  N7  UNL     1      33.463  47.173  -7.516  1.00  0.00    -0.383 N
ATOM     19  H72 UNL     1      33.811  46.450  -8.145  1.00  0.00     0.157 HD
ATOM     20  H71 UNL     1      34.054  47.991  -7.371  1.00  0.00     0.157 HD
ENDBRANCH  10  18
BRANCH  13  21
HETATM   21  N5  UNL     1      29.494  44.903  -6.958  1.00  0.00    -0.234 N
ATOM     22  H52 UNL     1      28.923  44.436  -6.254  1.00  0.00     0.174 HD
ATOM     23  H51 UNL     1      29.462  44.610  -7.935  1.00  0.00     0.174 HD
ENDBRANCH  13  21
BRANCH  15  24
HETATM   24  C4  UNL     1      28.575  46.643  -5.023  1.00  0.00     0.291 C
BRANCH  24  25
HETATM   25  N3  UNL     1      28.785  45.868  -3.850  1.00  0.00    -0.303 N
HETATM   26  N2  UNL     1      28.632  46.124  -2.660  1.00  0.00    -0.248 N
ATOM     27  H2  UNL     1      28.869  45.354  -2.035  1.00  0.00     0.207 HD
ATOM     28  H3  UNL     1      29.126  44.923  -4.031  1.00  0.00     0.183 HD
BRANCH  26  29
HETATM   29  N1  UNL     1      28.202  47.257  -2.014  1.00  0.00    -0.319 N
HETATM   30  C3  UNL     1      29.132  48.113  -1.308  1.00  0.00     0.172 C
BRANCH  29  31
HETATM   31  C2  UNL     1      26.790  47.662  -2.010  1.00  0.00     0.139 C
HETATM   32  C1  UNL     1      26.692  49.005  -2.681  1.00  0.00     0.028 C
ENDBRANCH  29  31
ENDBRANCH  26  29
ENDBRANCH  24  25
ENDBRANCH  15  24
ENDBRANCH   1   4
TORSDOF 7
ENDMDL