MODEL 3
REMARK VINA RESULT: -5.917861086      1.551      4.733
REMARK  2 active torsions:
REMARK  status: ('A' for Active; 'I' for Inactive)
REMARK    1  A    between atoms: C5_7  and  C6_8
REMARK    2  A    between atoms: C6_8  and  N2_9
ROOT
HETATM    1  C1  UNL     1      41.499  32.194  29.492  1.00  0.00     0.019 C
HETATM    2  C2  UNL     1      41.959  32.514  30.561  1.00  0.00    -0.058 C
HETATM    3  C3  UNL     1      42.496  32.913  31.832  1.00  0.00     0.110 A
HETATM    4  N1  UNL     1      43.507  32.266  32.440  1.00  0.00    -0.357 N
ATOM      5  H1  UNL     1      43.909  31.454  31.973  1.00  0.00     0.166 HD
HETATM    6  C4  UNL     1      44.015  32.632  33.628  1.00  0.00     0.097 A
HETATM    7  C5  UNL     1      43.496  33.709  34.270  1.00  0.00    -0.016 A
HETATM    8  C7  UNL     1      42.461  34.421  33.711  1.00  0.00     0.039 A
HETATM    9  C8  UNL     1      41.966  34.016  32.489  1.00  0.00     0.082 A
HETATM   10  N3  UNL     1      40.895  34.718  31.867  1.00  0.00    -0.099 NA
ENDROOT
BRANCH   7  11
HETATM   11  C6  UNL     1      44.037  34.131  35.575  1.00  0.00     0.269 C
BRANCH  11  12
HETATM   12  N2  UNL     1      44.007  35.583  35.718  1.00  0.00    -0.075 N
ATOM     13  H23 UNL     1      43.151  35.897  36.174  1.00  0.00     0.274 HD
ATOM     14  H22 UNL     1      44.682  35.905  36.412  1.00  0.00     0.274 HD
ATOM     15  H21 UNL     1      44.144  36.046  34.820  1.00  0.00     0.274 HD
ENDBRANCH  11  12
ENDBRANCH   7  11
TORSDOF 2
ENDMDL