MODEL 1
REMARK VINA RESULT: -5.802707912      0.000      0.000
REMARK  3 active torsions:
REMARK  status: ('A' for Active; 'I' for Inactive)
REMARK    1  A    between atoms: O1_1  and  N1_3
REMARK    2  A    between atoms: C5_8  and  C6_9
REMARK    3  A    between atoms: N2_10  and  O2_12
ROOT
HETATM    1  N1  UNL     1      43.296  32.474  33.595  1.00  0.00    -0.235 N
HETATM    2  C1  UNL     1      43.090  31.700  32.510  1.00  0.00     0.123 A
HETATM    3  C2  UNL     1      42.526  32.214  31.369  1.00  0.00     0.020 A
HETATM    4  C3  UNL     1      42.173  33.536  31.346  1.00  0.00     0.004 A
HETATM    5  C4  UNL     1      42.388  34.341  32.475  1.00  0.00     0.033 A
HETATM    6  C5  UNL     1      42.956  33.779  33.594  1.00  0.00     0.079 A
ENDROOT
BRANCH   6   7
HETATM    7  C6  UNL     1      43.209  34.553  34.801  1.00  0.00     0.145 C
HETATM    8  N2  UNL     1      44.204  35.280  35.036  1.00  0.00    -0.278 N
ATOM      9  H2  UNL     1      44.138  35.713  35.957  1.00  0.00     0.193 HD
BRANCH   8  10
HETATM   10  O2  UNL     1      45.307  35.635  34.420  1.00  0.00    -0.290 OA
ATOM     11  H2  UNL     1      46.188  35.296  34.314  1.00  0.00     0.244 HD
ENDBRANCH   8  10
ENDBRANCH   6   7
BRANCH   1  12
HETATM   12  O1  UNL     1      43.861  31.909  34.707  1.00  0.00    -0.283 OA
ATOM     13  H1  UNL     1      44.698  32.239  35.011  1.00  0.00     0.245 HD
ENDBRANCH   1  12
TORSDOF 3
ENDMDL