MODEL 5
REMARK VINA RESULT: -5.497268912      2.239      3.322
REMARK  4 active torsions:
REMARK  status: ('A' for Active; 'I' for Inactive)
REMARK    1  A    between atoms: O1_1  and  N1_3
REMARK    2  A    between atoms: C5_8  and  C6_9
REMARK    3  A    between atoms: C6_9  and  O2_10
REMARK    4  A    between atoms: C6_9  and  O3_12
ROOT
HETATM    1  N1  UNL     1      43.502  32.359  33.694  1.00  0.00    -0.235 N
HETATM    2  C1  UNL     1      43.042  31.746  32.580  1.00  0.00     0.123 A
HETATM    3  C2  UNL     1      42.457  32.434  31.536  1.00  0.00     0.020 A
HETATM    4  C3  UNL     1      42.335  33.806  31.631  1.00  0.00     0.004 A
HETATM    5  C4  UNL     1      42.806  34.414  32.766  1.00  0.00     0.033 A
HETATM    6  C5  UNL     1      43.385  33.689  33.789  1.00  0.00     0.094 A
ENDROOT
BRANCH   6   7
HETATM    7  C6  UNL     1      43.874  34.439  34.999  1.00  0.00     0.307 C
BRANCH   7   8
HETATM    8  O2  UNL     1      42.797  34.937  35.734  1.00  0.00    -0.366 OA
ATOM      9  H2  UNL     1      43.035  35.035  36.649  1.00  0.00     0.213 HD
ENDBRANCH   7   8
BRANCH   7  10
HETATM   10  O3  UNL     1      44.676  35.510  34.618  1.00  0.00    -0.366 OA
ATOM     11  H3  UNL     1      44.912  35.439  33.701  1.00  0.00     0.213 HD
ENDBRANCH   7  10
ENDBRANCH   6   7
BRANCH   1  12
HETATM   12  O1  UNL     1      44.078  31.653  34.714  1.00  0.00    -0.283 OA
ATOM     13  H1  UNL     1      43.831  31.796  35.620  1.00  0.00     0.245 HD
ENDBRANCH   1  12
TORSDOF 4
ENDMDL