MODEL 5
REMARK VINA RESULT: -5.155024900      2.280      5.080
REMARK  2 active torsions:
REMARK  status: ('A' for Active; 'I' for Inactive)
REMARK    1  A    between atoms: C3_3  and  N1_4
REMARK    2  A    between atoms: N1_4  and  C4_6
ROOT
HETATM    1  C1  UNL     1      40.961  32.361  28.789  1.00  0.00     0.014 C
HETATM    2  C2  UNL     1      41.622  32.383  29.784  1.00  0.00    -0.098 C
HETATM    3  C3  UNL     1      42.413  32.415  31.016  1.00  0.00     0.216 C
ENDROOT
BRANCH   3   4
HETATM    4  N1  UNL     1      42.347  33.759  31.556  1.00  0.00    -0.345 N
ATOM      5  H1  UNL     1      42.168  34.537  30.921  1.00  0.00     0.164 HD
BRANCH   4   6
HETATM    6  C4  UNL     1      42.508  34.002  32.802  1.00  0.00     0.226 A
HETATM    7  N2  UNL     1      41.659  33.720  33.774  1.00  0.00    -0.328 N
HETATM    8  C5  UNL     1      42.202  34.138  34.918  1.00  0.00     0.144 A
ATOM      9  H2  UNL     1      40.752  33.265  33.669  1.00  0.00     0.168 HD
HETATM   10  C6  UNL     1      43.432  34.695  34.617  1.00  0.00     0.176 A
HETATM   11  N3  UNL     1      44.380  35.272  35.485  1.00  0.00    -0.073 NA
HETATM   12  O1  UNL     1      43.559  34.583  33.316  1.00  0.00    -0.263 OA
ENDBRANCH   4   6
ENDBRANCH   3   4
TORSDOF 2
ENDMDL