MODEL 4
REMARK VINA RESULT: -5.337024836      2.571      3.662
REMARK  4 active torsions:
REMARK  status: ('A' for Active; 'I' for Inactive)
REMARK    1  A    between atoms: N1_1  and  N2_4
REMARK    2  A    between atoms: N3_6  and  C1_8
REMARK    3  A    between atoms: C2_9  and  N4_10
REMARK    4  A    between atoms: C5_16  and  O1_17
ROOT
HETATM    1  C1  UNL     1      42.555  34.059  32.969  1.00  0.00     0.167 C
HETATM    2  C2  UNL     1      42.868  33.148  31.812  1.00  0.00     0.233 C
HETATM    3  C3  UNL     1      42.825  31.789  32.401  1.00  0.00     0.006 C
HETATM    4  C4  UNL     1      42.355  31.779  33.625  1.00  0.00     0.005 C
HETATM    5  C5  UNL     1      42.014  33.154  34.027  1.00  0.00     0.167 C
ENDROOT
BRANCH   1   6
HETATM    6  N3  UNL     1      43.645  34.879  33.380  1.00  0.00    -0.313 N
HETATM    7  N2  UNL     1      44.025  34.997  34.544  1.00  0.00    -0.253 N
ATOM      8  H2  UNL     1      44.419  34.080  34.755  1.00  0.00     0.207 HD
ATOM      9  H3  UNL     1      44.143  35.404  32.661  1.00  0.00     0.182 HD
BRANCH   7  10
HETATM   10  N1  UNL     1      44.191  35.630  35.607  1.00  0.00    -0.331 N
ATOM     11  H12 UNL     1      45.198  35.792  35.577  1.00  0.00     0.178 HD
ATOM     12  H11 UNL     1      43.869  36.064  36.472  1.00  0.00     0.178 HD
ENDBRANCH   7  10
ENDBRANCH   1   6
BRANCH   2  13
HETATM   13  N4  UNL     1      41.862  33.256  30.785  1.00  0.00    -0.070 N
ATOM     14  H43 UNL     1      40.934  33.030  31.142  1.00  0.00     0.275 HD
ATOM     15  H42 UNL     1      41.695  34.227  30.522  1.00  0.00     0.275 HD
ATOM     16  H41 UNL     1      42.104  32.683  29.976  1.00  0.00     0.275 HD
ENDBRANCH   2  13
BRANCH   5  17
HETATM   17  O1  UNL     1      40.622  33.284  34.154  1.00  0.00    -0.390 OA
ATOM     18  H1  UNL     1      40.163  32.831  33.456  1.00  0.00     0.210 HD
ENDBRANCH   5  17
TORSDOF 4
ENDMDL