MODEL 4
REMARK VINA RESULT: -4.275586406      2.677      3.790
REMARK  2 active torsions:
REMARK  status: ('A' for Active; 'I' for Inactive)
REMARK    1  A    between atoms: N1_1  and  S1_4
REMARK    2  A    between atoms: S1_4  and  C1_7
ROOT
HETATM    1  S1  UNL     1      42.031  33.911  32.002  1.00  0.00     0.279 S
HETATM    2  O1  UNL     1      42.949  35.113  31.993  1.00  0.00    -0.199 OA
HETATM    3  O2  UNL     1      40.662  34.259  32.485  1.00  0.00    -0.199 OA
ENDROOT
BRANCH   1   4
HETATM    4  N1  UNL     1      41.943  33.307  30.412  1.00  0.00    -0.323 N
ATOM      5  H12 UNL     1      42.343  32.424  30.095  1.00  0.00     0.169 HD
ATOM      6  H11 UNL     1      41.426  33.982  29.849  1.00  0.00     0.169 HD
ENDBRANCH   1   4
BRANCH   1   7
HETATM    7  C1  UNL     1      42.722  32.647  33.024  1.00  0.00     0.189 A
HETATM    8  C2  UNL     1      43.486  32.831  34.172  1.00  0.00     0.053 A
HETATM    9  C3  UNL     1      43.815  31.589  34.652  1.00  0.00     0.028 A
HETATM   10  C4  UNL     1      43.241  30.688  33.779  1.00  0.00     0.143 A
HETATM   11  O3  UNL     1      42.618  31.370  32.852  1.00  0.00    -0.310 OA
ENDBRANCH   1   7
TORSDOF 2
ENDMDL