MODEL 2
REMARK VINA RESULT: -4.352530029      1.500      1.655
REMARK  3 active torsions:
REMARK  status: ('A' for Active; 'I' for Inactive)
REMARK    1  A    between atoms: N1_2  and  C2_4
REMARK    2  A    between atoms: C2_4  and  N2_6
REMARK    3  A    between atoms: N2_6  and  N3_8
ROOT
HETATM    1  N2  UNL     1      43.986  34.918  35.047  1.00  0.00    -0.277 N
ATOM      2  H2  UNL     1      44.956  35.212  34.934  1.00  0.00     0.189 HD
ENDROOT
BRANCH   1   3
HETATM    3  C2  UNL     1      43.495  33.909  34.197  1.00  0.00     0.186 C
HETATM    4  S1  UNL     1      42.685  34.318  32.854  1.00  0.00    -0.040 SA
BRANCH   3   5
HETATM    5  N1  UNL     1      43.699  32.553  34.499  1.00  0.00    -0.370 N
HETATM    6  C1  UNL     1      43.734  31.512  33.507  1.00  0.00     0.148 C
ATOM      7  H1  UNL     1      43.829  32.292  35.477  1.00  0.00     0.161 HD
ENDBRANCH   3   5
ENDBRANCH   1   3
BRANCH   1   8
HETATM    8  N3  UNL     1      43.221  35.539  36.037  1.00  0.00    -0.307 N
HETATM    9  C3  UNL     1      43.527  35.555  37.275  1.00  0.00    -0.004 C
HETATM   10  C4  UNL     1      44.741  34.915  37.850  1.00  0.00     0.064 C
HETATM   11  C5  UNL     1      42.602  36.263  38.205  1.00  0.00     0.064 C
ATOM     12  H3  UNL     1      42.362  36.011  35.752  1.00  0.00     0.186 HD
ENDBRANCH   1   8
TORSDOF 3
ENDMDL