MODEL 5
REMARK VINA RESULT: -4.340869006      1.319      1.352
REMARK  3 active torsions:
REMARK  status: ('A' for Active; 'I' for Inactive)
REMARK    1  A    between atoms: N1_1  and  C1_4
REMARK    2  A    between atoms: C2_7  and  C3_8
REMARK    3  A    between atoms: C3_8  and  N3_9
ROOT
HETATM    1  C1  UNL     1      42.426  32.966  31.802  1.00  0.00     0.142 A
HETATM    2  N2  UNL     1      42.380  33.907  32.748  1.00  0.00    -0.335 N
ATOM      3  H2  UNL     1      42.003  34.832  32.538  1.00  0.00     0.168 HD
HETATM    4  C2  UNL     1      42.825  33.630  33.950  1.00  0.00     0.062 A
HETATM    5  C4  UNL     1      43.318  32.341  34.132  1.00  0.00     0.084 A
HETATM    6  S1  UNL     1      43.110  31.641  32.598  1.00  0.00    -0.064 SA
ENDROOT
BRANCH   4   7
HETATM    7  C3  UNL     1      42.847  34.558  35.113  1.00  0.00     0.197 C
BRANCH   7   8
HETATM    8  N3  UNL     1      43.843  35.165  35.581  1.00  0.00    -0.125 N
HETATM    9  O1  UNL     1      43.938  35.622  36.844  1.00  0.00    -0.532 OA
HETATM   10  O2  UNL     1      44.952  35.393  34.738  1.00  0.00    -0.532 OA
ENDBRANCH   7   8
ENDBRANCH   4   7
BRANCH   1  11
HETATM   11  N1  UNL     1      42.019  33.089  30.549  1.00  0.00    -0.380 N
ATOM     12  H12 UNL     1      42.010  33.907  29.940  1.00  0.00     0.158 HD
ATOM     13  H11 UNL     1      41.632  32.350  29.962  1.00  0.00     0.158 HD
ENDBRANCH   1  11
TORSDOF 3
ENDMDL