MODEL 3
REMARK VINA RESULT: -4.352339525      4.470      5.466
REMARK  2 active torsions:
REMARK  status: ('A' for Active; 'I' for Inactive)
REMARK    1  A    between atoms: N2_5  and  N3_7
REMARK    2  A    between atoms: N3_7  and  C4_9
ROOT
HETATM    1  C1  UNL     1      43.598  35.676  37.233  1.00  0.00     0.082 C
HETATM    2  C2  UNL     1      43.183  35.747  38.658  1.00  0.00     0.101 C
HETATM    3  C3  UNL     1      41.914  36.270  39.047  1.00  0.00     0.114 C
HETATM    4  N1  UNL     1      40.869  36.695  39.348  1.00  0.00    -0.190 NA
HETATM    5  N2  UNL     1      44.005  35.320  39.557  1.00  0.00    -0.293 N
ATOM      6  H2  UNL     1      43.733  35.362  40.540  1.00  0.00     0.187 HD
ENDROOT
BRANCH   5   7
HETATM    7  N3  UNL     1      45.258  34.801  39.220  1.00  0.00    -0.278 N
ATOM      8  H3  UNL     1      45.301  33.918  38.711  1.00  0.00     0.189 HD
BRANCH   7   9
HETATM    9  C4  UNL     1      46.465  35.448  39.555  1.00  0.00     0.199 C
HETATM   10  N4  UNL     1      47.688  34.921  39.103  1.00  0.00    -0.068 NA
HETATM   11  S1  UNL     1      46.447  36.793  40.459  1.00  0.00    -0.043 SA
ENDBRANCH   7   9
ENDBRANCH   5   7
TORSDOF 2
ENDMDL