MODEL 5
REMARK VINA RESULT: -4.774005808      5.629      7.451
REMARK  2 active torsions:
REMARK  status: ('A' for Active; 'I' for Inactive)
REMARK    1  A    between atoms: C3_4  and  C4_5
REMARK    2  A    between atoms: C5_9  and  N3_10
ROOT
HETATM    1  N1  UNL     1      47.449  35.016  38.765  1.00  0.00    -0.191 NA
HETATM    2  C1  UNL     1      46.324  35.325  38.761  1.00  0.00     0.107 C
HETATM    3  C2  UNL     1      44.941  35.707  38.791  1.00  0.00     0.143 A
HETATM    4  C3  UNL     1      44.187  35.796  37.649  1.00  0.00     0.113 A
HETATM    5  N2  UNL     1      42.869  36.162  37.693  1.00  0.00    -0.187 N
ATOM      6  H2  UNL     1      42.319  36.224  36.836  1.00  0.00     0.184 HD
HETATM    7  C5  UNL     1      42.313  36.436  38.879  1.00  0.00     0.679 A
HETATM    8  N4  UNL     1      43.041  36.352  40.000  1.00  0.00    -0.155 N
ATOM      9  H4  UNL     1      42.589  36.567  40.889  1.00  0.00     0.187 HD
HETATM   10  C6  UNL     1      44.325  36.002  40.015  1.00  0.00     0.282 A
HETATM   11  O2  UNL     1      45.031  35.915  41.039  1.00  0.00    -0.266 OA
ENDROOT
BRANCH   4  12
HETATM   12  C4  UNL     1      44.786  35.497  36.349  1.00  0.00     0.290 C
HETATM   13  O1  UNL     1      44.123  35.265  35.336  1.00  0.00    -0.300 OA
ENDBRANCH   4  12
BRANCH   7  14
HETATM   14  N3  UNL     1      41.073  36.781  38.930  1.00  0.00    -0.234 N
ATOM     15  H32 UNL     1      40.808  37.766  38.902  1.00  0.00     0.174 HD
ATOM     16  H31 UNL     1      40.357  36.059  38.999  1.00  0.00     0.174 HD
ENDBRANCH   7  14
TORSDOF 2
ENDMDL