MODEL 4
REMARK VINA RESULT: -4.810926468      5.171      6.929
REMARK  3 active torsions:
REMARK  status: ('A' for Active; 'I' for Inactive)
REMARK    1  A    between atoms: O1_2  and  C2_3
REMARK    2  A    between atoms: C4_7  and  N2_8
REMARK    3  A    between atoms: C5_13  and  N4_14
ROOT
HETATM    1  N4  UNL     1      44.765  35.576  36.376  1.00  0.00    -0.277 N
ATOM      2  H4  UNL     1      45.710  35.944  36.275  1.00  0.00     0.179 HD
HETATM    3  C6  UNL     1      44.129  34.989  35.276  1.00  0.00     0.183 C
HETATM    4  N5  UNL     1      43.585  34.508  34.374  1.00  0.00    -0.172 NA
ENDROOT
BRANCH   1   5
HETATM    5  C5  UNL     1      44.170  35.656  37.510  1.00  0.00     0.165 A
HETATM    6  C2  UNL     1      44.774  35.205  38.662  1.00  0.00     0.129 A
HETATM    7  C3  UNL     1      44.145  35.285  39.897  1.00  0.00     0.146 A
HETATM    8  N1  UNL     1      42.904  35.830  39.926  1.00  0.00    -0.199 N
HETATM    9  C4  UNL     1      42.300  36.275  38.810  1.00  0.00     0.677 A
ATOM     10  H1  UNL     1      42.415  35.903  40.818  1.00  0.00     0.183 HD
HETATM   11  N3  UNL     1      42.941  36.182  37.628  1.00  0.00    -0.173 N
ATOM     12  H3  UNL     1      42.472  36.523  36.789  1.00  0.00     0.186 HD
BRANCH   6  13
HETATM   13  O1  UNL     1      46.032  34.655  38.624  1.00  0.00    -0.351 OA
HETATM   14  C1  UNL     1      47.168  35.363  39.080  1.00  0.00     0.210 C
ENDBRANCH   6  13
BRANCH   9  15
HETATM   15  N2  UNL     1      41.121  36.773  38.958  1.00  0.00    -0.234 N
ATOM     16  H22 UNL     1      40.669  37.387  38.279  1.00  0.00     0.174 HD
ATOM     17  H21 UNL     1      40.627  36.524  39.815  1.00  0.00     0.174 HD
ENDBRANCH   9  15
ENDBRANCH   1   5
TORSDOF 3
ENDMDL