MODEL 1
REMARK VINA RESULT: -4.774388015      0.000      0.000
REMARK  2 active torsions:
REMARK  status: ('A' for Active; 'I' for Inactive)
REMARK       I    between atoms: N1_2  and  C2_4
REMARK    1  A    between atoms: N3_6  and  O1_8
REMARK    2  A    between atoms: O1_8  and  C3_9
ROOT
HETATM    1  C3  UNL     1      44.170  36.232  37.037  1.00  0.00     0.169 C
HETATM    2  C4  UNL     1      42.847  35.844  37.734  1.00  0.00     0.065 C
HETATM    3  C5  UNL     1      44.366  37.714  37.085  1.00  0.00     0.065 C
HETATM    4  C6  UNL     1      45.243  35.544  37.795  1.00  0.00     0.099 C
HETATM    5  N4  UNL     1      46.068  34.996  38.406  1.00  0.00    -0.194 NA
ENDROOT
BRANCH   1   6
HETATM    6  O1  UNL     1      44.140  35.803  35.717  1.00  0.00    -0.252 OA
BRANCH   6   7
HETATM    7  N3  UNL     1      43.715  34.675  35.224  1.00  0.00    -0.237 N
HETATM    8  C2  UNL     1      43.263  34.184  34.179  1.00  0.00     0.207 C
HETATM    9  N1  UNL     1      42.937  32.771  34.209  1.00  0.00    -0.367 N
HETATM   10  N2  UNL     1      43.005  34.790  32.929  1.00  0.00    -0.062 NA
HETATM   11  C1  UNL     1      43.940  31.775  34.540  1.00  0.00     0.148 C
ATOM     12  H1  UNL     1      41.986  32.471  33.993  1.00  0.00     0.161 HD
ATOM     13  H3  UNL     1      43.773  33.950  35.939  1.00  0.00     0.197 HD
ENDBRANCH   6   7
ENDBRANCH   1   6
TORSDOF 2
ENDMDL