MODEL 5
REMARK VINA RESULT: -4.679685571      3.421      5.681
REMARK  1 active torsions:
REMARK  status: ('A' for Active; 'I' for Inactive)
REMARK       I    between atoms: C1_4  and  N3_6
REMARK    1  A    between atoms: N3_6  and  N4_8
ROOT
HETATM    1  N4  UNL     1      44.647  35.717  37.173  1.00  0.00    -0.279 N
ATOM      2  H4  UNL     1      45.588  35.387  37.386  1.00  0.00     0.189 HD
HETATM    3  C2  UNL     1      43.799  35.797  38.132  1.00  0.00     0.157 C
HETATM    4  C3  UNL     1      44.241  35.401  39.495  1.00  0.00     0.253 C
HETATM    5  O1  UNL     1      43.102  35.110  40.227  1.00  0.00    -0.381 OA
HETATM    6  C4  UNL     1      42.371  36.272  40.434  1.00  0.00     0.195 C
HETATM    7  C5  UNL     1      41.954  36.930  39.142  1.00  0.00     0.203 C
HETATM    8  O2  UNL     1      42.487  36.227  38.008  1.00  0.00    -0.334 OA
ENDROOT
BRANCH   1   9
HETATM    9  N3  UNL     1      44.351  36.059  35.855  1.00  0.00    -0.272 N
HETATM   10  C1  UNL     1      44.070  35.087  34.870  1.00  0.00     0.200 C
HETATM   11  N1  UNL     1      44.906  34.926  33.905  1.00  0.00    -0.372 N
HETATM   12  N2  UNL     1      42.906  34.298  34.923  1.00  0.00    -0.062 NA
ATOM     13  H12 UNL     1      44.704  34.223  33.194  1.00  0.00     0.158 HD
ATOM     14  H11 UNL     1      45.750  35.497  33.866  1.00  0.00     0.158 HD
ATOM     15  H3  UNL     1      44.338  37.045  35.592  1.00  0.00     0.189 HD
ENDBRANCH   1   9
TORSDOF 1
ENDMDL