MODEL 1
REMARK VINA RESULT: -5.102659759      0.000      0.000
REMARK  3 active torsions:
REMARK  status: ('A' for Active; 'I' for Inactive)
REMARK    1  A    between atoms: C2_3  and  N3_7
REMARK    2  A    between atoms: N3_7  and  S1_9
REMARK    3  A    between atoms: S1_9  and  N4_10
ROOT
HETATM    1  N1  UNL     1      41.135  32.202  28.858  1.00  0.00    -0.188 NA
HETATM    2  C1  UNL     1      41.703  32.424  29.841  1.00  0.00     0.137 C
HETATM    3  C2  UNL     1      42.402  32.687  31.069  1.00  0.00     0.192 C
HETATM    4  N2  UNL     1      42.555  33.921  31.396  1.00  0.00    -0.376 N
ATOM      5  H21 UNL     1      43.051  34.107  32.268  1.00  0.00     0.158 HD
ATOM      6  H22 UNL     1      42.188  34.658  30.795  1.00  0.00     0.158 HD
ENDROOT
BRANCH   3   7
HETATM    7  N3  UNL     1      42.907  31.675  31.895  1.00  0.00    -0.244 N
ATOM      8  H3  UNL     1      43.075  30.750  31.499  1.00  0.00     0.182 HD
BRANCH   7   9
HETATM    9  S1  UNL     1      43.256  31.950  33.578  1.00  0.00     0.318 S
HETATM   10  O1  UNL     1      43.688  30.707  34.268  1.00  0.00    -0.183 OA
HETATM   11  O2  UNL     1      44.363  32.967  33.721  1.00  0.00    -0.183 OA
BRANCH   9  12
HETATM   12  N4  UNL     1      41.847  32.646  34.298  1.00  0.00    -0.311 N
ATOM     13  H42 UNL     1      41.324  33.441  33.928  1.00  0.00     0.170 HD
ATOM     14  H41 UNL     1      41.642  32.121  35.149  1.00  0.00     0.170 HD
ENDBRANCH   9  12
ENDBRANCH   7   9
ENDBRANCH   3   7
TORSDOF 3
ENDMDL