MODEL 4
REMARK VINA RESULT: -5.344720767      1.411      1.479
REMARK  2 active torsions:
REMARK  status: ('A' for Active; 'I' for Inactive)
REMARK    1  A    between atoms: C2_5  and  N3_6
REMARK    2  A    between atoms: N3_6  and  C3_8
ROOT
HETATM    1  N1  UNL     1      43.669  38.259  37.306  1.00  0.00    -0.172 NA
HETATM    2  C1  UNL     1      44.155  37.213  37.403  1.00  0.00     0.182 C
HETATM    3  N2  UNL     1      44.733  35.962  37.537  1.00  0.00    -0.290 N
ATOM      4  H2  UNL     1      45.223  35.758  38.407  1.00  0.00     0.178 HD
HETATM    5  C2  UNL     1      44.696  35.036  36.639  1.00  0.00     0.192 C
ENDROOT
BRANCH   5   6
HETATM    6  N3  UNL     1      44.033  35.286  35.441  1.00  0.00    -0.338 N
ATOM      7  H3  UNL     1      43.824  36.264  35.242  1.00  0.00     0.168 HD
BRANCH   6   8
HETATM    8  C3  UNL     1      43.657  34.449  34.566  1.00  0.00     0.123 A
HETATM    9  C4  UNL     1      44.135  33.164  34.568  1.00  0.00     0.066 A
HETATM   10  C5  UNL     1      43.703  32.254  33.587  1.00  0.00     0.110 A
HETATM   11  N4  UNL     1      42.820  32.630  32.643  1.00  0.00    -0.202 N
HETATM   12  C6  UNL     1      42.370  33.894  32.668  1.00  0.00     0.677 A
ATOM     13  H4  UNL     1      42.503  31.974  31.929  1.00  0.00     0.183 HD
HETATM   14  N5  UNL     1      41.529  34.248  31.764  1.00  0.00    -0.234 N
HETATM   15  N6  UNL     1      42.782  34.792  33.614  1.00  0.00    -0.177 N
ATOM     16  H52 UNL     1      41.222  33.578  31.058  1.00  0.00     0.174 HD
ATOM     17  H51 UNL     1      41.186  35.208  31.783  1.00  0.00     0.174 HD
ATOM     18  H6  UNL     1      42.413  35.744  33.594  1.00  0.00     0.185 HD
ENDBRANCH   6   8
ENDBRANCH   5   6
TORSDOF 2
ENDMDL