MODEL 3
REMARK VINA RESULT: -4.649485676      4.787      6.897
REMARK  2 active torsions:
REMARK  status: ('A' for Active; 'I' for Inactive)
REMARK    1  A    between atoms: C1_4  and  C2_6
REMARK    2  A    between atoms: N5_13  and  O1_14
ROOT
HETATM    1  C2  UNL     1      43.869  35.668  38.547  1.00  0.00     0.120 A
HETATM    2  C3  UNL     1      44.890  34.962  39.139  1.00  0.00     0.123 A
HETATM    3  N3  UNL     1      44.825  34.541  40.435  1.00  0.00    -0.370 N
ATOM      4  H3  UNL     1      45.585  34.017  40.869  1.00  0.00     0.164 HD
HETATM    5  C4  UNL     1      43.706  34.854  41.108  1.00  0.00     0.135 A
HETATM    6  C5  UNL     1      42.680  35.559  40.526  1.00  0.00     0.160 A
HETATM    7  N4  UNL     1      41.519  35.871  41.262  1.00  0.00    -0.079 NA
HETATM    8  N5  UNL     1      42.759  35.965  39.255  1.00  0.00    -0.205 N
ENDROOT
BRANCH   1   9
HETATM    9  C1  UNL     1      43.911  36.132  37.162  1.00  0.00     0.140 C
HETATM   10  N1  UNL     1      43.803  35.335  36.161  1.00  0.00    -0.386 N
ATOM     11  H12 UNL     1      43.832  35.659  35.195  1.00  0.00     0.157 HD
ATOM     12  H11 UNL     1      43.685  34.336  36.331  1.00  0.00     0.157 HD
HETATM   13  N2  UNL     1      44.078  37.545  36.922  1.00  0.00    -0.081 NA
ENDBRANCH   1   9
BRANCH   8  14
HETATM   14  O1  UNL     1      41.702  36.684  38.677  1.00  0.00    -0.281 OA
ATOM     15  H1  UNL     1      40.953  36.957  39.195  1.00  0.00     0.245 HD
ENDBRANCH   8  14
TORSDOF 2
ENDMDL