MODEL 3
REMARK VINA RESULT: -5.810145703      3.180      4.202
REMARK  2 active torsions:
REMARK  status: ('A' for Active; 'I' for Inactive)
REMARK    1  A    between atoms: C2_3  and  C3_4
REMARK    2  A    between atoms: C6_10  and  N3_11
ROOT
HETATM    1  N1  UNL     1      42.773  28.757  33.626  1.00  0.00    -0.197 NA
HETATM    2  C1  UNL     1      43.197  29.824  33.791  1.00  0.00     0.065 C
HETATM    3  C2  UNL     1      43.745  31.167  33.984  1.00  0.00     0.181 C
ENDROOT
BRANCH   3   4
HETATM    4  C3  UNL     1      43.175  32.038  32.918  1.00  0.00     0.044 A
HETATM    5  C4  UNL     1      43.062  33.387  33.160  1.00  0.00     0.101 A
HETATM    6  C5  UNL     1      42.535  34.198  32.179  1.00  0.00     0.261 A
HETATM    7  O1  UNL     1      42.439  35.441  32.421  1.00  0.00    -0.268 OA
HETATM    8  N2  UNL     1      42.131  33.712  30.998  1.00  0.00    -0.156 N
HETATM    9  C6  UNL     1      42.261  32.376  30.802  1.00  0.00     0.678 A
ATOM     10  H2  UNL     1      41.743  34.320  30.276  1.00  0.00     0.187 HD
HETATM   11  N4  UNL     1      42.771  31.556  31.739  1.00  0.00    -0.195 N
ATOM     12  H4  UNL     1      42.850  30.558  31.547  1.00  0.00     0.184 HD
BRANCH   9  13
HETATM   13  N3  UNL     1      41.875  31.920  29.677  1.00  0.00    -0.234 N
ATOM     14  H32 UNL     1      40.909  32.033  29.371  1.00  0.00     0.174 HD
ATOM     15  H31 UNL     1      42.576  31.443  29.110  1.00  0.00     0.174 HD
ENDBRANCH   9  13
ENDBRANCH   3   4
TORSDOF 2
ENDMDL