MODEL 5
REMARK VINA RESULT: -6.503552651      1.953      4.832
REMARK  4 active torsions:
REMARK  status: ('A' for Active; 'I' for Inactive)
REMARK    1  A    between atoms: N1_1  and  N2_4
REMARK       I    between atoms: N2_4  and  C1_6
REMARK    2  A    between atoms: C1_6  and  C2_8
REMARK    3  A    between atoms: C3_9  and  C4_10
REMARK       I    between atoms: N4_14  and  C6_15
REMARK       I    between atoms: C6_15  and  N5_17
REMARK    4  A    between atoms: N5_17  and  N6_19
ROOT
HETATM    1  C2  UNL     1      29.784  47.563  -5.430  1.00  0.00     0.197 C
HETATM    2  C3  UNL     1      30.402  46.441  -6.227  1.00  0.00     0.125 C
HETATM    3  C5  UNL     1      29.546  45.562  -5.362  1.00  0.00     0.145 C
HETATM    4  N4  UNL     1      29.230  46.656  -4.478  1.00  0.00    -0.318 N
HETATM    5  C6  UNL     1      28.621  46.714  -3.205  1.00  0.00     0.337 C
HETATM    6  O3  UNL     1      28.445  47.831  -2.606  1.00  0.00    -0.245 OA
HETATM    7  N5  UNL     1      28.173  45.556  -2.520  1.00  0.00    -0.258 N
ATOM      8  H5  UNL     1      28.295  44.644  -2.963  1.00  0.00     0.191 HD
ENDROOT
BRANCH   1   9
HETATM    9  C1  UNL     1      30.844  48.474  -4.939  1.00  0.00     0.259 C
HETATM   10  N2  UNL     1      30.476  49.621  -4.212  1.00  0.00    -0.275 N
ATOM     11  H2  UNL     1      29.494  49.823  -4.026  1.00  0.00     0.189 HD
HETATM   12  O1  UNL     1      32.047  48.213  -5.176  1.00  0.00    -0.269 OA
BRANCH  10  13
HETATM   13  N1  UNL     1      31.487  50.488  -3.745  1.00  0.00    -0.343 N
ATOM     14  H12 UNL     1      31.278  51.477  -3.604  1.00  0.00     0.176 HD
ATOM     15  H11 UNL     1      32.415  50.108  -3.555  1.00  0.00     0.176 HD
ENDBRANCH  10  13
ENDBRANCH   1   9
BRANCH   2  16
HETATM   16  C4  UNL     1      30.038  46.508  -7.644  1.00  0.00     0.239 C
HETATM   17  N3  UNL     1      29.312  45.496  -8.319  1.00  0.00    -0.062 NA
HETATM   18  O2  UNL     1      30.370  47.509  -8.341  1.00  0.00    -0.276 OA
ENDBRANCH   2  16
BRANCH   7  19
HETATM   19  N6  UNL     1      27.581  45.617  -1.286  1.00  0.00    -0.341 N
ATOM     20  H62 UNL     1      27.144  44.769  -0.925  1.00  0.00     0.177 HD
ATOM     21  H61 UNL     1      27.567  46.472  -0.730  1.00  0.00     0.177 HD
ENDBRANCH   7  19
TORSDOF 4
ENDMDL