MODEL 4
REMARK VINA RESULT: -7.202517485      2.486      3.921
REMARK  5 active torsions:
REMARK  status: ('A' for Active; 'I' for Inactive)
REMARK       I    between atoms: C2_2  and  N1_4
REMARK    1  A    between atoms: N1_4  and  N2_6
REMARK       I    between atoms: N2_6  and  C3_8
REMARK    2  A    between atoms: C3_8  and  C4_10
REMARK    3  A    between atoms: C4_10  and  N3_11
REMARK    4  A    between atoms: C4_10  and  C5_15
REMARK    5  A    between atoms: N3_11  and  N4_12
REMARK       I    between atoms: C5_15  and  N5_17
ROOT
HETATM    1  C4  UNL     1      29.088  47.511  -4.194  1.00  0.00     0.284 C
ENDROOT
BRANCH   1   2
HETATM    2  C3  UNL     1      29.960  46.505  -4.860  1.00  0.00     0.266 C
HETATM    3  N2  UNL     1      29.373  45.291  -5.292  1.00  0.00    -0.266 N
ATOM      4  H2  UNL     1      28.376  45.140  -5.139  1.00  0.00     0.190 HD
HETATM    5  O2  UNL     1      31.185  46.802  -5.002  1.00  0.00    -0.269 OA
BRANCH   3   6
HETATM    6  N1  UNL     1      30.120  44.296  -5.920  1.00  0.00    -0.268 N
HETATM    7  C2  UNL     1      30.136  44.225  -7.341  1.00  0.00     0.232 C
HETATM    8  C1  UNL     1      30.933  43.166  -7.997  1.00  0.00     0.119 C
HETATM    9  O1  UNL     1      29.494  45.030  -8.071  1.00  0.00    -0.272 OA
ATOM     10  H1  UNL     1      30.650  43.624  -5.366  1.00  0.00     0.190 HD
ENDBRANCH   3   6
ENDBRANCH   1   2
BRANCH   1  11
HETATM   11  N3  UNL     1      29.939  48.536  -3.617  1.00  0.00    -0.124 NA
BRANCH  11  12
HETATM   12  N4  UNL     1      30.300  49.526  -4.494  1.00  0.00    -0.347 N
ATOM     13  H42 UNL     1      30.169  49.430  -5.502  1.00  0.00     0.172 HD
ATOM     14  H41 UNL     1      30.705  50.351  -4.051  1.00  0.00     0.172 HD
ENDBRANCH  11  12
ENDBRANCH   1  11
BRANCH   1  15
HETATM   15  C5  UNL     1      28.477  46.758  -3.018  1.00  0.00     0.254 C
HETATM   16  O3  UNL     1      27.555  45.975  -3.273  1.00  0.00    -0.271 OA
HETATM   17  N5  UNL     1      29.022  47.034  -1.760  1.00  0.00    -0.302 N
HETATM   18  C6  UNL     1      28.936  46.370  -0.685  1.00  0.00     0.203 C
ATOM     19  H5  UNL     1      29.568  47.894  -1.701  1.00  0.00     0.171 HD
HETATM   20  N6  UNL     1      28.203  45.152  -0.650  1.00  0.00    -0.066 NA
HETATM   21  N7  UNL     1      29.587  46.916   0.451  1.00  0.00    -0.066 NA
ENDBRANCH   1  15
TORSDOF 5
ENDMDL