MODEL 2
REMARK VINA RESULT: -7.066209461      2.456      4.036
REMARK  6 active torsions:
REMARK  status: ('A' for Active; 'I' for Inactive)
REMARK       I    between atoms: C1_4  and  N2_5
REMARK       I    between atoms: C1_4  and  N3_9
REMARK    1  A    between atoms: N2_5  and  C2_7
REMARK    2  A    between atoms: N3_9  and  C3_11
REMARK    3  A    between atoms: C3_11  and  C4_17
REMARK    4  A    between atoms: N4_12  and  N5_14
REMARK       I    between atoms: C4_17  and  N6_19
REMARK    5  A    between atoms: C5_21  and  N7_22
REMARK    6  A    between atoms: N7_22  and  N8_24
ROOT
HETATM    1  C3  UNL     1      28.672  47.094  -1.682  1.00  0.00     0.203 C
HETATM    2  N4  UNL     1      29.022  45.869  -1.655  1.00  0.00    -0.287 N
ATOM      3  H4  UNL     1      29.998  45.637  -1.839  1.00  0.00     0.188 HD
ENDROOT
BRANCH   1   4
HETATM    4  N3  UNL     1      27.324  47.441  -1.430  1.00  0.00    -0.170 N
HETATM    5  C1  UNL     1      26.991  48.739  -1.032  1.00  0.00     0.679 C
HETATM    6  N1  UNL     1      27.330  49.138   0.136  1.00  0.00    -0.234 N
HETATM    7  N2  UNL     1      26.287  49.611  -1.891  1.00  0.00    -0.168 N
ATOM      8  H12 UNL     1      27.087  50.085   0.427  1.00  0.00     0.174 HD
ATOM      9  H11 UNL     1      27.838  48.508   0.756  1.00  0.00     0.174 HD
ATOM     10  H2  UNL     1      26.052  50.553  -1.578  1.00  0.00     0.186 HD
ATOM     11  H3  UNL     1      26.591  46.741  -1.540  1.00  0.00     0.186 HD
BRANCH   7  12
HETATM   12  C2  UNL     1      25.910  49.182  -3.177  1.00  0.00     0.368 C
HETATM   13  O1  UNL     1      26.765  48.686  -3.941  1.00  0.00    -0.283 OA
ENDBRANCH   7  12
ENDBRANCH   1   4
BRANCH   1  14
HETATM   14  C4  UNL     1      29.635  48.132  -1.963  1.00  0.00     0.292 C
HETATM   15  O2  UNL     1      30.456  48.598  -1.134  1.00  0.00    -0.264 OA
HETATM   16  N6  UNL     1      29.672  48.683  -3.284  1.00  0.00    -0.315 N
HETATM   17  C5  UNL     1      30.345  48.050  -4.185  1.00  0.00     0.199 C
ATOM     18  H6  UNL     1      29.181  49.549  -3.506  1.00  0.00     0.170 HD
BRANCH  17  19
HETATM   19  N7  UNL     1      30.363  48.623  -5.487  1.00  0.00    -0.303 N
ATOM     20  H7  UNL     1      29.881  48.176  -6.267  1.00  0.00     0.187 HD
BRANCH  19  21
HETATM   21  N8  UNL     1      31.064  49.821  -5.659  1.00  0.00    -0.344 N
ATOM     22  H82 UNL     1      32.037  49.807  -5.964  1.00  0.00     0.176 HD
ATOM     23  H81 UNL     1      30.568  50.691  -5.467  1.00  0.00     0.176 HD
ENDBRANCH  19  21
ENDBRANCH  17  19
ENDBRANCH   1  14
BRANCH   2  24
HETATM   24  N5  UNL     1      28.128  44.832  -1.387  1.00  0.00    -0.343 N
ATOM     25  H52 UNL     1      27.191  44.904  -1.782  1.00  0.00     0.176 HD
ATOM     26  H51 UNL     1      28.376  44.020  -0.821  1.00  0.00     0.176 HD
ENDBRANCH   2  24
TORSDOF 6
ENDMDL