MODEL 2
REMARK VINA RESULT: -7.222660566      1.703      6.519
REMARK  5 active torsions:
REMARK  status: ('A' for Active; 'I' for Inactive)
REMARK    1  A    between atoms: C1_2  and  C2_4
REMARK       I    between atoms: C2_4  and  N2_6
REMARK    2  A    between atoms: N2_6  and  N3_8
REMARK       I    between atoms: N3_8  and  C3_10
REMARK       I    between atoms: C3_10  and  N4_12
REMARK    3  A    between atoms: N4_12  and  C4_14
REMARK    4  A    between atoms: C4_14  and  N5_15
REMARK    5  A    between atoms: C4_14  and  C5_19
ROOT
HETATM    1  N3  UNL     1      27.809  45.770  -3.361  1.00  0.00    -0.249 N
ATOM      2  H3  UNL     1      27.645  44.819  -3.029  1.00  0.00     0.192 HD
HETATM    3  C3  UNL     1      28.584  45.966  -4.526  1.00  0.00     0.336 C
HETATM    4  O3  UNL     1      28.789  47.142  -4.955  1.00  0.00    -0.246 OA
HETATM    5  N4  UNL     1      29.129  44.851  -5.207  1.00  0.00    -0.305 N
ATOM      6  H4  UNL     1      28.942  43.922  -4.830  1.00  0.00     0.166 HD
ENDROOT
BRANCH   1   7
HETATM    7  N2  UNL     1      27.258  46.841  -2.649  1.00  0.00    -0.258 N
HETATM    8  C2  UNL     1      27.881  47.439  -1.521  1.00  0.00     0.325 C
HETATM    9  O2  UNL     1      28.999  47.016  -1.094  1.00  0.00    -0.261 OA
ATOM     10  H2  UNL     1      26.360  47.214  -2.957  1.00  0.00     0.190 HD
BRANCH   8  11
HETATM   11  C1  UNL     1      27.244  48.547  -0.838  1.00  0.00     0.324 C
HETATM   12  N1  UNL     1      26.234  49.286  -1.505  1.00  0.00    -0.053 NA
HETATM   13  O1  UNL     1      27.559  48.873   0.328  1.00  0.00    -0.266 OA
ENDBRANCH   8  11
ENDBRANCH   1   7
BRANCH   5  14
HETATM   14  C4  UNL     1      29.933  44.949  -6.405  1.00  0.00     0.387 C
BRANCH  14  15
HETATM   15  N5  UNL     1      29.219  45.764  -7.360  1.00  0.00    -0.048 N
ATOM     16  H53 UNL     1      29.747  45.918  -8.220  1.00  0.00     0.277 HD
ATOM     17  H52 UNL     1      28.422  45.280  -7.774  1.00  0.00     0.277 HD
ATOM     18  H51 UNL     1      28.956  46.636  -6.900  1.00  0.00     0.277 HD
ENDBRANCH  14  15
BRANCH  14  19
HETATM   19  C5  UNL     1      30.142  43.618  -7.026  1.00  0.00     0.225 C
HETATM   20  O4  UNL     1      29.259  42.752  -6.879  1.00  0.00    -0.645 OA
HETATM   21  O5  UNL     1      31.301  43.401  -7.733  1.00  0.00    -0.645 OA
ENDBRANCH  14  19
ENDBRANCH   5  14
TORSDOF 5
ENDMDL