MODEL 4
REMARK VINA RESULT: -7.135948458      3.387      4.460
REMARK  4 active torsions:
REMARK  status: ('A' for Active; 'I' for Inactive)
REMARK    1  A    between atoms: N2_4  and  N3_6
REMARK       I    between atoms: N3_6  and  C1_8
REMARK    2  A    between atoms: N5_10  and  N6_12
REMARK       I    between atoms: N6_12  and  C2_14
REMARK       I    between atoms: C2_14  and  N8_18
REMARK       I    between atoms: N8_18  and  C3_20
REMARK    3  A    between atoms: C3_20  and  O2_22
REMARK    4  A    between atoms: O2_22  and  C4_23
ROOT
HETATM    1  N6  UNL     1      29.378  47.365  -3.534  1.00  0.00    -0.130 N
ATOM      2  H6  UNL     1      30.020  48.087  -3.859  1.00  0.00     0.205 HD
HETATM    3  C2  UNL     1      28.295  46.973  -4.352  1.00  0.00     0.695 C
HETATM    4  N7  UNL     1      27.142  47.529  -4.149  1.00  0.00    -0.233 N
ATOM      5  H71 UNL     1      26.360  47.246  -4.740  1.00  0.00     0.174 HD
ATOM      6  H72 UNL     1      26.989  48.234  -3.428  1.00  0.00     0.174 HD
HETATM    7  N8  UNL     1      28.508  45.998  -5.350  1.00  0.00    -0.134 N
ATOM      8  H8  UNL     1      27.732  45.708  -5.947  1.00  0.00     0.189 HD
HETATM    9  C3  UNL     1      29.775  45.425  -5.529  1.00  0.00     0.387 C
HETATM   10  O1  UNL     1      30.790  45.716  -4.847  1.00  0.00    -0.237 OA
ENDROOT
BRANCH   1  11
HETATM   11  N5  UNL     1      29.578  46.779  -2.295  1.00  0.00    -0.258 N
HETATM   12  C1  UNL     1      29.219  47.414  -1.212  1.00  0.00     0.223 C
HETATM   13  N3  UNL     1      28.625  48.704  -1.283  1.00  0.00    -0.258 N
HETATM   14  N4  UNL     1      29.425  46.813   0.046  1.00  0.00    -0.061 NA
ATOM     15  H3  UNL     1      29.024  49.420  -1.890  1.00  0.00     0.191 HD
ATOM     16  H5  UNL     1      30.004  45.854  -2.228  1.00  0.00     0.190 HD
BRANCH  13  17
HETATM   17  N2  UNL     1      27.504  48.981  -0.524  1.00  0.00    -0.247 N
HETATM   18  N1  UNL     1      26.519  49.586  -1.030  1.00  0.00    -0.331 N
ATOM     19  H12 UNL     1      26.567  49.867  -2.009  1.00  0.00     0.178 HD
ATOM     20  H11 UNL     1      25.692  49.791  -0.470  1.00  0.00     0.178 HD
ATOM     21  H2  UNL     1      27.472  48.693   0.454  1.00  0.00     0.207 HD
ENDBRANCH  13  17
ENDBRANCH   1  11
BRANCH   9  22
HETATM   22  O2  UNL     1      29.948  44.471  -6.520  1.00  0.00    -0.211 OA
BRANCH  22  23
HETATM   23  C4  UNL     1      30.150  44.816  -7.857  1.00  0.00     0.381 C
HETATM   24  N9  UNL     1      31.283  44.319  -8.561  1.00  0.00    -0.032 NA
HETATM   25  O3  UNL     1      29.311  45.569  -8.417  1.00  0.00    -0.242 OA
ENDBRANCH  22  23
ENDBRANCH   9  22
TORSDOF 4
ENDMDL