MODEL 5
REMARK VINA RESULT: -6.676998989      2.287      3.700
REMARK  3 active torsions:
REMARK  status: ('A' for Active; 'I' for Inactive)
REMARK    1  A    between atoms: N1_1  and  N2_4
REMARK       I    between atoms: N2_4  and  C1_6
REMARK       I    between atoms: C1_6  and  N3_8
REMARK       I    between atoms: C2_10  and  N4_11
REMARK       I    between atoms: C2_10  and  N8_18
REMARK    2  A    between atoms: N4_11  and  N5_13
REMARK    3  A    between atoms: N8_18  and  N9_20
ROOT
HETATM    1  N2  UNL     1      30.746  49.433  -5.477  1.00  0.00    -0.258 N
ATOM      2  H2  UNL     1      29.781  49.689  -5.684  1.00  0.00     0.191 HD
HETATM    3  C1  UNL     1      31.102  49.024  -4.176  1.00  0.00     0.352 C
HETATM    4  O1  UNL     1      32.327  48.716  -3.973  1.00  0.00    -0.245 OA
HETATM    5  N3  UNL     1      30.157  48.947  -3.106  1.00  0.00    -0.137 N
ATOM      6  H3  UNL     1      29.713  49.789  -2.738  1.00  0.00     0.189 HD
HETATM    7  C2  UNL     1      29.884  47.801  -2.623  1.00  0.00     0.720 C
HETATM    8  N4  UNL     1      30.516  46.654  -3.151  1.00  0.00    -0.128 N
ATOM      9  H4  UNL     1      31.115  46.069  -2.569  1.00  0.00     0.205 HD
HETATM   10  N8  UNL     1      28.949  47.703  -1.562  1.00  0.00    -0.070 N
ATOM     11  H8  UNL     1      28.267  48.445  -1.404  1.00  0.00     0.212 HD
ENDROOT
BRANCH   8  12
HETATM   12  N5  UNL     1      30.296  46.343  -4.497  1.00  0.00    -0.262 N
HETATM   13  C3  UNL     1      29.139  46.021  -4.958  1.00  0.00     0.216 C
HETATM   14  N6  UNL     1      28.029  45.973  -4.084  1.00  0.00    -0.065 NA
HETATM   15  N7  UNL     1      28.956  45.714  -6.324  1.00  0.00    -0.065 NA
ATOM     16  H5  UNL     1      31.087  46.373  -5.140  1.00  0.00     0.190 HD
ENDBRANCH   8  12
BRANCH  10  17
HETATM   17  N9  UNL     1      28.971  46.577  -0.734  1.00  0.00    -0.024 N
HETATM   18  O2  UNL     1      28.442  45.513  -1.116  1.00  0.00    -0.516 OA
HETATM   19  O3  UNL     1      29.576  46.625   0.512  1.00  0.00    -0.516 OA
ENDBRANCH  10  17
BRANCH   1  20
HETATM   20  N1  UNL     1      31.707  49.488  -6.476  1.00  0.00    -0.341 N
ATOM     21  H12 UNL     1      32.536  48.898  -6.397  1.00  0.00     0.177 HD
ATOM     22  H11 UNL     1      31.580  50.111  -7.274  1.00  0.00     0.177 HD
ENDBRANCH   1  20
TORSDOF 3
ENDMDL