MODEL 3
REMARK VINA RESULT: -7.040778073      1.766      1.985
REMARK  5 active torsions:
REMARK  status: ('A' for Active; 'I' for Inactive)
REMARK    1  A    between atoms: C1_4  and  N2_5
REMARK    2  A    between atoms: C1_4  and  C5_17
REMARK    3  A    between atoms: N2_5  and  N3_7
REMARK       I    between atoms: N3_7  and  C2_8
REMARK    4  A    between atoms: C2_8  and  C3_10
REMARK    5  A    between atoms: N4_11  and  N5_13
REMARK       I    between atoms: N5_13  and  C4_14
ROOT
HETATM    1  N3  UNL     1      29.537  46.693  -1.962  1.00  0.00    -0.279 NA
HETATM    2  C2  UNL     1      28.974  46.496  -0.627  1.00  0.00     0.353 C
HETATM    3  O1  UNL     1      29.487  46.833   0.411  1.00  0.00    -0.248 OA
ENDROOT
BRANCH   1   4
HETATM    4  N2  UNL     1      30.123  46.924  -3.033  1.00  0.00    -0.211 N
ATOM      5  H2  UNL     1      31.031  47.370  -2.900  1.00  0.00     0.204 HD
BRANCH   4   6
HETATM    6  C1  UNL     1      29.805  46.702  -4.431  1.00  0.00     0.190 C
HETATM    7  N1  UNL     1      29.240  45.591  -4.824  1.00  0.00    -0.380 N
ATOM      8  H12 UNL     1      28.996  44.903  -4.112  1.00  0.00     0.158 HD
ATOM      9  H11 UNL     1      29.016  45.435  -5.807  1.00  0.00     0.158 HD
BRANCH   6  10
HETATM   10  C5  UNL     1      30.151  47.684  -5.444  1.00  0.00     0.300 C
HETATM   11  N8  UNL     1      30.504  49.039  -5.071  1.00  0.00    -0.054 NA
HETATM   12  O2  UNL     1      30.162  47.408  -6.657  1.00  0.00    -0.268 OA
ENDBRANCH   6  10
ENDBRANCH   4   6
ENDBRANCH   1   4
BRANCH   2  13
HETATM   13  C3  UNL     1      27.659  45.829  -0.573  1.00  0.00     0.212 C
HETATM   14  N4  UNL     1      26.623  46.417  -1.016  1.00  0.00    -0.238 N
ATOM     15  H4  UNL     1      25.769  45.867  -0.925  1.00  0.00     0.201 HD
BRANCH  14  16
HETATM   16  N5  UNL     1      26.442  47.562  -1.555  1.00  0.00    -0.295 NA
HETATM   17  C4  UNL     1      26.418  48.528  -2.274  1.00  0.00     0.298 C
HETATM   18  N6  UNL     1      25.735  49.725  -1.812  1.00  0.00    -0.051 NA
HETATM   19  N7  UNL     1      27.088  48.645  -3.548  1.00  0.00    -0.051 NA
ENDBRANCH  14  16
ENDBRANCH   2  13
TORSDOF 5
ENDMDL