MODEL 5
REMARK VINA RESULT: -6.444092709      2.090      2.533
REMARK  4 active torsions:
REMARK  status: ('A' for Active; 'I' for Inactive)
REMARK       I    between atoms: N1_2  and  C2_4
REMARK       I    between atoms: C2_4  and  N2_6
REMARK    1  A    between atoms: N2_6  and  N3_8
REMARK       I    between atoms: N3_8  and  C3_10
REMARK    2  A    between atoms: C3_10  and  C4_12
REMARK    3  A    between atoms: C4_12  and  N4_13
REMARK       I    between atoms: N4_13  and  C5_15
REMARK    4  A    between atoms: C5_15  and  C6_17
ROOT
HETATM    1  N3  UNL     1      31.057  49.838  -3.496  1.00  0.00    -0.265 N
ATOM      2  H3  UNL     1      30.090  49.873  -3.815  1.00  0.00     0.190 HD
HETATM    3  C3  UNL     1      31.653  48.592  -3.222  1.00  0.00     0.253 C
HETATM    4  O2  UNL     1      32.839  48.531  -2.831  1.00  0.00    -0.270 OA
ENDROOT
BRANCH   3   5
HETATM    5  C4  UNL     1      30.874  47.364  -3.399  1.00  0.00     0.227 C
BRANCH   5   6
HETATM    6  N4  UNL     1      30.266  46.852  -2.197  1.00  0.00    -0.344 N
HETATM    7  C5  UNL     1      29.059  47.320  -1.625  1.00  0.00     0.307 C
HETATM    8  O3  UNL     1      28.465  48.259  -2.203  1.00  0.00    -0.263 OA
ATOM      9  H4  UNL     1      30.746  46.089  -1.718  1.00  0.00     0.163 HD
BRANCH   7  10
HETATM   10  C6  UNL     1      28.487  46.768  -0.418  1.00  0.00     0.322 C
HETATM   11  N5  UNL     1      28.238  45.376  -0.316  1.00  0.00    -0.053 NA
HETATM   12  O4  UNL     1      28.191  47.484   0.573  1.00  0.00    -0.266 OA
ENDBRANCH   7  10
ENDBRANCH   5   6
ENDBRANCH   3   5
BRANCH   1  13
HETATM   13  N2  UNL     1      31.772  51.024  -3.338  1.00  0.00    -0.249 N
HETATM   14  C2  UNL     1      31.562  52.098  -4.241  1.00  0.00     0.334 C
HETATM   15  N1  UNL     1      32.257  53.334  -4.136  1.00  0.00    -0.346 N
HETATM   16  O1  UNL     1      30.734  51.976  -5.180  1.00  0.00    -0.246 OA
HETATM   17  C1  UNL     1      32.037  54.418  -5.058  1.00  0.00     0.151 C
ATOM     18  H1  UNL     1      32.934  53.457  -3.383  1.00  0.00     0.163 HD
ATOM     19  H2  UNL     1      32.443  51.119  -2.576  1.00  0.00     0.192 HD
ENDBRANCH   1  13
TORSDOF 4
ENDMDL