MODEL 4
REMARK VINA RESULT: -5.994653005      3.648      5.048
REMARK  8 active torsions:
REMARK  status: ('A' for Active; 'I' for Inactive)
REMARK    1  A    between atoms: C1_2  and  O1_3
REMARK    2  A    between atoms: C1_2  and  N2_5
REMARK    3  A    between atoms: N2_5  and  N3_6
REMARK    4  A    between atoms: N3_6  and  C2_8
REMARK    5  A    between atoms: C2_8  and  N4_10
REMARK    6  A    between atoms: N4_10  and  N5_12
REMARK    7  A    between atoms: N5_12  and  S2_14
REMARK    8  A    between atoms: S2_14  and  N6_15
ROOT
HETATM    1  N4  UNL     1      28.918  45.188  -4.981  1.00  0.00    -0.264 N
ATOM      2  H4  UNL     1      28.121  44.553  -5.042  1.00  0.00     0.190 HD
ENDROOT
BRANCH   1   3
HETATM    3  C2  UNL     1      28.783  46.440  -4.291  1.00  0.00     0.216 C
HETATM    4  S1  UNL     1      29.822  47.633  -4.673  1.00  0.00    -0.037 SA
BRANCH   3   5
HETATM    5  N3  UNL     1      27.807  46.653  -3.283  1.00  0.00    -0.204 N
ATOM      6  H3  UNL     1      26.879  46.993  -3.536  1.00  0.00     0.204 HD
BRANCH   5   7
HETATM    7  N2  UNL     1      28.120  46.396  -1.928  1.00  0.00    -0.281 NA
BRANCH   7   8
HETATM    8  C1  UNL     1      28.405  46.137  -0.673  1.00  0.00     0.327 C
HETATM    9  N1  UNL     1      29.322  46.757   0.212  1.00  0.00    -0.040 NA
BRANCH   8  10
HETATM   10  O1  UNL     1      27.760  45.121  -0.096  1.00  0.00    -0.323 OA
ATOM     11  H1  UNL     1      27.054  44.792  -0.639  1.00  0.00     0.221 HD
ENDBRANCH   8  10
ENDBRANCH   7   8
ENDBRANCH   5   7
ENDBRANCH   3   5
ENDBRANCH   1   3
BRANCH   1  12
HETATM   12  N5  UNL     1      30.122  44.839  -5.564  1.00  0.00    -0.208 N
ATOM     13  H5  UNL     1      31.027  45.156  -5.213  1.00  0.00     0.201 HD
BRANCH  12  14
HETATM   14  S2  UNL     1      29.949  43.826  -6.925  1.00  0.00     0.330 S
HETATM   15  O2  UNL     1      31.246  43.331  -7.434  1.00  0.00    -0.181 OA
HETATM   16  O3  UNL     1      29.144  44.581  -7.980  1.00  0.00    -0.181 OA
BRANCH  14  17
HETATM   17  N6  UNL     1      29.022  42.420  -6.434  1.00  0.00    -0.310 N
ATOM     18  H62 UNL     1      29.047  41.992  -5.508  1.00  0.00     0.170 HD
ATOM     19  H61 UNL     1      28.466  42.118  -7.233  1.00  0.00     0.170 HD
ENDBRANCH  14  17
ENDBRANCH  12  14
ENDBRANCH   1  12
TORSDOF 8
ENDMDL