MODEL 3
REMARK VINA RESULT: -6.563908586      2.192      2.453
REMARK  5 active torsions:
REMARK  status: ('A' for Active; 'I' for Inactive)
REMARK    1  A    between atoms: C1_2  and  N2_4
REMARK    2  A    between atoms: N2_4  and  N3_6
REMARK    3  A    between atoms: C2_8  and  N4_9
REMARK    4  A    between atoms: C2_8  and  C4_16
REMARK    5  A    between atoms: N4_9  and  N5_11
ROOT
HETATM    1  N3  UNL     1      29.772  46.808  -2.339  1.00  0.00    -0.277 N
ATOM      2  H3  UNL     1      30.078  45.837  -2.272  1.00  0.00     0.189 HD
HETATM    3  C2  UNL     1      29.111  47.378  -1.374  1.00  0.00     0.213 C
ENDROOT
BRANCH   3   4
HETATM    4  N4  UNL     1      28.687  48.741  -1.482  1.00  0.00    -0.277 N
ATOM      5  H4  UNL     1      29.368  49.494  -1.587  1.00  0.00     0.189 HD
BRANCH   4   6
HETATM    6  N5  UNL     1      27.328  49.013  -1.441  1.00  0.00    -0.274 N
HETATM    7  C3  UNL     1      26.592  48.910  -2.490  1.00  0.00     0.215 C
HETATM    8  N6  UNL     1      25.200  49.199  -2.398  1.00  0.00    -0.065 NA
HETATM    9  N7  UNL     1      27.196  48.509  -3.704  1.00  0.00    -0.065 NA
ATOM     10  H5  UNL     1      26.902  49.301  -0.559  1.00  0.00     0.189 HD
ENDBRANCH   4   6
ENDBRANCH   3   4
BRANCH   3  11
HETATM   11  C4  UNL     1      28.808  46.612  -0.184  1.00  0.00     0.247 C
HETATM   12  O1  UNL     1      29.685  46.428   0.679  1.00  0.00    -0.642 OA
HETATM   13  O2  UNL     1      27.548  46.088  -0.008  1.00  0.00    -0.642 OA
ENDBRANCH   3  11
BRANCH   1  14
HETATM   14  N2  UNL     1      30.045  47.577  -3.467  1.00  0.00    -0.277 N
ATOM     15  H2  UNL     1      29.323  47.688  -4.179  1.00  0.00     0.189 HD
BRANCH  14  16
HETATM   16  C1  UNL     1      31.297  48.208  -3.654  1.00  0.00     0.199 C
HETATM   17  N1  UNL     1      31.730  49.170  -2.716  1.00  0.00    -0.068 NA
HETATM   18  S1  UNL     1      32.250  47.858  -4.917  1.00  0.00    -0.043 SA
ENDBRANCH  14  16
ENDBRANCH   1  14
TORSDOF 5
ENDMDL