MODEL 3
REMARK VINA RESULT: -7.835094082      4.608     11.454
REMARK  15 active torsions:
REMARK  status: ('A' for Active; 'I' for Inactive)
REMARK    1  A    between atoms: C1_4  and  O1_5
REMARK    2  A    between atoms: C1_4  and  C2_7
REMARK    3  A    between atoms: C3_10  and  O2_11
REMARK    4  A    between atoms: C3_10  and  C4_13
REMARK    5  A    between atoms: C4_13  and  O3_14
REMARK    6  A    between atoms: C4_13  and  N4_16
REMARK    7  A    between atoms: C7_19  and  N5_20
REMARK       I    between atoms: N5_20  and  C8_22
REMARK    8  A    between atoms: C8_22  and  C9_24
REMARK    9  A    between atoms: C12_27  and  C13_28
REMARK   10  A    between atoms: N6_29  and  O5_31
REMARK   11  A    between atoms: C18_37  and  C19_38
REMARK   12  A    between atoms: C19_38  and  O7_40
REMARK   13  A    between atoms: O7_40  and  C20_41
REMARK   14  A    between atoms: C20_41  and  C21_42
REMARK   15  A    between atoms: C22_45  and  O10_46
ROOT
HETATM    1  C2  UNL     1      40.394  19.843 -31.421  1.00  0.00     0.239 C
HETATM    2  N2  UNL     1      41.539  19.395 -32.228  1.00  0.00    -0.139 NA
HETATM    3  N3  UNL     1      42.503  20.367 -32.215  1.00  0.00    -0.162 NA
HETATM    4  C3  UNL     1      43.063  20.841 -33.477  1.00  0.00     0.231 A
HETATM    5  C18 UNL     1      42.104  21.663 -32.703  1.00  0.00     0.207 A
HETATM    6  C22 UNL     1      40.654  21.645 -33.167  1.00  0.00     0.229 C
HETATM    7  C23 UNL     1      39.809  21.001 -32.104  1.00  0.00     0.186 C
HETATM    8  O11 UNL     1      38.729  21.457 -31.873  1.00  0.00    -0.293 OA
ENDROOT
BRANCH   4   9
HETATM    9  O2  UNL     1      42.498  20.182 -34.566  1.00  0.00    -0.365 OA
ATOM     10  H2  UNL     1      43.058  20.230 -35.331  1.00  0.00     0.212 HD
ENDBRANCH   4   9
BRANCH   4  11
HETATM   11  C4  UNL     1      44.482  21.155 -33.515  1.00  0.00     0.177 C
BRANCH  11  12
HETATM   12  O3  UNL     1      45.061  20.941 -34.665  1.00  0.00    -0.346 OA
ATOM     13  H3  UNL     1      45.632  20.182 -34.690  1.00  0.00     0.219 HD
ENDBRANCH  11  12
BRANCH  11  14
HETATM   14  N4  UNL     1      45.292  21.652 -32.483  1.00  0.00    -0.313 N
HETATM   15  C5  UNL     1      45.799  22.929 -32.608  1.00  0.00     0.100 A
HETATM   16  C6  UNL     1      46.599  23.482 -31.662  1.00  0.00     0.047 A
HETATM   17  C7  UNL     1      46.966  22.800 -30.499  1.00  0.00     0.037 A
HETATM   18  C16 UNL     1      46.464  21.543 -30.380  1.00  0.00     0.047 A
HETATM   19  C17 UNL     1      45.642  21.002 -31.374  1.00  0.00     0.100 A
BRANCH  17  20
HETATM   20  N5  UNL     1      47.801  23.420 -29.543  1.00  0.00    -0.323 N
HETATM   21  C8  UNL     1      47.462  23.920 -28.276  1.00  0.00     0.256 C
HETATM   22  O4  UNL     1      46.319  23.878 -27.806  1.00  0.00    -0.267 OA
ATOM     23  H5  UNL     1      48.781  23.516 -29.809  1.00  0.00     0.169 HD
BRANCH  21  24
HETATM   24  C9  UNL     1      48.480  24.540 -27.409  1.00  0.00     0.032 A
HETATM   25  C10 UNL     1      48.779  25.880 -27.575  1.00  0.00     0.018 A
HETATM   26  C11 UNL     1      49.727  26.508 -26.788  1.00  0.00     0.014 A
HETATM   27  C12 UNL     1      50.415  25.828 -25.804  1.00  0.00    -0.019 A
HETATM   28  C14 UNL     1      50.122  24.503 -25.638  1.00  0.00     0.014 A
HETATM   29  C15 UNL     1      49.170  23.870 -26.429  1.00  0.00     0.018 A
BRANCH  27  30
HETATM   30  C13 UNL     1      51.403  26.526 -24.996  1.00  0.00     0.125 C
HETATM   31  N6  UNL     1      51.200  27.737 -24.637  1.00  0.00    -0.280 N
ATOM     32  H6  UNL     1      50.343  28.213 -24.918  1.00  0.00     0.193 HD
BRANCH  31  33
HETATM   33  O5  UNL     1      52.132  28.397 -23.874  1.00  0.00    -0.290 OA
ATOM     34  H5  UNL     1      52.631  27.928 -23.216  1.00  0.00     0.244 HD
ENDBRANCH  31  33
ENDBRANCH  27  30
ENDBRANCH  21  24
ENDBRANCH  17  20
ENDBRANCH  11  14
ENDBRANCH   4  11
BRANCH   5  35
HETATM   35  C19 UNL     1      42.480  22.778 -31.821  1.00  0.00     0.292 C
HETATM   36  O6  UNL     1      42.559  23.958 -32.316  1.00  0.00    -0.263 OA
BRANCH  35  37
HETATM   37  O7  UNL     1      42.759  22.675 -30.485  1.00  0.00    -0.309 OA
BRANCH  37  38
HETATM   38  C20 UNL     1      43.196  23.756 -29.686  1.00  0.00     0.291 C
BRANCH  38  39
HETATM   39  C21 UNL     1      42.707  23.623 -28.287  1.00  0.00     0.198 C
HETATM   40  O8  UNL     1      43.149  24.327 -27.350  1.00  0.00    -0.646 OA
HETATM   41  O9  UNL     1      41.721  22.674 -28.033  1.00  0.00    -0.646 OA
ENDBRANCH  38  39
ENDBRANCH  37  38
ENDBRANCH  35  37
ENDBRANCH   5  35
BRANCH   6  42
HETATM   42  O10 UNL     1      40.241  22.969 -33.262  1.00  0.00    -0.385 OA
ATOM     43  H10 UNL     1      39.763  23.053 -34.079  1.00  0.00     0.210 HD
ENDBRANCH   6  42
BRANCH   1  44
HETATM   44  C1  UNL     1      39.499  18.736 -31.105  1.00  0.00     0.137 C
HETATM   45  N1  UNL     1      38.532  18.823 -30.300  1.00  0.00    -0.382 N
ATOM     46  H12 UNL     1      37.906  18.048 -30.079  1.00  0.00     0.158 HD
ATOM     47  H11 UNL     1      38.365  19.718 -29.842  1.00  0.00     0.158 HD
BRANCH  44  48
HETATM   48  O1  UNL     1      39.728  17.512 -31.730  1.00  0.00    -0.348 OA
ATOM     49  H1  UNL     1      39.179  17.276 -32.469  1.00  0.00     0.219 HD
ENDBRANCH  44  48
ENDBRANCH   1  44
TORSDOF 15
ENDMDL