MODEL 2
REMARK VINA RESULT: -7.929143037      2.122      4.464
REMARK  16 active torsions:
REMARK  status: ('A' for Active; 'I' for Inactive)
REMARK    1  A    between atoms: C2_2  and  C3_3
REMARK    2  A    between atoms: C2_2  and  C10_14
REMARK    3  A    between atoms: C3_3  and  C4_4
REMARK    4  A    between atoms: C7_7  and  O1_8
REMARK    5  A    between atoms: C8_10  and  O2_11
REMARK    6  A    between atoms: C10_14  and  O3_15
REMARK    7  A    between atoms: C10_14  and  N1_17
REMARK    8  A    between atoms: N1_17  and  C11_20
REMARK    9  A    between atoms: C12_22  and  O5_23
REMARK   10  A    between atoms: C12_22  and  C13_25
REMARK   11  A    between atoms: C13_25  and  O7_27
REMARK   12  A    between atoms: O7_27  and  C14_28
REMARK   13  A    between atoms: C14_28  and  N3_31
REMARK   14  A    between atoms: C14_28  and  C16_35
REMARK   15  A    between atoms: N3_31  and  N4_32
REMARK       I    between atoms: C16_35  and  N5_37
REMARK   16  A    between atoms: N5_37  and  C17_39
ROOT
HETATM    1  C14 UNL     1      43.663  21.434 -34.088  1.00  0.00     0.329 C
HETATM    2  C15 UNL     1      43.313  20.196 -33.363  1.00  0.00     0.129 C
HETATM    3  N2  UNL     1      43.016  19.228 -32.782  1.00  0.00    -0.192 NA
ENDROOT
BRANCH   1   4
HETATM    4  O7  UNL     1      44.792  21.996 -33.448  1.00  0.00    -0.264 OA
BRANCH   4   5
HETATM    5  C13 UNL     1      44.836  23.372 -33.148  1.00  0.00     0.329 C
HETATM    6  O6  UNL     1      45.358  24.105 -34.024  1.00  0.00    -0.258 OA
BRANCH   5   7
HETATM    7  C12 UNL     1      44.282  23.874 -31.867  1.00  0.00     0.275 C
HETATM    8  O4  UNL     1      43.915  22.930 -30.970  1.00  0.00    -0.304 OA
HETATM    9  C11 UNL     1      44.943  22.206 -30.404  1.00  0.00     0.402 C
HETATM   10  C22 UNL     1      46.240  22.910 -30.342  1.00  0.00     0.205 C
HETATM   11  C21 UNL     1      46.266  24.341 -30.591  1.00  0.00     0.057 C
HETATM   12  O9  UNL     1      47.322  22.316 -30.081  1.00  0.00    -0.288 OA
HETATM   13  C20 UNL     1      45.313  24.844 -31.339  1.00  0.00     0.056 C
BRANCH   9  14
HETATM   14  N1  UNL     1      44.644  21.792 -29.045  1.00  0.00    -0.011 N
ATOM     15  H12 UNL     1      43.976  22.430 -28.613  1.00  0.00     0.284 HD
ATOM     16  H11 UNL     1      45.447  21.948 -28.437  1.00  0.00     0.284 HD
BRANCH  14  17
HETATM   17  C10 UNL     1      44.190  20.443 -28.941  1.00  0.00     0.352 C
BRANCH  17  18
HETATM   18  C2  UNL     1      42.974  20.460 -28.046  1.00  0.00    -0.030 C
HETATM   19  C1  UNL     1      42.656  19.413 -27.318  1.00  0.00     0.019 C
BRANCH  18  20
HETATM   20  C3  UNL     1      42.129  21.673 -28.015  1.00  0.00     0.076 C
BRANCH  20  21
HETATM   21  C4  UNL     1      41.145  21.618 -29.148  1.00  0.00    -0.051 A
HETATM   22  C5  UNL     1      40.158  20.642 -29.099  1.00  0.00     0.010 A
HETATM   23  C6  UNL     1      39.231  20.537 -30.093  1.00  0.00     0.040 A
HETATM   24  C7  UNL     1      39.308  21.424 -31.138  1.00  0.00     0.098 A
HETATM   25  C8  UNL     1      40.275  22.397 -31.205  1.00  0.00     0.099 A
HETATM   26  C9  UNL     1      41.214  22.497 -30.189  1.00  0.00     0.046 A
BRANCH  24  27
HETATM   27  O1  UNL     1      38.380  21.357 -32.187  1.00  0.00    -0.358 OA
ATOM     28  H1  UNL     1      37.700  22.016 -32.266  1.00  0.00     0.217 HD
ENDBRANCH  24  27
BRANCH  25  29
HETATM   29  O2  UNL     1      40.346  23.287 -32.265  1.00  0.00    -0.358 OA
ATOM     30  H2  UNL     1      39.600  23.812 -32.530  1.00  0.00     0.217 HD
ENDBRANCH  25  29
ENDBRANCH  20  21
ENDBRANCH  18  20
ENDBRANCH  17  18
BRANCH  17  31
HETATM   31  O3  UNL     1      43.806  19.929 -30.179  1.00  0.00    -0.366 OA
ATOM     32  H3  UNL     1      44.327  20.356 -30.848  1.00  0.00     0.212 HD
ENDBRANCH  17  31
ENDBRANCH  14  17
ENDBRANCH   9  14
BRANCH   7  33
HETATM   33  O5  UNL     1      43.135  24.647 -32.207  1.00  0.00    -0.354 OA
ATOM     34  H5  UNL     1      43.063  24.681 -33.153  1.00  0.00     0.214 HD
ENDBRANCH   7  33
ENDBRANCH   5   7
ENDBRANCH   4   5
ENDBRANCH   1   4
BRANCH   1  35
HETATM   35  N3  UNL     1      42.618  22.381 -34.186  1.00  0.00    -0.084 NA
BRANCH  35  36
HETATM   36  N4  UNL     1      41.372  21.838 -34.438  1.00  0.00    -0.344 N
ATOM     37  H42 UNL     1      40.815  22.121 -35.244  1.00  0.00     0.172 HD
ATOM     38  H41 UNL     1      41.068  21.142 -33.757  1.00  0.00     0.172 HD
ENDBRANCH  35  36
ENDBRANCH   1  35
BRANCH   1  39
HETATM   39  C16 UNL     1      44.105  20.928 -35.447  1.00  0.00     0.293 C
HETATM   40  O8  UNL     1      44.517  19.774 -35.560  1.00  0.00    -0.267 OA
HETATM   41  N5  UNL     1      44.034  21.803 -36.563  1.00  0.00    -0.303 N
ATOM     42  H5  UNL     1      43.681  22.748 -36.412  1.00  0.00     0.171 HD
BRANCH  41  43
HETATM   43  C17 UNL     1      44.420  21.442 -37.857  1.00  0.00     0.142 C
HETATM   44  N6  UNL     1      43.939  20.528 -38.585  1.00  0.00    -0.370 N
HETATM   45  C18 UNL     1      44.469  20.318 -39.863  1.00  0.00     0.132 C
ATOM     46  H6  UNL     1      43.171  19.949 -38.245  1.00  0.00     0.161 HD
HETATM   47  C19 UNL     1      45.041  21.617 -40.438  1.00  0.00     0.102 C
HETATM   48  S1  UNL     1      45.700  22.241 -38.819  1.00  0.00    -0.092 SA
ENDBRANCH  41  43
ENDBRANCH   1  39
TORSDOF 16
ENDMDL