MODEL 3
REMARK VINA RESULT: -9.012083317      1.898      4.197
REMARK  13 active torsions:
REMARK  status: ('A' for Active; 'I' for Inactive)
REMARK    1  A    between atoms: C2_2  and  C3_4
REMARK    2  A    between atoms: C3_4  and  N1_6
REMARK    3  A    between atoms: N1_6  and  C5_8
REMARK    4  A    between atoms: N3_12  and  C7_14
REMARK    5  A    between atoms: C7_14  and  C8_15
REMARK    6  A    between atoms: C11_18  and  C12_19
REMARK    7  A    between atoms: C12_19  and  O2_20
REMARK    8  A    between atoms: C12_19  and  N4_22
REMARK    9  A    between atoms: C14_28  and  N7_29
REMARK   10  A    between atoms: N12_45  and  C20_46
REMARK   11  A    between atoms: C20_46  and  C21_47
REMARK   12  A    between atoms: C21_47  and  O3_48
REMARK   13  A    between atoms: C21_47  and  O4_50
ROOT
HETATM    1  C5  UNL     1      41.356  22.058 -30.485  1.00  0.00     0.682 A
HETATM    2  N2  UNL     1      41.931  22.648 -29.426  1.00  0.00    -0.174 N
ATOM      3  H2  UNL     1      41.408  22.726 -28.554  1.00  0.00     0.186 HD
HETATM    4  C6  UNL     1      43.202  23.146 -29.493  1.00  0.00     0.151 A
HETATM    5  N3  UNL     1      43.665  23.678 -28.459  1.00  0.00    -0.348 N
ATOM      6  H3  UNL     1      43.002  23.663 -27.683  1.00  0.00     0.167 HD
HETATM    7  C18 UNL     1      43.896  23.036 -30.669  1.00  0.00     0.123 A
HETATM    8  N11 UNL     1      45.119  23.392 -31.101  1.00  0.00    -0.346 N
ATOM      9  H11 UNL     1      45.820  23.869 -30.535  1.00  0.00     0.167 HD
HETATM   10  C19 UNL     1      45.286  23.030 -32.385  1.00  0.00     0.185 A
HETATM   11  N12 UNL     1      44.166  22.425 -32.825  1.00  0.00    -0.322 N
HETATM   12  C22 UNL     1      43.308  22.420 -31.788  1.00  0.00     0.155 A
HETATM   13  N13 UNL     1      42.055  21.958 -31.636  1.00  0.00    -0.174 N
ATOM     14  H13 UNL     1      41.607  21.507 -32.434  1.00  0.00     0.186 HD
ENDROOT
BRANCH   5  15
HETATM   15  C7  UNL     1      44.879  24.290 -28.112  1.00  0.00     0.119 C
BRANCH  15  16
HETATM   16  C8  UNL     1      45.782  23.392 -27.311  1.00  0.00     0.047 A
HETATM   17  C9  UNL     1      47.045  23.823 -26.994  1.00  0.00     0.031 A
HETATM   18  C10 UNL     1      47.903  23.040 -26.265  1.00  0.00     0.015 A
HETATM   19  C11 UNL     1      47.461  21.810 -25.860  1.00  0.00     0.007 A
HETATM   20  C17 UNL     1      46.183  21.388 -26.185  1.00  0.00     0.100 A
HETATM   21  N10 UNL     1      45.357  22.184 -26.907  1.00  0.00    -0.364 N
ATOM     22  H10 UNL     1      44.417  21.867 -27.143  1.00  0.00     0.165 HD
BRANCH  19  23
HETATM   23  C12 UNL     1      48.376  20.945 -25.067  1.00  0.00     0.280 C
BRANCH  23  24
HETATM   24  O2  UNL     1      47.696  20.396 -23.960  1.00  0.00    -0.370 OA
ATOM     25  H2  UNL     1      47.650  19.450 -24.037  1.00  0.00     0.212 HD
ENDBRANCH  23  24
BRANCH  23  26
HETATM   26  N4  UNL     1      49.500  21.718 -24.555  1.00  0.00    -0.226 N
HETATM   27  N5  UNL     1      49.528  22.429 -23.452  1.00  0.00    -0.236 N
HETATM   28  N6  UNL     1      50.721  23.001 -23.301  1.00  0.00    -0.279 N
ATOM     29  H5  UNL     1      48.748  22.529 -22.803  1.00  0.00     0.208 HD
HETATM   30  C13 UNL     1      51.505  22.662 -24.333  1.00  0.00     0.139 A
ATOM     31  H6  UNL     1      50.994  23.602 -22.524  1.00  0.00     0.189 HD
HETATM   32  C14 UNL     1      52.801  22.943 -24.707  1.00  0.00     0.132 A
HETATM   33  C16 UNL     1      50.713  21.840 -25.129  1.00  0.00     0.159 A
HETATM   34  N8  UNL     1      53.311  22.428 -25.841  1.00  0.00    -0.337 N
HETATM   35  C15 UNL     1      52.529  21.637 -26.597  1.00  0.00     0.183 A
ATOM     36  H8  UNL     1      54.270  22.634 -26.121  1.00  0.00     0.168 HD
HETATM   37  N9  UNL     1      51.262  21.357 -26.238  1.00  0.00    -0.335 N
ATOM     38  H9  UNL     1      50.703  20.752 -26.841  1.00  0.00     0.168 HD
BRANCH  32  39
HETATM   39  N7  UNL     1      53.548  23.714 -23.962  1.00  0.00    -0.383 N
ATOM     40  H72 UNL     1      54.242  24.315 -24.406  1.00  0.00     0.157 HD
ATOM     41  H71 UNL     1      53.436  23.714 -22.948  1.00  0.00     0.157 HD
ENDBRANCH  32  39
ENDBRANCH  23  26
ENDBRANCH  19  23
ENDBRANCH  15  16
ENDBRANCH   5  15
BRANCH   1  42
HETATM   42  N1  UNL     1      40.162  21.568 -30.491  1.00  0.00    -0.215 N
ATOM     43  H1  UNL     1      39.566  21.691 -29.672  1.00  0.00     0.178 HD
BRANCH  42  44
HETATM   44  C3  UNL     1      39.654  20.847 -31.640  1.00  0.00     0.164 C
HETATM   45  C4  UNL     1      38.133  21.053 -31.740  1.00  0.00     0.041 C
BRANCH  44  46
HETATM   46  C2  UNL     1      39.973  19.398 -31.568  1.00  0.00     0.145 C
HETATM   47  C1  UNL     1      39.026  18.421 -31.005  1.00  0.00     0.093 C
HETATM   48  O1  UNL     1      41.047  19.005 -31.982  1.00  0.00    -0.296 OA
ENDBRANCH  44  46
ENDBRANCH  42  44
ENDBRANCH   1  42
BRANCH  11  49
HETATM   49  C20 UNL     1      43.885  21.873 -34.136  1.00  0.00     0.191 C
BRANCH  49  50
HETATM   50  C21 UNL     1      44.336  20.454 -34.233  1.00  0.00     0.272 C
BRANCH  50  51
HETATM   51  O3  UNL     1      43.355  19.652 -33.613  1.00  0.00    -0.370 OA
ATOM     52  H3  UNL     1      43.770  18.837 -33.358  1.00  0.00     0.212 HD
ENDBRANCH  50  51
BRANCH  50  53
HETATM   53  O4  UNL     1      44.530  20.024 -35.534  1.00  0.00    -0.370 OA
ATOM     54  H4  UNL     1      45.064  19.242 -35.599  1.00  0.00     0.212 HD
ENDBRANCH  50  53
ENDBRANCH  49  50
ENDBRANCH  11  49
TORSDOF 13
ENDMDL