MODEL 3
REMARK VINA RESULT: -8.265830622      2.588      7.332
REMARK  10 active torsions:
REMARK  status: ('A' for Active; 'I' for Inactive)
REMARK    1  A    between atoms: N2_5  and  C4_6
REMARK    2  A    between atoms: C4_6  and  C5_7
REMARK    3  A    between atoms: N3_8  and  C6_10
REMARK    4  A    between atoms: C7_13  and  N5_14
REMARK    5  A    between atoms: C9_16  and  C10_17
REMARK    6  A    between atoms: C10_17  and  C11_18
REMARK    7  A    between atoms: C11_18  and  N6_19
REMARK    8  A    between atoms: N6_19  and  C12_21
REMARK    9  A    between atoms: C20_39  and  O1_40
REMARK   10  A    between atoms: C21_42  and  O2_43
ROOT
HETATM    1  C6  UNL     1      41.581  21.962 -30.454  1.00  0.00     0.136 A
HETATM    2  N4  UNL     1      42.072  21.175 -29.435  1.00  0.00    -0.325 N
ATOM      3  H4  UNL     1      41.643  20.263 -29.274  1.00  0.00     0.169 HD
HETATM    4  C7  UNL     1      43.091  21.556 -28.641  1.00  0.00     0.130 A
HETATM    5  C15 UNL     1      43.681  22.785 -28.830  1.00  0.00     0.067 A
HETATM    6  C16 UNL     1      43.220  23.568 -29.824  1.00  0.00     0.030 A
HETATM    7  C17 UNL     1      43.728  24.815 -30.248  1.00  0.00     0.085 A
HETATM    8  C18 UNL     1      44.648  25.668 -29.590  1.00  0.00     0.066 C
HETATM    9  N11 UNL     1      44.364  26.303 -28.342  1.00  0.00    -0.387 N
ATOM     10  H11 UNL     1      43.710  26.050 -27.602  1.00  0.00     0.159 HD
HETATM   11  C19 UNL     1      45.313  27.442 -28.451  1.00  0.00     0.154 C
HETATM   12  C20 UNL     1      46.574  26.839 -29.088  1.00  0.00     0.170 C
HETATM   13  C21 UNL     1      46.113  25.484 -29.585  1.00  0.00     0.200 C
HETATM   14  N12 UNL     1      42.961  25.103 -31.316  1.00  0.00    -0.297 N
ATOM     15  H12 UNL     1      43.068  25.951 -31.872  1.00  0.00     0.187 HD
HETATM   16  N13 UNL     1      42.056  24.173 -31.567  1.00  0.00    -0.296 N
ATOM     17  H13 UNL     1      41.374  24.190 -32.326  1.00  0.00     0.187 HD
HETATM   18  C22 UNL     1      42.190  23.209 -30.656  1.00  0.00     0.104 A
ENDROOT
BRANCH   4  19
HETATM   19  N5  UNL     1      43.611  20.671 -27.656  1.00  0.00    -0.235 N
HETATM   20  C8  UNL     1      44.720  20.751 -26.921  1.00  0.00     0.146 A
HETATM   21  C9  UNL     1      44.836  19.596 -26.120  1.00  0.00     0.046 A
HETATM   22  N9  UNL     1      43.749  18.892 -26.449  1.00  0.00    -0.289 N
HETATM   23  N10 UNL     1      43.025  19.509 -27.343  1.00  0.00    -0.235 N
ATOM     24  H9  UNL     1      43.515  17.984 -26.050  1.00  0.00     0.188 HD
ATOM     25  H10 UNL     1      42.152  19.161 -27.739  1.00  0.00     0.209 HD
BRANCH  21  26
HETATM   26  C10 UNL     1      45.916  19.317 -25.169  1.00  0.00     0.080 C
BRANCH  26  27
HETATM   27  C11 UNL     1      46.706  20.545 -24.793  1.00  0.00     0.128 C
BRANCH  27  28
HETATM   28  N6  UNL     1      48.022  20.142 -24.357  1.00  0.00    -0.362 N
ATOM     29  H6  UNL     1      48.092  19.316 -23.762  1.00  0.00     0.162 HD
BRANCH  28  30
HETATM   30  C12 UNL     1      49.220  20.809 -24.694  1.00  0.00     0.171 C
HETATM   31  N7  UNL     1      50.311  20.142 -25.000  1.00  0.00    -0.361 N
HETATM   32  C13 UNL     1      51.395  21.034 -25.304  1.00  0.00     0.142 C
ATOM     33  H7  UNL     1      50.378  19.125 -25.019  1.00  0.00     0.162 HD
HETATM   34  C14 UNL     1      50.653  22.341 -25.666  1.00  0.00     0.142 C
HETATM   35  N8  UNL     1      49.504  22.192 -24.772  1.00  0.00    -0.361 N
ATOM     36  H8  UNL     1      49.004  22.943 -24.296  1.00  0.00     0.162 HD
ENDBRANCH  28  30
ENDBRANCH  27  28
ENDBRANCH  26  27
ENDBRANCH  21  26
ENDBRANCH   4  19
BRANCH   1  37
HETATM   37  N3  UNL     1      40.616  21.581 -31.105  1.00  0.00    -0.352 N
HETATM   38  C5  UNL     1      39.885  21.230 -32.160  1.00  0.00     0.082 C
ATOM     39  H3  UNL     1      39.934  21.447 -30.358  1.00  0.00     0.166 HD
BRANCH  38  40
HETATM   40  C4  UNL     1      40.311  19.922 -32.847  1.00  0.00     0.161 C
BRANCH  40  41
HETATM   41  N2  UNL     1      41.465  20.126 -33.663  1.00  0.00    -0.405 N
HETATM   42  C3  UNL     1      42.702  19.715 -33.116  1.00  0.00     0.147 C
HETATM   43  C2  UNL     1      43.793  19.935 -34.153  1.00  0.00     0.291 C
HETATM   44  N1  UNL     1      43.992  21.357 -34.283  1.00  0.00     0.087 N
HETATM   45  C1  UNL     1      44.858  21.731 -35.352  1.00  0.00     0.310 C
HETATM   46  C24 UNL     1      42.805  22.126 -34.150  1.00  0.00     0.291 C
HETATM   47  C23 UNL     1      41.537  21.350 -34.376  1.00  0.00     0.147 C
ENDBRANCH  40  41
ENDBRANCH  38  40
ENDBRANCH   1  37
BRANCH  13  48
HETATM   48  O2  UNL     1      46.734  25.159 -30.741  1.00  0.00    -0.387 OA
ATOM     49  H2  UNL     1      46.348  24.492 -31.297  1.00  0.00     0.210 HD
ENDBRANCH  13  48
BRANCH  12  50
HETATM   50  O1  UNL     1      47.567  26.731 -28.120  1.00  0.00    -0.391 OA
ATOM     51  H1  UNL     1      48.015  25.900 -28.225  1.00  0.00     0.210 HD
ENDBRANCH  12  50
TORSDOF 10
ENDMDL