MODEL 5
REMARK VINA RESULT: -7.226567892      1.955      2.927
REMARK  13 active torsions:
REMARK  status: ('A' for Active; 'I' for Inactive)
REMARK    1  A    between atoms: N1_2  and  C2_3
REMARK    2  A    between atoms: N1_2  and  C13_35
REMARK    3  A    between atoms: C2_3  and  C3_4
REMARK    4  A    between atoms: C3_4  and  C4_5
REMARK       I    between atoms: C4_5  and  N2_7
REMARK    5  A    between atoms: N2_7  and  C5_9
REMARK    6  A    between atoms: C8_16  and  N4_17
REMARK    7  A    between atoms: N4_17  and  C9_19
REMARK    8  A    between atoms: C10_22  and  N6_23
REMARK    9  A    between atoms: N7_26  and  N8_27
REMARK   10  A    between atoms: C11_30  and  O2_31
REMARK   11  A    between atoms: C15_39  and  C16_40
REMARK       I    between atoms: C16_40  and  N11_42
REMARK   12  A    between atoms: N11_42  and  O4_44
REMARK   13  A    between atoms: O4_44  and  C17_45
ROOT
HETATM    1  C5  UNL     1      40.840  19.981 -32.019  1.00  0.00     0.150 C
HETATM    2  C6  UNL     1      39.403  19.541 -32.203  1.00  0.00     0.111 C
HETATM    3  S1  UNL     1      39.232  17.881 -31.498  1.00  0.00    -0.088 SA
HETATM    4  C7  UNL     1      38.619  20.544 -31.387  1.00  0.00     0.253 C
HETATM    5  N3  UNL     1      39.562  21.505 -30.889  1.00  0.00    -0.051 N
ATOM      6  H31 UNL     1      39.247  22.047 -30.084  1.00  0.00     0.279 HD
ATOM      7  H32 UNL     1      39.717  22.314 -31.491  1.00  0.00     0.279 HD
HETATM    8  C8  UNL     1      40.736  20.673 -30.654  1.00  0.00     0.309 C
ENDROOT
BRANCH   1   9
HETATM    9  N2  UNL     1      41.125  20.918 -33.059  1.00  0.00    -0.351 N
HETATM   10  C4  UNL     1      42.223  20.755 -33.997  1.00  0.00     0.219 C
HETATM   11  O1  UNL     1      42.890  19.712 -33.809  1.00  0.00    -0.274 OA
ATOM     12  H2  UNL     1      40.529  21.741 -33.147  1.00  0.00     0.163 HD
BRANCH  10  13
HETATM   13  C3  UNL     1      42.470  21.740 -35.033  1.00  0.00     0.123 C
BRANCH  13  14
HETATM   14  C2  UNL     1      43.480  21.479 -36.067  1.00  0.00     0.150 C
BRANCH  14  15
HETATM   15  N1  UNL     1      44.753  22.130 -35.995  1.00  0.00    -0.222 N
HETATM   16  C1  UNL     1      45.484  22.619 -37.130  1.00  0.00     0.168 C
BRANCH  15  17
HETATM   17  C13 UNL     1      45.389  22.350 -34.717  1.00  0.00     0.679 A
HETATM   18  N10 UNL     1      45.730  21.301 -33.979  1.00  0.00    -0.201 N
HETATM   19  C14 UNL     1      46.325  21.438 -32.762  1.00  0.00     0.124 A
ATOM     20  H10 UNL     1      45.542  20.364 -34.334  1.00  0.00     0.183 HD
HETATM   21  C15 UNL     1      46.587  22.698 -32.268  1.00  0.00     0.066 A
HETATM   22  C21 UNL     1      46.227  23.780 -33.048  1.00  0.00     0.124 A
HETATM   23  N12 UNL     1      45.640  23.564 -34.247  1.00  0.00    -0.201 N
ATOM     24  H12 UNL     1      45.380  24.370 -34.815  1.00  0.00     0.183 HD
BRANCH  21  25
HETATM   25  C16 UNL     1      47.214  22.900 -30.946  1.00  0.00     0.277 C
HETATM   26  O3  UNL     1      47.856  21.918 -30.440  1.00  0.00    -0.265 OA
HETATM   27  N11 UNL     1      47.149  24.091 -30.226  1.00  0.00    -0.230 N
ATOM     28  H11 UNL     1      46.632  24.869 -30.636  1.00  0.00     0.197 HD
BRANCH  27  29
HETATM   29  O4  UNL     1      47.724  24.280 -29.023  1.00  0.00    -0.267 OA
BRANCH  29  30
HETATM   30  C17 UNL     1      47.629  25.636 -28.662  1.00  0.00     0.078 C
HETATM   31  C18 UNL     1      48.606  25.951 -27.565  1.00  0.00     0.048 C
HETATM   32  C19 UNL     1      46.230  26.005 -28.233  1.00  0.00     0.048 C
HETATM   33  C20 UNL     1      47.966  26.445 -29.899  1.00  0.00     0.048 C
ENDBRANCH  29  30
ENDBRANCH  27  29
ENDBRANCH  21  25
ENDBRANCH  15  17
ENDBRANCH  14  15
ENDBRANCH  13  14
ENDBRANCH  10  13
ENDBRANCH   1   9
BRANCH   8  34
HETATM   34  N4  UNL     1      41.889  21.394 -30.313  1.00  0.00    -0.345 N
ATOM     35  H4  UNL     1      42.109  22.219 -30.871  1.00  0.00     0.163 HD
BRANCH  34  36
HETATM   36  C9  UNL     1      42.681  21.101 -29.365  1.00  0.00     0.147 A
HETATM   37  N5  UNL     1      42.585  20.074 -28.508  1.00  0.00    -0.173 N
HETATM   38  C10 UNL     1      43.477  19.845 -27.534  1.00  0.00     0.700 A
ATOM     39  H5  UNL     1      41.795  19.436 -28.602  1.00  0.00     0.186 HD
HETATM   40  N7  UNL     1      44.529  20.653 -27.370  1.00  0.00    -0.068 N
HETATM   41  C11 UNL     1      44.673  21.699 -28.203  1.00  0.00     0.207 A
HETATM   42  C12 UNL     1      43.785  21.961 -29.205  1.00  0.00     0.143 A
HETATM   43  N9  UNL     1      43.945  23.059 -30.074  1.00  0.00    -0.094 NA
BRANCH  38  44
HETATM   44  N6  UNL     1      43.331  18.841 -26.738  1.00  0.00    -0.233 N
ATOM     45  H62 UNL     1      42.811  18.970 -25.870  1.00  0.00     0.174 HD
ATOM     46  H61 UNL     1      43.729  17.933 -26.976  1.00  0.00     0.174 HD
ENDBRANCH  38  44
BRANCH  40  47
HETATM   47  N8  UNL     1      45.478  20.422 -26.337  1.00  0.00    -0.322 N
ATOM     48  H82 UNL     1      45.556  19.500 -25.905  1.00  0.00     0.178 HD
ATOM     49  H81 UNL     1      46.096  21.166 -26.014  1.00  0.00     0.178 HD
ENDBRANCH  40  47
BRANCH  41  50
HETATM   50  O2  UNL     1      45.792  22.532 -28.006  1.00  0.00    -0.343 OA
ATOM     51  H2  UNL     1      45.640  23.470 -27.993  1.00  0.00     0.219 HD
ENDBRANCH  41  50
ENDBRANCH  34  36
ENDBRANCH   8  34
TORSDOF 13
ENDMDL