MODEL 4
REMARK VINA RESULT: -8.125919903      2.368      4.191
REMARK  16 active torsions:
REMARK  status: ('A' for Active; 'I' for Inactive)
REMARK    1  A    between atoms: O1_2  and  C2_3
REMARK    2  A    between atoms: C2_3  and  C3_5
REMARK    3  A    between atoms: C9_13  and  C10_14
REMARK    4  A    between atoms: C10_14  and  C11_15
REMARK    5  A    between atoms: C10_14  and  C12_19
REMARK    6  A    between atoms: C11_15  and  N2_16
REMARK    7  A    between atoms: C12_19  and  O3_20
REMARK    8  A    between atoms: C12_19  and  N3_22
REMARK    9  A    between atoms: N3_22  and  N4_23
REMARK   10  A    between atoms: N4_23  and  C13_25
REMARK   11  A    between atoms: C13_25  and  O4_26
REMARK   12  A    between atoms: C13_25  and  N5_28
REMARK   13  A    between atoms: N5_28  and  N6_29
REMARK       I    between atoms: N6_29  and  C14_31
REMARK   14  A    between atoms: C14_31  and  C15_33
REMARK   15  A    between atoms: C15_33  and  N7_34
REMARK   16  A    between atoms: C20_47  and  O7_48
ROOT
HETATM    1  C3  UNL     1      48.974  24.132 -26.638  1.00  0.00     0.091 C
HETATM    2  C4  UNL     1      47.868  24.321 -27.438  1.00  0.00     0.037 C
HETATM    3  C5  UNL     1      46.609  23.808 -27.303  1.00  0.00     0.010 C
HETATM    4  C6  UNL     1      45.813  24.718 -27.960  1.00  0.00     0.102 C
HETATM    5  N1  UNL     1      44.514  24.531 -28.289  1.00  0.00    -0.363 N
ATOM      6  H1  UNL     1      43.924  25.361 -28.340  1.00  0.00     0.165 HD
HETATM    7  C7  UNL     1      43.911  23.308 -28.564  1.00  0.00     0.059 A
HETATM    8  C8  UNL     1      43.079  22.973 -29.567  1.00  0.00     0.039 A
HETATM    9  C9  UNL     1      42.759  21.582 -29.438  1.00  0.00    -0.041 A
HETATM   10  C16 UNL     1      43.419  21.141 -28.359  1.00  0.00     0.039 A
HETATM   11  C17 UNL     1      44.157  22.144 -27.758  1.00  0.00     0.060 A
HETATM   12  N8  UNL     1      44.977  22.050 -26.663  1.00  0.00    -0.351 N
ATOM     13  H8  UNL     1      44.659  21.533 -25.843  1.00  0.00     0.166 HD
HETATM   14  C18 UNL     1      46.249  22.656 -26.649  1.00  0.00     0.082 C
HETATM   15  C19 UNL     1      46.982  21.857 -25.829  1.00  0.00     0.145 A
HETATM   16  O6  UNL     1      46.575  20.792 -25.244  1.00  0.00    -0.232 OA
HETATM   17  N9  UNL     1      47.524  20.257 -24.528  1.00  0.00    -0.238 N
ATOM     18  H9  UNL     1      47.431  19.404 -23.977  1.00  0.00     0.197 HD
HETATM   19  C20 UNL     1      48.633  20.989 -24.621  1.00  0.00     0.177 A
HETATM   20  C21 UNL     1      48.319  22.061 -25.475  1.00  0.00     0.106 A
HETATM   21  C22 UNL     1      49.224  23.039 -25.828  1.00  0.00     0.205 C
HETATM   22  O8  UNL     1      50.353  22.880 -25.361  1.00  0.00    -0.286 OA
ENDROOT
BRANCH   9  23
HETATM   23  C10 UNL     1      41.931  20.971 -30.529  1.00  0.00     0.103 C
BRANCH  23  24
HETATM   24  C11 UNL     1      40.997  22.301 -30.769  1.00  0.00     0.066 C
BRANCH  24  25
HETATM   25  N2  UNL     1      39.798  22.059 -31.393  1.00  0.00    -0.410 N
ATOM     26  H22 UNL     1      38.958  21.820 -30.866  1.00  0.00     0.155 HD
ATOM     27  H21 UNL     1      39.821  22.138 -32.410  1.00  0.00     0.155 HD
ENDBRANCH  24  25
ENDBRANCH  23  24
BRANCH  23  28
HETATM   28  C12 UNL     1      42.540  20.728 -31.833  1.00  0.00     0.244 C
BRANCH  28  29
HETATM   29  O3  UNL     1      42.424  21.627 -32.803  1.00  0.00    -0.377 OA
ATOM     30  H3  UNL     1      42.125  21.363 -33.666  1.00  0.00     0.211 HD
ENDBRANCH  28  29
BRANCH  28  31
HETATM   31  N3  UNL     1      43.332  19.561 -32.022  1.00  0.00    -0.104 NA
BRANCH  31  32
HETATM   32  N4  UNL     1      44.602  19.833 -31.337  1.00  0.00    -0.253 N
ATOM     33  H4  UNL     1      44.863  19.350 -30.477  1.00  0.00     0.187 HD
BRANCH  32  34
HETATM   34  C13 UNL     1      45.438  20.791 -31.927  1.00  0.00     0.330 C
BRANCH  34  35
HETATM   35  O4  UNL     1      46.162  21.438 -31.009  1.00  0.00    -0.319 OA
ATOM     36  H4  UNL     1      46.221  20.940 -30.201  1.00  0.00     0.222 HD
ENDBRANCH  34  35
BRANCH  34  37
HETATM   37  N5  UNL     1      45.561  21.076 -33.248  1.00  0.00    -0.276 NA
BRANCH  37  38
HETATM   38  N6  UNL     1      45.675  21.363 -34.543  1.00  0.00    -0.197 N
HETATM   39  C14 UNL     1      44.841  20.686 -35.487  1.00  0.00     0.271 C
HETATM   40  O5  UNL     1      43.950  19.913 -34.972  1.00  0.00    -0.269 OA
ATOM     41  H6  UNL     1      46.350  22.059 -34.859  1.00  0.00     0.205 HD
BRANCH  39  42
HETATM   42  C15 UNL     1      44.896  20.753 -36.947  1.00  0.00     0.334 C
BRANCH  42  43
HETATM   43  N7  UNL     1      44.967  19.504 -37.631  1.00  0.00    -0.071 N
ATOM     44  H73 UNL     1      44.978  18.741 -36.955  1.00  0.00     0.274 HD
ATOM     45  H72 UNL     1      44.082  19.319 -38.103  1.00  0.00     0.274 HD
ATOM     46  H71 UNL     1      45.738  19.395 -38.288  1.00  0.00     0.274 HD
ENDBRANCH  42  43
ENDBRANCH  39  42
ENDBRANCH  37  38
ENDBRANCH  34  37
ENDBRANCH  32  34
ENDBRANCH  31  32
ENDBRANCH  28  31
ENDBRANCH  23  28
ENDBRANCH   9  23
BRANCH   1  47
HETATM   47  C2  UNL     1      49.937  25.204 -26.571  1.00  0.00     0.297 C
HETATM   48  O2  UNL     1      50.060  26.092 -25.748  1.00  0.00    -0.259 OA
BRANCH  47  49
HETATM   49  O1  UNL     1      50.881  25.205 -27.648  1.00  0.00    -0.322 OA
HETATM   50  C1  UNL     1      50.805  26.301 -28.598  1.00  0.00     0.213 C
ENDBRANCH  47  49
ENDBRANCH   1  47
BRANCH  19  51
HETATM   51  O7  UNL     1      49.860  20.753 -24.007  1.00  0.00    -0.344 OA
ATOM     52  H7  UNL     1      50.047  20.724 -23.076  1.00  0.00     0.219 HD
ENDBRANCH  19  51
TORSDOF 16
ENDMDL