MODEL 4
REMARK VINA RESULT: -8.729821373      1.906      3.169
REMARK  10 active torsions:
REMARK  status: ('A' for Active; 'I' for Inactive)
REMARK    1  A    between atoms: N1_1  and  C1_4
REMARK    2  A    between atoms: C5_14  and  N5_15
REMARK    3  A    between atoms: N5_15  and  S1_17
REMARK    4  A    between atoms: S1_17  and  C6_20
REMARK    5  A    between atoms: C9_23  and  O3_24
REMARK    6  A    between atoms: O3_24  and  S2_25
REMARK    7  A    between atoms: S2_25  and  C10_28
REMARK    8  A    between atoms: C10_28  and  C11_29
REMARK    9  A    between atoms: C14_35  and  O7_36
REMARK   10  A    between atoms: C16_41  and  C17_42
ROOT
HETATM    1  C6  UNL     1      44.490  24.313 -30.076  1.00  0.00     0.096 A
HETATM    2  C7  UNL     1      43.188  24.563 -30.524  1.00  0.00     0.029 A
HETATM    3  C8  UNL     1      42.716  24.082 -31.721  1.00  0.00     0.040 A
HETATM    4  C9  UNL     1      43.568  23.318 -32.515  1.00  0.00     0.090 A
HETATM    5  C15 UNL     1      44.840  23.064 -32.094  1.00  0.00     0.058 A
HETATM    6  C16 UNL     1      45.317  23.564 -30.860  1.00  0.00     0.066 A
ENDROOT
BRANCH   1   7
HETATM    7  S1  UNL     1      45.002  24.916 -28.546  1.00  0.00     0.262 S
HETATM    8  O1  UNL     1      45.257  26.419 -28.539  1.00  0.00    -0.200 OA
HETATM    9  O2  UNL     1      43.837  24.787 -27.538  1.00  0.00    -0.200 OA
BRANCH   7  10
HETATM   10  N5  UNL     1      46.328  24.087 -27.849  1.00  0.00    -0.276 N
ATOM     11  H5  UNL     1      47.308  24.276 -28.059  1.00  0.00     0.176 HD
BRANCH  10  12
HETATM   12  C5  UNL     1      45.870  23.097 -26.936  1.00  0.00     0.300 C
HETATM   13  N4  UNL     1      46.966  22.398 -26.270  1.00  0.00    -0.346 N
HETATM   14  C4  UNL     1      46.420  21.139 -25.864  1.00  0.00     0.119 A
ATOM     15  H4  UNL     1      47.917  22.736 -26.125  1.00  0.00     0.163 HD
HETATM   16  C1  UNL     1      46.769  20.228 -24.892  1.00  0.00     0.130 A
HETATM   17  C3  UNL     1      45.319  20.878 -26.683  1.00  0.00     0.135 A
HETATM   18  N2  UNL     1      46.077  19.073 -24.694  1.00  0.00    -0.337 N
HETATM   19  C2  UNL     1      45.025  18.858 -25.503  1.00  0.00     0.183 A
ATOM     20  H2  UNL     1      46.344  18.405 -23.971  1.00  0.00     0.168 HD
HETATM   21  N3  UNL     1      44.656  19.729 -26.466  1.00  0.00    -0.337 N
ATOM     22  H3  UNL     1      43.847  19.510 -27.048  1.00  0.00     0.168 HD
HETATM   23  N8  UNL     1      45.205  21.979 -27.578  1.00  0.00    -0.336 N
ATOM     24  H8  UNL     1      44.747  21.981 -28.489  1.00  0.00     0.165 HD
BRANCH  16  25
HETATM   25  N1  UNL     1      47.781  20.466 -24.137  1.00  0.00    -0.383 N
ATOM     26  H12 UNL     1      47.848  20.008 -23.228  1.00  0.00     0.157 HD
ATOM     27  H11 UNL     1      48.493  21.112 -24.476  1.00  0.00     0.157 HD
ENDBRANCH  16  25
ENDBRANCH  10  12
ENDBRANCH   7  10
ENDBRANCH   1   7
BRANCH   6  28
HETATM   28  C17 UNL     1      46.700  23.240 -30.571  1.00  0.00     0.211 C
HETATM   29  O8  UNL     1      47.017  22.078 -30.124  1.00  0.00    -0.644 OA
HETATM   30  O9  UNL     1      47.737  24.113 -30.750  1.00  0.00    -0.644 OA
ENDBRANCH   6  28
BRANCH   4  31
HETATM   31  O3  UNL     1      43.102  22.819 -33.739  1.00  0.00    -0.233 OA
BRANCH  31  32
HETATM   32  S2  UNL     1      41.992  21.549 -33.783  1.00  0.00     0.277 S
HETATM   33  O4  UNL     1      40.625  21.997 -33.328  1.00  0.00    -0.198 OA
HETATM   34  O5  UNL     1      41.943  21.041 -35.203  1.00  0.00    -0.198 OA
BRANCH  32  35
HETATM   35  C10 UNL     1      42.606  20.241 -32.760  1.00  0.00     0.247 C
BRANCH  35  36
HETATM   36  C11 UNL     1      41.868  20.265 -31.484  1.00  0.00     0.102 A
HETATM   37  N6  UNL     1      42.447  20.736 -30.369  1.00  0.00    -0.312 N
HETATM   38  C12 UNL     1      41.789  20.769 -29.182  1.00  0.00     0.250 A
ATOM     39  H6  UNL     1      43.407  21.077 -30.414  1.00  0.00     0.170 HD
HETATM   40  O6  UNL     1      42.343  21.209 -28.160  1.00  0.00    -0.268 OA
HETATM   41  C13 UNL     1      40.492  20.309 -29.121  1.00  0.00     0.130 A
HETATM   42  C14 UNL     1      39.916  19.828 -30.283  1.00  0.00     0.146 A
HETATM   43  N7  UNL     1      40.604  19.811 -31.449  1.00  0.00    -0.326 N
ATOM     44  H7  UNL     1      40.165  19.454 -32.298  1.00  0.00     0.169 HD
BRANCH  42  45
HETATM   45  O7  UNL     1      38.617  19.372 -30.201  1.00  0.00    -0.346 OA
ATOM     46  H7  UNL     1      38.391  18.609 -30.720  1.00  0.00     0.219 HD
ENDBRANCH  42  45
ENDBRANCH  35  36
ENDBRANCH  32  35
ENDBRANCH  31  32
ENDBRANCH   4  31
TORSDOF 10
ENDMDL