MODEL 1
REMARK VINA RESULT: -8.608773393      0.000      0.000
REMARK  12 active torsions:
REMARK  status: ('A' for Active; 'I' for Inactive)
REMARK    1  A    between atoms: O1_2  and  C2_3
REMARK    2  A    between atoms: C4_5  and  C5_6
REMARK       I    between atoms: C5_6  and  N1_8
REMARK    3  A    between atoms: N1_8  and  N2_10
REMARK    4  A    between atoms: C6_12  and  N3_14
REMARK    5  A    between atoms: C9_19  and  N5_20
REMARK    6  A    between atoms: N5_20  and  N6_22
REMARK       I    between atoms: N6_22  and  C10_24
REMARK       I    between atoms: C10_24  and  N8_28
REMARK    7  A    between atoms: N8_28  and  N9_30
REMARK    8  A    between atoms: N10_33  and  N11_34
REMARK    9  A    between atoms: N11_34  and  C11_36
REMARK   10  A    between atoms: C11_36  and  C12_37
REMARK   11  A    between atoms: C17_44  and  N13_45
REMARK   12  A    between atoms: C20_50  and  O6_51
ROOT
HETATM    1  N3  UNL     1      44.208  21.594 -30.282  1.00  0.00    -0.081 N
HETATM    2  C8  UNL     1      44.711  20.877 -31.298  1.00  0.00     0.361 A
HETATM    3  O3  UNL     1      45.782  20.234 -31.101  1.00  0.00    -0.245 OA
HETATM    4  N4  UNL     1      44.103  20.835 -32.495  1.00  0.00    -0.137 N
ATOM      5  H4  UNL     1      44.506  20.282 -33.251  1.00  0.00     0.189 HD
HETATM    6  C9  UNL     1      42.964  21.521 -32.700  1.00  0.00     0.737 A
HETATM    7  N10 UNL     1      42.405  22.271 -31.695  1.00  0.00     0.087 N
HETATM    8  C17 UNL     1      43.051  22.277 -30.521  1.00  0.00     0.724 A
ENDROOT
BRANCH   1   9
HETATM    9  C6  UNL     1      44.840  21.648 -29.005  1.00  0.00     0.120 C
HETATM   10  N2  UNL     1      45.831  22.416 -28.798  1.00  0.00    -0.285 N
ATOM     11  H2  UNL     1      46.183  23.004 -29.554  1.00  0.00     0.188 HD
HETATM   12  C7  UNL     1      44.315  20.782 -27.899  1.00  0.00     0.092 C
BRANCH  10  13
HETATM   13  N1  UNL     1      46.442  22.460 -27.539  1.00  0.00    -0.264 N
HETATM   14  C5  UNL     1      47.856  22.499 -27.427  1.00  0.00     0.270 C
HETATM   15  O2  UNL     1      48.574  22.493 -28.459  1.00  0.00    -0.266 OA
ATOM     16  H1  UNL     1      45.868  22.465 -26.697  1.00  0.00     0.190 HD
BRANCH  14  17
HETATM   17  C4  UNL     1      48.508  22.545 -26.131  1.00  0.00     0.036 A
HETATM   18  C3  UNL     1      49.514  23.469 -25.898  1.00  0.00     0.056 A
HETATM   19  C2  UNL     1      50.163  23.555 -24.690  1.00  0.00     0.102 A
HETATM   20  C20 UNL     1      49.801  22.686 -23.666  1.00  0.00     0.099 A
HETATM   21  C19 UNL     1      48.808  21.751 -23.853  1.00  0.00     0.040 A
HETATM   22  C18 UNL     1      48.178  21.695 -25.082  1.00  0.00     0.020 A
BRANCH  19  23
HETATM   23  O1  UNL     1      51.166  24.457 -24.413  1.00  0.00    -0.353 OA
HETATM   24  C1  UNL     1      52.397  24.490 -25.090  1.00  0.00     0.210 C
ENDBRANCH  19  23
BRANCH  20  25
HETATM   25  O6  UNL     1      50.438  22.742 -22.422  1.00  0.00    -0.358 OA
ATOM     26  H6  UNL     1      50.075  22.290 -21.671  1.00  0.00     0.217 HD
ENDBRANCH  20  25
ENDBRANCH  14  17
ENDBRANCH  10  13
ENDBRANCH   1   9
BRANCH   8  27
HETATM   27  N13 UNL     1      42.588  22.919 -29.532  1.00  0.00    -0.232 N
ATOM     28 2H13 UNL     1      43.206  23.463 -28.930  1.00  0.00     0.174 HD
ATOM     29 1H13 UNL     1      41.577  22.862 -29.411  1.00  0.00     0.174 HD
ENDBRANCH   8  27
BRANCH   7  30
HETATM   30  N11 UNL     1      41.216  22.933 -31.949  1.00  0.00    -0.296 N
ATOM     31  H11 UNL     1      41.293  23.696 -32.620  1.00  0.00     0.182 HD
BRANCH  30  32
HETATM   32  C11 UNL     1      39.903  22.729 -31.434  1.00  0.00     0.181 C
BRANCH  32  33
HETATM   33  C12 UNL     1      39.652  21.286 -31.232  1.00  0.00    -0.024 A
HETATM   34  C13 UNL     1      39.514  20.423 -32.294  1.00  0.00     0.011 A
HETATM   35  C14 UNL     1      39.253  19.066 -32.060  1.00  0.00     0.018 A
HETATM   36  C15 UNL     1      39.136  18.610 -30.771  1.00  0.00     0.087 A
HETATM   37  N12 UNL     1      39.274  19.471 -29.758  1.00  0.00    -0.375 N
HETATM   38  C16 UNL     1      39.525  20.775 -29.961  1.00  0.00     0.096 A
ATOM     39  H12 UNL     1      39.186  19.127 -28.801  1.00  0.00     0.164 HD
ENDBRANCH  32  33
ENDBRANCH  30  32
ENDBRANCH   7  30
BRANCH   6  40
HETATM   40  N5  UNL     1      42.365  21.497 -33.844  1.00  0.00    -0.115 N
ATOM     41  H5  UNL     1      41.448  21.063 -33.949  1.00  0.00     0.206 HD
BRANCH  40  42
HETATM   42  N6  UNL     1      43.009  22.084 -34.933  1.00  0.00    -0.117 N
HETATM   43  C10 UNL     1      43.535  21.331 -36.016  1.00  0.00     0.710 C
HETATM   44  N7  UNL     1      42.946  20.273 -36.451  1.00  0.00    -0.232 N
HETATM   45  N8  UNL     1      44.739  21.727 -36.658  1.00  0.00    -0.071 N
ATOM     46  H72 UNL     1      42.082  19.988 -35.990  1.00  0.00     0.174 HD
ATOM     47  H71 UNL     1      43.324  19.732 -37.230  1.00  0.00     0.174 HD
ATOM     48  H8  UNL     1      44.995  22.714 -36.710  1.00  0.00     0.212 HD
ATOM     49  H6  UNL     1      43.106  23.099 -34.953  1.00  0.00     0.206 HD
BRANCH  45  50
HETATM   50  N9  UNL     1      45.563  20.764 -37.212  1.00  0.00    -0.024 N
HETATM   51  O4  UNL     1      46.315  21.085 -38.154  1.00  0.00    -0.516 OA
HETATM   52  O5  UNL     1      45.563  19.465 -36.742  1.00  0.00    -0.516 OA
ENDBRANCH  45  50
ENDBRANCH  40  42
ENDBRANCH   6  40
TORSDOF 12
ENDMDL