MODEL 5
REMARK VINA RESULT: -8.224763083      3.775      7.101
REMARK  15 active torsions:
REMARK  status: ('A' for Active; 'I' for Inactive)
REMARK    1  A    between atoms: C2_2  and  C3_3
REMARK    2  A    between atoms: C2_2  and  N7_29
REMARK    3  A    between atoms: C3_3  and  C4_4
REMARK    4  A    between atoms: C6_6  and  N1_7
REMARK    5  A    between atoms: N3_12  and  O2_13
REMARK    6  A    between atoms: C10_23  and  C11_24
REMARK    7  A    between atoms: N6_25  and  O5_27
REMARK    8  A    between atoms: N7_29  and  C12_31
REMARK    9  A    between atoms: C12_31  and  O6_32
REMARK   10  A    between atoms: C12_31  and  N8_34
REMARK   11  A    between atoms: N8_34  and  O7_35
REMARK   12  A    between atoms: N8_34  and  C13_37
REMARK   13  A    between atoms: C13_37  and  C14_38
REMARK   14  A    between atoms: C14_38  and  C15_39
REMARK   15  A    between atoms: C18_42  and  N9_43
ROOT
HETATM    1  C1  UNL     1      41.107  19.763 -32.948  1.00  0.00     0.032 C
HETATM    2  C2  UNL     1      40.738  21.112 -33.427  1.00  0.00     0.085 C
ENDROOT
BRANCH   2   3
HETATM    3  C3  UNL     1      41.655  21.877 -34.277  1.00  0.00     0.066 C
BRANCH   3   4
HETATM    4  C4  UNL     1      43.084  21.750 -34.145  1.00  0.00    -0.023 A
HETATM    5  C5  UNL     1      43.783  22.417 -33.137  1.00  0.00     0.061 A
HETATM    6  C6  UNL     1      45.146  22.364 -33.018  1.00  0.00     0.146 A
HETATM    7  N4  UNL     1      45.818  21.621 -33.941  1.00  0.00    -0.283 N
HETATM    8  N5  UNL     1      45.201  20.975 -34.907  1.00  0.00    -0.297 N
ATOM      9  H4  UNL     1      46.835  21.564 -33.882  1.00  0.00     0.188 HD
HETATM   10  C10 UNL     1      43.860  21.026 -35.024  1.00  0.00     0.071 A
ATOM     11  H5  UNL     1      45.745  20.428 -35.575  1.00  0.00     0.187 HD
BRANCH   6  12
HETATM   12  N1  UNL     1      45.883  23.027 -31.975  1.00  0.00    -0.194 N
HETATM   13  N2  UNL     1      45.814  24.347 -31.798  1.00  0.00    -0.238 N
HETATM   14  C7  UNL     1      46.496  25.006 -30.853  1.00  0.00     0.369 A
ATOM     15  H2  UNL     1      45.207  24.884 -32.417  1.00  0.00     0.192 HD
HETATM   16  O1  UNL     1      46.403  26.257 -30.723  1.00  0.00    -0.243 OA
HETATM   17  N3  UNL     1      47.326  24.353 -29.993  1.00  0.00    -0.128 N
HETATM   18  C8  UNL     1      47.415  23.016 -30.147  1.00  0.00     0.345 A
HETATM   19  O3  UNL     1      48.171  22.375 -29.371  1.00  0.00    -0.259 OA
HETATM   20  C9  UNL     1      46.696  22.352 -31.134  1.00  0.00     0.339 A
HETATM   21  O4  UNL     1      46.792  21.102 -31.267  1.00  0.00    -0.260 OA
BRANCH  17  22
HETATM   22  O2  UNL     1      48.016  25.038 -29.039  1.00  0.00    -0.276 OA
ATOM     23  H2  UNL     1      48.651  25.700 -29.283  1.00  0.00     0.245 HD
ENDBRANCH  17  22
ENDBRANCH   6  12
BRANCH  10  24
HETATM   24  C11 UNL     1      43.249  20.239 -36.065  1.00  0.00     0.145 C
HETATM   25  N6  UNL     1      43.656  20.346 -37.283  1.00  0.00    -0.278 N
ATOM     26  H6  UNL     1      43.189  19.767 -37.980  1.00  0.00     0.193 HD
BRANCH  25  27
HETATM   27  O5  UNL     1      44.652  21.161 -37.720  1.00  0.00    -0.290 OA
ATOM     28  H5  UNL     1      45.575  20.940 -37.758  1.00  0.00     0.244 HD
ENDBRANCH  25  27
ENDBRANCH  10  24
ENDBRANCH   3   4
ENDBRANCH   2   3
BRANCH   2  29
HETATM   29  N7  UNL     1      40.388  22.002 -32.280  1.00  0.00    -0.350 N
ATOM     30  H7  UNL     1      40.779  22.943 -32.246  1.00  0.00     0.163 HD
BRANCH  29  31
HETATM   31  C12 UNL     1      39.541  21.582 -31.255  1.00  0.00     0.243 C
BRANCH  31  32
HETATM   32  O6  UNL     1      38.266  21.748 -31.530  1.00  0.00    -0.331 OA
ATOM     33  H6  UNL     1      37.692  21.508 -30.813  1.00  0.00     0.221 HD
ENDBRANCH  31  32
BRANCH  31  34
HETATM   34  N8  UNL     1      39.840  21.022 -30.005  1.00  0.00    -0.201 N
BRANCH  34  35
HETATM   35  O7  UNL     1      39.340  19.699 -29.865  1.00  0.00    -0.280 OA
ATOM     36  H7  UNL     1      38.605  19.647 -29.266  1.00  0.00     0.245 HD
ENDBRANCH  34  35
BRANCH  34  37
HETATM   37  C13 UNL     1      40.518  21.450 -28.855  1.00  0.00     0.116 C
BRANCH  37  38
HETATM   38  C14 UNL     1      42.012  21.445 -28.872  1.00  0.00     0.048 C
HETATM   39  C20 UNL     1      42.667  20.623 -27.795  1.00  0.00     0.049 C
HETATM   40  C21 UNL     1      44.081  20.511 -28.356  1.00  0.00     0.233 C
HETATM   41  N11 UNL     1      44.028  20.943 -29.744  1.00  0.00    -0.074 N
HETATM   42  C22 UNL     1      42.610  20.725 -30.083  1.00  0.00     0.252 C
ATOM     43 2H11 UNL     1      44.371  21.888 -29.915  1.00  0.00     0.277 HD
ATOM     44 1H11 UNL     1      44.694  20.483 -30.365  1.00  0.00     0.277 HD
BRANCH  38  45
HETATM   45  C15 UNL     1      42.504  22.821 -28.905  1.00  0.00    -0.027 A
HETATM   46  C16 UNL     1      42.971  23.418 -27.711  1.00  0.00     0.013 A
HETATM   47  C17 UNL     1      43.420  24.716 -27.709  1.00  0.00     0.048 A
HETATM   48  C18 UNL     1      43.428  25.470 -28.863  1.00  0.00     0.098 A
HETATM   49  N10 UNL     1      42.984  24.895 -29.991  1.00  0.00    -0.352 N
HETATM   50  C19 UNL     1      42.535  23.607 -30.012  1.00  0.00     0.098 A
ATOM     51  H10 UNL     1      42.981  25.435 -30.856  1.00  0.00     0.166 HD
BRANCH  48  52
HETATM   52  N9  UNL     1      43.851  26.712 -28.853  1.00  0.00    -0.385 N
ATOM     53  H92 UNL     1      44.801  26.951 -29.136  1.00  0.00     0.157 HD
ATOM     54  H91 UNL     1      43.235  27.472 -28.564  1.00  0.00     0.157 HD
ENDBRANCH  48  52
ENDBRANCH  38  45
ENDBRANCH  37  38
ENDBRANCH  34  37
ENDBRANCH  31  34
ENDBRANCH  29  31
ENDBRANCH   2  29
TORSDOF 15
ENDMDL