MODEL 3
REMARK VINA RESULT: -7.531127451      3.326      7.931
REMARK  15 active torsions:
REMARK  status: ('A' for Active; 'I' for Inactive)
REMARK    1  A    between atoms: C4_6  and  N2_7
REMARK    2  A    between atoms: N3_10  and  C5_11
REMARK    3  A    between atoms: C5_11  and  C6_12
REMARK    4  A    between atoms: C5_11  and  C7_19
REMARK    5  A    between atoms: C6_12  and  N4_13
REMARK    6  A    between atoms: C6_12  and  O3_17
REMARK    7  A    between atoms: C7_19  and  O4_20
REMARK    8  A    between atoms: C7_19  and  C8_22
REMARK    9  A    between atoms: C8_22  and  C11_36
REMARK       I    between atoms: N5_23  and  C9_25
REMARK   10  A    between atoms: N7_27  and  C10_29
REMARK   11  A    between atoms: C10_29  and  O5_30
REMARK   12  A    between atoms: N8_32  and  O6_34
REMARK       I    between atoms: C11_36  and  N9_38
REMARK   13  A    between atoms: N9_38  and  S1_40
REMARK   14  A    between atoms: S1_40  and  C12_43
REMARK   15  A    between atoms: C15_46  and  O10_47
ROOT
HETATM    1  C8  UNL     1      44.480  22.371 -32.066  1.00  0.00     0.115 C
HETATM    2  N5  UNL     1      45.197  22.377 -33.079  1.00  0.00    -0.327 N
ATOM      3  H5  UNL     1      44.859  21.795 -33.845  1.00  0.00     0.168 HD
HETATM    4  C9  UNL     1      46.383  23.045 -33.338  1.00  0.00     0.196 C
HETATM    5  N6  UNL     1      47.667  22.553 -32.981  1.00  0.00    -0.063 NA
HETATM    6  N7  UNL     1      46.343  24.198 -33.961  1.00  0.00    -0.295 N
ATOM      7  H7  UNL     1      45.445  24.587 -34.244  1.00  0.00     0.172 HD
ENDROOT
BRANCH   1   8
HETATM    8  C7  UNL     1      43.242  21.626 -31.892  1.00  0.00     0.224 C
BRANCH   8   9
HETATM    9  C5  UNL     1      42.014  22.196 -31.330  1.00  0.00     0.087 C
BRANCH   9  10
HETATM   10  N3  UNL     1      41.324  21.454 -30.295  1.00  0.00    -0.281 N
HETATM   11  C2  UNL     1      41.243  21.645 -28.978  1.00  0.00     0.085 A
HETATM   12  C1  UNL     1      41.943  22.628 -28.145  1.00  0.00     0.089 C
HETATM   13  N1  UNL     1      40.440  20.692 -28.407  1.00  0.00    -0.352 N
HETATM   14  C3  UNL     1      40.001  19.876 -29.355  1.00  0.00     0.144 A
ATOM     15  H1  UNL     1      40.217  20.621 -27.415  1.00  0.00     0.166 HD
HETATM   16  C4  UNL     1      40.553  20.338 -30.556  1.00  0.00     0.197 A
BRANCH  16  17
HETATM   17  N2  UNL     1      40.319  19.622 -31.750  1.00  0.00    -0.096 N
HETATM   18  O1  UNL     1      41.175  18.714 -32.063  1.00  0.00    -0.530 OA
HETATM   19  O2  UNL     1      39.293  19.758 -32.639  1.00  0.00    -0.530 OA
ENDBRANCH  16  17
ENDBRANCH   9  10
BRANCH   9  20
HETATM   20  C6  UNL     1      41.074  22.902 -32.273  1.00  0.00     0.366 C
BRANCH  20  21
HETATM   21  N4  UNL     1      41.145  22.270 -33.577  1.00  0.00    -0.048 N
ATOM     22  H43 UNL     1      42.074  21.901 -33.779  1.00  0.00     0.277 HD
ATOM     23  H42 UNL     1      40.631  21.390 -33.609  1.00  0.00     0.277 HD
ATOM     24  H41 UNL     1      40.828  22.930 -34.286  1.00  0.00     0.277 HD
ENDBRANCH  20  21
BRANCH  20  25
HETATM   25  O3  UNL     1      41.522  24.211 -32.464  1.00  0.00    -0.365 OA
ATOM     26  H3  UNL     1      40.835  24.715 -32.884  1.00  0.00     0.212 HD
ENDBRANCH  20  25
ENDBRANCH   9  20
ENDBRANCH   8   9
BRANCH   8  27
HETATM   27  O4  UNL     1      43.599  20.468 -31.123  1.00  0.00    -0.383 OA
ATOM     28  H4  UNL     1      43.861  19.778 -31.722  1.00  0.00     0.211 HD
ENDBRANCH   8  27
ENDBRANCH   1   8
BRANCH   1  29
HETATM   29  C11 UNL     1      44.884  23.225 -30.939  1.00  0.00     0.280 C
HETATM   30  O7  UNL     1      44.738  24.469 -31.006  1.00  0.00    -0.265 OA
HETATM   31  N9  UNL     1      45.441  22.726 -29.756  1.00  0.00    -0.245 N
ATOM     32  H9  UNL     1      45.568  21.717 -29.689  1.00  0.00     0.182 HD
BRANCH  31  33
HETATM   33  S1  UNL     1      45.931  23.675 -28.403  1.00  0.00     0.265 S
HETATM   34  O8  UNL     1      44.693  24.437 -27.951  1.00  0.00    -0.200 OA
HETATM   35  O9  UNL     1      46.902  24.762 -28.843  1.00  0.00    -0.200 OA
BRANCH  33  36
HETATM   36  C12 UNL     1      46.626  22.757 -27.110  1.00  0.00     0.080 A
HETATM   37  C13 UNL     1      45.932  21.698 -26.543  1.00  0.00     0.028 A
HETATM   38  C14 UNL     1      46.449  20.951 -25.508  1.00  0.00     0.038 A
HETATM   39  C15 UNL     1      47.692  21.237 -24.995  1.00  0.00     0.065 A
HETATM   40  C16 UNL     1      48.401  22.278 -25.536  1.00  0.00     0.038 A
HETATM   41  C17 UNL     1      47.866  23.012 -26.569  1.00  0.00     0.028 A
BRANCH  39  42
HETATM   42  O10 UNL     1      48.229  20.479 -23.935  1.00  0.00    -0.361 OA
ATOM     43  H10 UNL     1      48.522  20.897 -23.135  1.00  0.00     0.217 HD
ENDBRANCH  39  42
ENDBRANCH  33  36
ENDBRANCH  31  33
ENDBRANCH   1  29
BRANCH   6  44
HETATM   44  C10 UNL     1      47.542  24.914 -34.246  1.00  0.00     0.243 C
HETATM   45  N8  UNL     1      48.060  25.745 -33.431  1.00  0.00    -0.233 N
ATOM     46  H8  UNL     1      47.602  25.911 -32.534  1.00  0.00     0.198 HD
BRANCH  44  47
HETATM   47  O5  UNL     1      48.148  24.667 -35.480  1.00  0.00    -0.331 OA
ATOM     48  H5  UNL     1      48.972  24.194 -35.468  1.00  0.00     0.221 HD
ENDBRANCH  44  47
BRANCH  45  49
HETATM   49  O6  UNL     1      49.221  26.428 -33.725  1.00  0.00    -0.287 OA
ATOM     50  H6  UNL     1      49.368  27.319 -33.431  1.00  0.00     0.244 HD
ENDBRANCH  45  49
ENDBRANCH   6  44
TORSDOF 15
ENDMDL