MODEL 1
REMARK VINA RESULT: -8.425243744      0.000      0.000
REMARK  7 active torsions:
REMARK  status: ('A' for Active; 'I' for Inactive)
REMARK    1  A    between atoms: N3_4  and  N4_6
REMARK    2  A    between atoms: N4_6  and  C2_8
REMARK    3  A    between atoms: C2_8  and  C3_9
REMARK    4  A    between atoms: C6_12  and  O1_13
REMARK    5  A    between atoms: O1_13  and  S1_14
REMARK    6  A    between atoms: S1_14  and  C7_17
REMARK    7  A    between atoms: C8_18  and  C9_19
ROOT
HETATM    1  C3  UNL     1      -1.077   7.245  12.274  1.00  0.00    -0.039 A
HETATM    2  C4  UNL     1      -0.885   5.932  12.699  1.00  0.00     0.011 A
HETATM    3  C5  UNL     1      -1.740   5.322  13.594  1.00  0.00     0.039 A
HETATM    4  C6  UNL     1      -2.821   6.024  14.090  1.00  0.00     0.089 A
HETATM    5  C13 UNL     1      -2.997   7.315  13.663  1.00  0.00     0.039 A
HETATM    6  C14 UNL     1      -2.152   7.953  12.763  1.00  0.00     0.011 A
ENDROOT
BRANCH   4   7
HETATM    7  O1  UNL     1      -3.709   5.424  15.006  1.00  0.00    -0.230 OA
BRANCH   7   8
HETATM    8  S1  UNL     1      -3.816   6.233  16.550  1.00  0.00     0.293 S
HETATM    9  O2  UNL     1      -4.783   7.352  16.291  1.00  0.00    -0.194 OA
HETATM   10  O3  UNL     1      -4.355   5.219  17.529  1.00  0.00    -0.194 OA
BRANCH   8  11
HETATM   11  C7  UNL     1      -2.258   6.737  17.068  1.00  0.00     0.141 C
HETATM   12  C8  UNL     1      -1.168   6.066  17.298  1.00  0.00     0.043 C
BRANCH  12  13
HETATM   13  C9  UNL     1      -0.868   4.669  17.206  1.00  0.00     0.032 A
HETATM   14  C10 UNL     1       0.344   4.207  16.662  1.00  0.00     0.031 A
HETATM   15  C11 UNL     1       0.354   2.835  16.702  1.00  0.00     0.019 A
HETATM   16  C12 UNL     1      -0.830   2.441  17.263  1.00  0.00     0.088 A
HETATM   17  N5  UNL     1      -1.525   3.586  17.546  1.00  0.00    -0.366 N
ATOM     18  H5  UNL     1      -2.451   3.595  17.975  1.00  0.00     0.165 HD
ENDBRANCH  12  13
ENDBRANCH   8  11
ENDBRANCH   7   8
ENDBRANCH   4   7
BRANCH   1  19
HETATM   19  C2  UNL     1      -0.165   7.903  11.324  1.00  0.00     0.177 C
BRANCH  19  20
HETATM   20  N4  UNL     1      -0.681   9.218  11.015  1.00  0.00    -0.330 N
ATOM     21  H4  UNL     1      -1.637   9.455  11.281  1.00  0.00     0.180 HD
BRANCH  20  22
HETATM   22  N3  UNL     1       0.099  10.159  10.365  1.00  0.00    -0.280 N
HETATM   23  C1  UNL     1      -0.212  10.536   9.187  1.00  0.00     0.215 C
HETATM   24  N1  UNL     1      -1.345  10.003   8.532  1.00  0.00    -0.065 NA
HETATM   25  N2  UNL     1       0.588  11.497   8.528  1.00  0.00    -0.065 NA
ATOM     26  H3  UNL     1       0.920  10.550  10.828  1.00  0.00     0.189 HD
ENDBRANCH  20  22
ENDBRANCH  19  20
ENDBRANCH   1  19
TORSDOF 7
ENDMDL