MODEL 5
REMARK VINA RESULT: -7.967591894      1.019      1.447
REMARK  10 active torsions:
REMARK  status: ('A' for Active; 'I' for Inactive)
REMARK    1  A    between atoms: N1_1  and  C1_5
REMARK    2  A    between atoms: C1_5  and  C2_6
REMARK    3  A    between atoms: C1_5  and  C3_8
REMARK    4  A    between atoms: C6_11  and  O2_12
REMARK    5  A    between atoms: O2_12  and  C7_13
REMARK    6  A    between atoms: C7_13  and  C8_14
REMARK    7  A    between atoms: C8_14  and  O3_15
REMARK    8  A    between atoms: C8_14  and  C9_17
REMARK    9  A    between atoms: C9_17  and  N2_18
REMARK   10  A    between atoms: N2_18  and  C10_20
ROOT
HETATM    1  C8  UNL     1       1.581   4.465  11.722  1.00  0.00     0.160 C
ENDROOT
BRANCH   1   2
HETATM    2  C7  UNL     1       0.357   4.628  10.844  1.00  0.00     0.209 C
BRANCH   2   3
HETATM    3  O2  UNL     1      -0.442   5.638  11.385  1.00  0.00    -0.349 OA
BRANCH   3   4
HETATM    4  C6  UNL     1      -0.623   6.876  10.785  1.00  0.00     0.068 A
HETATM    5  C5  UNL     1      -0.026   7.105   9.570  1.00  0.00     0.037 A
HETATM    6  C4  UNL     1      -0.222   8.357   8.986  1.00  0.00     0.012 A
HETATM    7  C3  UNL     1      -0.980   9.329   9.594  1.00  0.00    -0.021 A
HETATM    8  C18 UNL     1      -1.565   9.070  10.814  1.00  0.00     0.012 A
HETATM    9  C17 UNL     1      -1.391   7.824  11.429  1.00  0.00     0.037 A
BRANCH   7  10
HETATM   10  C1  UNL     1      -1.135  10.633   8.900  1.00  0.00     0.277 C
BRANCH  10  11
HETATM   11  N1  UNL     1      -2.390  11.224   9.320  1.00  0.00    -0.065 N
ATOM     12  H13 UNL     1      -2.256  11.899  10.071  1.00  0.00     0.275 HD
ATOM     13  H12 UNL     1      -2.766  11.854   8.611  1.00  0.00     0.275 HD
ATOM     14  H11 UNL     1      -3.064  10.503   9.577  1.00  0.00     0.275 HD
ENDBRANCH  10  11
BRANCH  10  15
HETATM   15  C2  UNL     1      -0.003  11.542   9.180  1.00  0.00     0.268 C
HETATM   16  O1  UNL     1       0.937  11.595   8.418  1.00  0.00    -0.304 OA
ENDBRANCH  10  15
ENDBRANCH   7  10
ENDBRANCH   3   4
ENDBRANCH   2   3
ENDBRANCH   1   2
BRANCH   1  17
HETATM   17  O3  UNL     1       2.365   3.472  11.134  1.00  0.00    -0.392 OA
ATOM     18  H3  UNL     1       3.079   3.917  10.693  1.00  0.00     0.210 HD
ENDBRANCH   1  17
BRANCH   1  19
HETATM   19  C9  UNL     1       1.222   3.983  13.103  1.00  0.00     0.172 C
BRANCH  19  20
HETATM   20  N2  UNL     1       1.055   5.083  14.027  1.00  0.00    -0.223 N
ATOM     21  H2  UNL     1       1.879   5.549  14.407  1.00  0.00     0.177 HD
BRANCH  20  22
HETATM   22  C10 UNL     1      -0.103   5.481  14.376  1.00  0.00     0.679 A
HETATM   23  N3  UNL     1      -1.266   4.923  14.026  1.00  0.00    -0.190 N
HETATM   24  C11 UNL     1      -2.284   5.627  14.592  1.00  0.00     0.076 A
ATOM     25  H3  UNL     1      -1.374   4.101  13.431  1.00  0.00     0.184 HD
HETATM   26  C12 UNL     1      -3.653   5.470  14.546  1.00  0.00     0.032 A
HETATM   27  C16 UNL     1      -1.718   6.659  15.318  1.00  0.00     0.076 A
HETATM   28  C13 UNL     1      -4.433   6.372  15.245  1.00  0.00     0.002 A
HETATM   29  C14 UNL     1      -3.899   7.407  15.975  1.00  0.00     0.002 A
HETATM   30  C15 UNL     1      -2.522   7.546  16.007  1.00  0.00     0.032 A
HETATM   31  N4  UNL     1      -0.386   6.529  15.156  1.00  0.00    -0.190 N
ATOM     32  H4  UNL     1       0.312   7.146  15.571  1.00  0.00     0.184 HD
ENDBRANCH  20  22
ENDBRANCH  19  20
ENDBRANCH   1  19
TORSDOF 10
ENDMDL