MODEL 5
REMARK VINA RESULT: -7.677735259      0.952      1.448
REMARK  9 active torsions:
REMARK  status: ('A' for Active; 'I' for Inactive)
REMARK    1  A    between atoms: C2_2  and  C3_3
REMARK    2  A    between atoms: C2_2  and  C6_7
REMARK    3  A    between atoms: C3_3  and  C4_4
REMARK    4  A    between atoms: C4_4  and  C5_5
REMARK    5  A    between atoms: C6_7  and  N1_8
REMARK    6  A    between atoms: C6_7  and  C16_28
REMARK       I    between atoms: N1_8  and  C7_10
REMARK    7  A    between atoms: C7_10  and  C8_12
REMARK    8  A    between atoms: C8_12  and  N2_13
REMARK    9  A    between atoms: C8_12  and  C9_17
ROOT
HETATM    1  C8  UNL     1       0.003   6.188  11.209  1.00  0.00     0.309 C
ENDROOT
BRANCH   1   2
HETATM    2  C7  UNL     1      -0.564   5.723  12.473  1.00  0.00     0.254 C
HETATM    3  N1  UNL     1      -0.665   6.550  13.620  1.00  0.00    -0.341 N
ATOM      4  H1  UNL     1      -0.297   7.498  13.540  1.00  0.00     0.163 HD
HETATM    5  O2  UNL     1      -0.996   4.529  12.558  1.00  0.00    -0.271 OA
BRANCH   3   6
HETATM    6  C6  UNL     1      -1.239   6.176  14.894  1.00  0.00     0.215 C
BRANCH   6   7
HETATM    7  C2  UNL     1      -2.551   6.874  15.051  1.00  0.00    -0.051 C
HETATM    8  C1  UNL     1      -2.320   8.346  14.855  1.00  0.00     0.046 C
BRANCH   7   9
HETATM    9  C3  UNL     1      -3.733   6.266  14.539  1.00  0.00     0.008 C
BRANCH   9  10
HETATM   10  C4  UNL     1      -4.390   5.180  14.811  1.00  0.00     0.041 C
BRANCH  10  11
HETATM   11  C5  UNL     1      -3.895   3.837  14.864  1.00  0.00     0.258 C
HETATM   12  O1  UNL     1      -3.191   3.467  15.876  1.00  0.00    -0.302 OA
ENDBRANCH  10  11
ENDBRANCH   9  10
ENDBRANCH   7   9
ENDBRANCH   6   7
BRANCH   6  13
HETATM   13  C16 UNL     1      -0.333   6.127  16.016  1.00  0.00     0.201 C
HETATM   14  O3  UNL     1       0.922   5.962  15.808  1.00  0.00    -0.646 OA
HETATM   15  O4  UNL     1      -0.695   6.245  17.336  1.00  0.00    -0.646 OA
ENDBRANCH   6  13
ENDBRANCH   3   6
ENDBRANCH   1   2
BRANCH   1  16
HETATM   16  N2  UNL     1       1.456   6.265  11.318  1.00  0.00    -0.062 N
ATOM     17  H23 UNL     1       1.872   5.362  11.541  1.00  0.00     0.275 HD
ATOM     18  H22 UNL     1       1.901   6.412  10.412  1.00  0.00     0.275 HD
ATOM     19  H21 UNL     1       1.715   6.984  11.993  1.00  0.00     0.275 HD
ENDBRANCH   1  16
BRANCH   1  20
HETATM   20  C9  UNL     1      -0.505   7.478  10.717  1.00  0.00    -0.003 A
HETATM   21  C10 UNL     1       0.120   8.672  10.935  1.00  0.00     0.099 A
HETATM   22  N3  UNL     1      -0.412   9.847  10.470  1.00  0.00    -0.351 N
HETATM   23  C11 UNL     1      -1.576   9.876   9.778  1.00  0.00     0.115 A
ATOM     24  H3  UNL     1       0.082  10.722  10.650  1.00  0.00     0.166 HD
HETATM   25  N4  UNL     1      -2.275  10.884   9.244  1.00  0.00    -0.352 N
HETATM   26  C14 UNL     1      -2.236   8.688   9.540  1.00  0.00     0.010 A
HETATM   27  C12 UNL     1      -3.400  10.409   8.641  1.00  0.00     0.090 A
ATOM     28  H4  UNL     1      -2.004  11.866   9.284  1.00  0.00     0.166 HD
HETATM   29  C13 UNL     1      -3.361   9.048   8.834  1.00  0.00     0.032 A
HETATM   30  C15 UNL     1      -1.688   7.498  10.014  1.00  0.00     0.026 A
ENDBRANCH   1  20
TORSDOF 9
ENDMDL