MODEL 1
REMARK VINA RESULT: -8.006592503      0.000      0.000
REMARK  8 active torsions:
REMARK  status: ('A' for Active; 'I' for Inactive)
REMARK    1  A    between atoms: N1_2  and  C2_4
REMARK    2  A    between atoms: C2_4  and  C13_24
REMARK    3  A    between atoms: C3_5  and  O1_6
REMARK    4  A    between atoms: C3_5  and  N2_8
REMARK    5  A    between atoms: N2_8  and  C4_10
REMARK    6  A    between atoms: C4_10  and  C6_12
REMARK    7  A    between atoms: C9_15  and  N3_16
REMARK    8  A    between atoms: N3_16  and  S1_18
ROOT
HETATM    1  C4  UNL     1       0.623   5.923  13.331  1.00  0.00     0.113 C
HETATM    2  C5  UNL     1       1.590   4.812  12.724  1.00  0.00     0.037 C
ENDROOT
BRANCH   1   3
HETATM    3  N2  UNL     1      -0.448   5.178  13.950  1.00  0.00    -0.361 N
ATOM      4  H2  UNL     1      -0.828   4.357  13.480  1.00  0.00     0.162 HD
BRANCH   3   5
HETATM    5  C3  UNL     1      -0.969   5.568  15.180  1.00  0.00     0.159 C
HETATM    6  C2  UNL     1      -2.128   5.138  15.919  1.00  0.00     0.059 C
BRANCH   6   7
HETATM    7  N1  UNL     1      -2.361   3.843  16.372  1.00  0.00    -0.394 N
HETATM    8  C1  UNL     1      -1.495   3.253  17.326  1.00  0.00     0.146 C
ATOM      9  H1  UNL     1      -3.158   3.316  16.017  1.00  0.00     0.159 HD
ENDBRANCH   6   7
BRANCH   6  10
HETATM   10  C13 UNL     1      -3.270   6.076  15.926  1.00  0.00     0.031 C
HETATM   11  C14 UNL     1      -4.027   6.284  14.628  1.00  0.00     0.016 C
HETATM   12  C15 UNL     1      -4.196   5.851  17.117  1.00  0.00     0.016 C
ENDBRANCH   6  10
BRANCH   5  13
HETATM   13  O1  UNL     1      -0.280   6.484  15.813  1.00  0.00    -0.345 OA
ATOM     14  H1  UNL     1       0.648   6.449  15.610  1.00  0.00     0.219 HD
ENDBRANCH   5  13
ENDBRANCH   3   5
ENDBRANCH   1   3
BRANCH   1  15
HETATM   15  C6  UNL     1       0.295   6.757  12.167  1.00  0.00    -0.036 A
HETATM   16  C7  UNL     1       0.935   6.689  10.963  1.00  0.00     0.011 A
HETATM   17  C8  UNL     1       0.422   7.344   9.845  1.00  0.00     0.031 A
HETATM   18  C9  UNL     1      -0.710   8.073   9.875  1.00  0.00     0.042 A
HETATM   19  C11 UNL     1      -1.355   8.147  11.113  1.00  0.00     0.031 A
HETATM   20  C12 UNL     1      -0.908   7.529  12.243  1.00  0.00     0.011 A
BRANCH  18  21
HETATM   21  N3  UNL     1      -1.287   8.731   8.782  1.00  0.00    -0.285 N
ATOM     22  H3  UNL     1      -1.740   8.136   8.087  1.00  0.00     0.178 HD
BRANCH  21  23
HETATM   23  S1  UNL     1      -1.322  10.400   8.478  1.00  0.00     0.227 S
HETATM   24  C10 UNL     1      -0.120  11.357   9.315  1.00  0.00     0.186 C
HETATM   25  O2  UNL     1      -2.701  10.987   8.761  1.00  0.00    -0.206 OA
HETATM   26  O3  UNL     1      -1.111  10.652   6.989  1.00  0.00    -0.206 OA
ENDBRANCH  21  23
ENDBRANCH  18  21
ENDBRANCH   1  15
TORSDOF 8
ENDMDL