MODEL 3
REMARK VINA RESULT: -7.340395475      1.452      1.925
REMARK  8 active torsions:
REMARK  status: ('A' for Active; 'I' for Inactive)
REMARK    1  A    between atoms: N1_1  and  C1_5
REMARK    2  A    between atoms: C1_5  and  C2_6
REMARK       I    between atoms: C2_6  and  N2_8
REMARK    3  A    between atoms: N2_8  and  C3_10
REMARK    4  A    between atoms: C6_13  and  S1_14
REMARK    5  A    between atoms: S1_14  and  N3_17
REMARK    6  A    between atoms: N3_17  and  N4_19
REMARK    7  A    between atoms: N4_19  and  C7_20
REMARK    8  A    between atoms: C7_20  and  C8_21
ROOT
HETATM    1  C3  UNL     1      -1.326   7.983  13.145  1.00  0.00     0.034 A
HETATM    2  C4  UNL     1      -0.400   7.613  14.077  1.00  0.00     0.031 A
HETATM    3  C5  UNL     1      -0.747   6.687  15.048  1.00  0.00     0.027 A
HETATM    4  C6  UNL     1      -1.995   6.121  15.107  1.00  0.00     0.081 A
HETATM    5  C14 UNL     1      -2.908   6.514  14.150  1.00  0.00     0.027 A
HETATM    6  C15 UNL     1      -2.608   7.421  13.181  1.00  0.00     0.031 A
ENDROOT
BRANCH   4   7
HETATM    7  S1  UNL     1      -2.344   4.967  16.359  1.00  0.00     0.273 S
HETATM    8  O2  UNL     1      -3.423   4.043  15.875  1.00  0.00    -0.199 OA
HETATM    9  O3  UNL     1      -2.892   5.720  17.546  1.00  0.00    -0.199 OA
BRANCH   7  10
HETATM   10  N3  UNL     1      -0.947   4.082  16.827  1.00  0.00    -0.227 N
ATOM     11  H3  UNL     1      -0.291   4.377  17.551  1.00  0.00     0.195 HD
BRANCH  10  12
HETATM   12  N4  UNL     1      -0.828   2.905  16.083  1.00  0.00    -0.127 NA
BRANCH  12  13
HETATM   13  C7  UNL     1       0.510   2.850  15.495  1.00  0.00     0.174 C
BRANCH  13  14
HETATM   14  C8  UNL     1       0.484   3.490  14.154  1.00  0.00    -0.042 A
HETATM   15  C9  UNL     1       1.589   4.223  13.773  1.00  0.00     0.008 A
HETATM   16  C10 UNL     1       1.624   4.834  12.551  1.00  0.00     0.001 A
HETATM   17  C11 UNL     1       0.557   4.723  11.693  1.00  0.00     0.000 A
HETATM   18  C12 UNL     1      -0.528   3.996  12.085  1.00  0.00     0.001 A
HETATM   19  C13 UNL     1      -0.608   3.360  13.312  1.00  0.00     0.008 A
ENDBRANCH  13  14
ENDBRANCH  12  13
ENDBRANCH  10  12
ENDBRANCH   7  10
ENDBRANCH   4   7
BRANCH   1  20
HETATM   20  N2  UNL     1      -1.090   8.928  12.134  1.00  0.00    -0.326 N
HETATM   21  C2  UNL     1      -0.897   8.592  10.784  1.00  0.00     0.247 C
HETATM   22  O1  UNL     1      -0.902   7.441  10.327  1.00  0.00    -0.271 OA
ATOM     23  H2  UNL     1      -1.058   9.914  12.395  1.00  0.00     0.169 HD
BRANCH  21  24
HETATM   24  C1  UNL     1      -0.657   9.699   9.762  1.00  0.00     0.332 C
BRANCH  24  25
HETATM   25  N1  UNL     1      -0.862  10.937  10.438  1.00  0.00    -0.071 N
ATOM     26  H13 UNL     1      -1.568  11.524   9.994  1.00  0.00     0.274 HD
ATOM     27  H12 UNL     1      -1.329  10.830  11.338  1.00  0.00     0.274 HD
ATOM     28  H11 UNL     1       0.050  11.389  10.509  1.00  0.00     0.274 HD
ENDBRANCH  24  25
ENDBRANCH  21  24
ENDBRANCH   1  20
TORSDOF 8
ENDMDL