MODEL 5
REMARK VINA RESULT: -7.227690233      1.128      1.359
REMARK  10 active torsions:
REMARK  status: ('A' for Active; 'I' for Inactive)
REMARK    1  A    between atoms: C2_2  and  C4_4
REMARK    2  A    between atoms: C4_4  and  C5_5
REMARK    3  A    between atoms: C5_5  and  O1_6
REMARK    4  A    between atoms: O1_6  and  C6_7
REMARK    5  A    between atoms: C8_11  and  N2_12
REMARK    6  A    between atoms: C9_15  and  N3_16
REMARK    7  A    between atoms: N3_16  and  S1_18
REMARK    8  A    between atoms: S1_18  and  C10_21
REMARK    9  A    between atoms: C10_21  and  C12_23
REMARK   10  A    between atoms: C12_23  and  N4_26
ROOT
HETATM    1  C6  UNL     1      -0.332   7.750  11.854  1.00  0.00     0.159 A
HETATM    2  C7  UNL     1       0.372   6.788  11.133  1.00  0.00     0.145 A
HETATM    3  N1  UNL     1       0.916   5.733  11.754  1.00  0.00    -0.345 N
ATOM      4  H1  UNL     1       1.429   5.030  11.223  1.00  0.00     0.167 HD
HETATM    5  C8  UNL     1       0.775   5.612  13.091  1.00  0.00     0.144 A
HETATM    6  C9  UNL     1       0.083   6.558  13.809  1.00  0.00     0.161 A
HETATM    7  N5  UNL     1      -0.474   7.639  13.166  1.00  0.00    -0.318 N
ATOM      8  H5  UNL     1      -0.990   8.345  13.692  1.00  0.00     0.169 HD
ENDROOT
BRANCH   6   9
HETATM    9  N3  UNL     1      -0.081   6.502  15.048  1.00  0.00    -0.266 N
ATOM     10  H3  UNL     1       0.799   6.318  15.529  1.00  0.00     0.180 HD
BRANCH   9  11
HETATM   11  S1  UNL     1      -1.334   6.645  16.119  1.00  0.00     0.238 S
HETATM   12  O2  UNL     1      -0.801   6.729  17.546  1.00  0.00    -0.205 OA
HETATM   13  O3  UNL     1      -2.251   7.822  15.955  1.00  0.00    -0.205 OA
BRANCH  11  14
HETATM   14  C10 UNL     1      -2.408   5.206  16.129  1.00  0.00     0.160 C
HETATM   15  C11 UNL     1      -1.739   3.998  15.570  1.00  0.00     0.031 C
BRANCH  14  16
HETATM   16  C12 UNL     1      -3.694   5.576  15.467  1.00  0.00     0.134 C
HETATM   17  C13 UNL     1      -4.416   4.291  15.039  1.00  0.00     0.047 C
HETATM   18  C14 UNL     1      -3.550   6.412  14.236  1.00  0.00     0.047 C
BRANCH  16  19
HETATM   19  N4  UNL     1      -4.526   6.285  16.412  1.00  0.00    -0.070 N
ATOM     20  H43 UNL     1      -5.330   6.726  15.967  1.00  0.00     0.275 HD
ATOM     21  H42 UNL     1      -5.034   5.654  17.032  1.00  0.00     0.275 HD
ATOM     22  H41 UNL     1      -3.952   6.953  16.926  1.00  0.00     0.275 HD
ENDBRANCH  16  19
ENDBRANCH  14  16
ENDBRANCH  11  14
ENDBRANCH   9  11
ENDBRANCH   6   9
BRANCH   5  23
HETATM   23  N2  UNL     1       1.315   4.571  13.693  1.00  0.00    -0.382 N
ATOM     24  H22 UNL     1       1.492   4.582  14.697  1.00  0.00     0.157 HD
ATOM     25  H21 UNL     1       1.554   3.752  13.134  1.00  0.00     0.157 HD
ENDBRANCH   5  23
BRANCH   1  26
HETATM   26  O1  UNL     1      -0.898   8.845  11.214  1.00  0.00    -0.335 OA
BRANCH  26  27
HETATM   27  C5  UNL     1      -1.309   8.719   9.888  1.00  0.00     0.178 C
BRANCH  27  28
HETATM   28  C4  UNL     1      -0.439   9.413   8.900  1.00  0.00     0.030 C
BRANCH  28  29
HETATM   29  C2  UNL     1      -1.300  10.454   8.179  1.00  0.00    -0.021 C
HETATM   30  C1  UNL     1      -0.657  11.796   8.412  1.00  0.00     0.009 C
HETATM   31  C3  UNL     1      -2.717  10.391   8.650  1.00  0.00     0.009 C
ENDBRANCH  28  29
ENDBRANCH  27  28
ENDBRANCH  26  27
ENDBRANCH   1  26
TORSDOF 10
ENDMDL