MODEL 2
REMARK VINA RESULT: -8.209350325      1.564      2.705
REMARK  7 active torsions:
REMARK  status: ('A' for Active; 'I' for Inactive)
REMARK    1  A    between atoms: O1_2  and  C2_3
REMARK    2  A    between atoms: C4_5  and  C5_6
REMARK    3  A    between atoms: C5_6  and  N1_7
REMARK    4  A    between atoms: N1_7  and  C6_9
REMARK    5  A    between atoms: C10_19  and  N5_20
REMARK       I    between atoms: N5_20  and  C11_22
REMARK    6  A    between atoms: C11_22  and  C12_24
REMARK    7  A    between atoms: C12_24  and  N6_26
REMARK       I    between atoms: N6_26  and  C14_28
ROOT
HETATM    1  C2  UNL     1      -0.573   6.200  12.418  1.00  0.00     0.095 A
HETATM    2  C3  UNL     1      -0.590   6.612  11.110  1.00  0.00     0.048 A
HETATM    3  C4  UNL     1      -1.208   7.770  10.697  1.00  0.00    -0.038 A
HETATM    4  C8  UNL     1      -1.838   8.550  11.641  1.00  0.00     0.011 A
HETATM    5  C9  UNL     1      -1.823   8.132  12.977  1.00  0.00     0.033 A
HETATM    6  C10 UNL     1      -1.207   6.975  13.398  1.00  0.00     0.068 A
ENDROOT
BRANCH   3   7
HETATM    7  C5  UNL     1      -1.183   8.154   9.251  1.00  0.00     0.160 C
BRANCH   7   8
HETATM    8  N1  UNL     1      -0.121   9.057   8.948  1.00  0.00    -0.370 N
ATOM      9  H1  UNL     1       0.734   8.678   8.540  1.00  0.00     0.161 HD
BRANCH   8  10
HETATM   10  C6  UNL     1      -0.185  10.335   9.161  1.00  0.00     0.134 A
HETATM   11  C7  UNL     1      -0.848  11.253   8.380  1.00  0.00     0.158 A
HETATM   12  N2  UNL     1      -0.648  12.464   8.979  1.00  0.00    -0.294 N
HETATM   13  N3  UNL     1       0.090  12.309  10.058  1.00  0.00    -0.241 N
ATOM     14  H2  UNL     1      -1.015  13.353   8.640  1.00  0.00     0.187 HD
HETATM   15  N4  UNL     1       0.367  11.037  10.167  1.00  0.00    -0.270 N
ATOM     16  H3  UNL     1       0.391  13.048  10.694  1.00  0.00     0.208 HD
ATOM     17  H4  UNL     1       0.927  10.630  10.916  1.00  0.00     0.190 HD
ENDBRANCH   8  10
ENDBRANCH   7   8
ENDBRANCH   3   7
BRANCH   1  18
HETATM   18  O1  UNL     1       0.058   5.025  12.818  1.00  0.00    -0.354 OA
HETATM   19  C1  UNL     1       1.468   4.945  12.726  1.00  0.00     0.210 C
ENDBRANCH   1  18
BRANCH   6  20
HETATM   20  N5  UNL     1      -1.168   6.516  14.738  1.00  0.00    -0.323 N
HETATM   21  C11 UNL     1      -2.098   5.730  15.410  1.00  0.00     0.244 C
HETATM   22  O2  UNL     1      -3.151   5.294  14.913  1.00  0.00    -0.271 OA
ATOM     23  H5  UNL     1      -0.352   6.798  15.280  1.00  0.00     0.169 HD
BRANCH  21  24
HETATM   24  C12 UNL     1      -1.845   5.360  16.850  1.00  0.00     0.172 C
HETATM   25  C13 UNL     1      -1.458   6.647  17.546  1.00  0.00     0.042 C
BRANCH  24  26
HETATM   26  N6  UNL     1      -0.769   4.413  16.958  1.00  0.00    -0.348 N
HETATM   27  C14 UNL     1      -1.029   3.026  17.020  1.00  0.00     0.214 C
HETATM   28  C15 UNL     1       0.065   2.026  17.132  1.00  0.00     0.117 C
HETATM   29  O3  UNL     1      -2.211   2.590  16.981  1.00  0.00    -0.274 OA
ATOM     30  H6  UNL     1       0.194   4.747  16.991  1.00  0.00     0.163 HD
ENDBRANCH  24  26
ENDBRANCH  21  24
ENDBRANCH   6  20
TORSDOF 7
ENDMDL