MODEL 2
REMARK VINA RESULT: -8.501447351      1.024      1.147
REMARK  8 active torsions:
REMARK  status: ('A' for Active; 'I' for Inactive)
REMARK    1  A    between atoms: N1_1  and  N2_4
REMARK    2  A    between atoms: N2_4  and  C1_5
REMARK    3  A    between atoms: C1_5  and  C2_6
REMARK    4  A    between atoms: C1_5  and  C17_25
REMARK    5  A    between atoms: C2_6  and  C3_7
REMARK       I    between atoms: C3_7  and  N3_9
REMARK    6  A    between atoms: N3_9  and  C4_11
REMARK    7  A    between atoms: C7_14  and  C8_15
REMARK    8  A    between atoms: C8_15  and  C9_17
ROOT
HETATM    1  C4  UNL     1      -1.242   7.858  13.146  1.00  0.00     0.034 A
HETATM    2  C5  UNL     1      -0.222   7.358  13.981  1.00  0.00     0.030 A
HETATM    3  C6  UNL     1      -0.616   6.564  15.025  1.00  0.00     0.018 A
HETATM    4  C7  UNL     1      -1.935   6.245  15.283  1.00  0.00     0.015 A
HETATM    5  C15 UNL     1      -2.929   6.733  14.472  1.00  0.00     0.018 A
HETATM    6  C16 UNL     1      -2.547   7.544  13.403  1.00  0.00     0.030 A
ENDROOT
BRANCH   1   7
HETATM    7  N3  UNL     1      -0.845   8.684  12.099  1.00  0.00    -0.327 N
HETATM    8  C3  UNL     1      -0.555   8.216  10.792  1.00  0.00     0.224 C
HETATM    9  O1  UNL     1      -0.625   7.023  10.482  1.00  0.00    -0.273 OA
ATOM     10  H3  UNL     1      -0.757   9.684  12.283  1.00  0.00     0.169 HD
BRANCH   8  11
HETATM   11  C2  UNL     1      -0.151   9.182   9.733  1.00  0.00     0.135 C
BRANCH  11  12
HETATM   12  C1  UNL     1      -0.893  10.506   9.776  1.00  0.00     0.196 C
BRANCH  12  13
HETATM   13  N2  UNL     1       0.145  11.542   9.545  1.00  0.00    -0.134 NA
BRANCH  13  14
HETATM   14  N1  UNL     1      -0.382  12.657   8.935  1.00  0.00    -0.348 N
ATOM     15  H12 UNL     1      -1.382  12.848   8.881  1.00  0.00     0.172 HD
ATOM     16  H11 UNL     1       0.351  13.254   8.551  1.00  0.00     0.172 HD
ENDBRANCH  13  14
ENDBRANCH  12  13
BRANCH  12  17
HETATM   17  C17 UNL     1      -1.756  10.599   8.578  1.00  0.00     0.252 C
HETATM   18  N4  UNL     1      -1.276  10.458   7.263  1.00  0.00    -0.061 NA
HETATM   19  O3  UNL     1      -2.989  10.811   8.716  1.00  0.00    -0.275 OA
ENDBRANCH  12  17
ENDBRANCH  11  12
ENDBRANCH   8  11
ENDBRANCH   1   7
BRANCH   4  20
HETATM   20  C8  UNL     1      -2.321   5.370  16.384  1.00  0.00     0.192 C
HETATM   21  O2  UNL     1      -2.872   5.950  17.383  1.00  0.00    -0.287 OA
BRANCH  20  22
HETATM   22  C9  UNL     1      -2.127   3.934  16.418  1.00  0.00     0.015 A
HETATM   23  C10 UNL     1      -2.497   3.105  15.380  1.00  0.00     0.015 A
HETATM   24  C11 UNL     1      -2.277   1.743  15.409  1.00  0.00     0.001 A
HETATM   25  C12 UNL     1      -1.668   1.174  16.498  1.00  0.00     0.000 A
HETATM   26  C13 UNL     1      -1.287   1.966  17.544  1.00  0.00     0.001 A
HETATM   27  C14 UNL     1      -1.519   3.325  17.492  1.00  0.00     0.015 A
ENDBRANCH  20  22
ENDBRANCH   4  20
TORSDOF 8
ENDMDL