MODEL 3
REMARK VINA RESULT: -8.102366751      1.161      1.614
REMARK  7 active torsions:
REMARK  status: ('A' for Active; 'I' for Inactive)
REMARK       I    between atoms: C1_4  and  N3_6
REMARK    1  A    between atoms: N3_6  and  C2_8
REMARK    2  A    between atoms: C4_12  and  O1_13
REMARK    3  A    between atoms: O1_13  and  C5_14
REMARK    4  A    between atoms: C5_14  and  C6_15
REMARK    5  A    between atoms: C6_15  and  C7_17
REMARK    6  A    between atoms: C7_17  and  S1_18
REMARK    7  A    between atoms: S1_18  and  C8_19
ROOT
HETATM    1  C2  UNL     1      -0.524   9.042  10.005  1.00  0.00     0.687 A
HETATM    2  N4  UNL     1      -0.570   7.902   9.315  1.00  0.00    -0.199 N
ATOM      3  H4  UNL     1      -0.481   7.933   8.300  1.00  0.00     0.183 HD
HETATM    4  C3  UNL     1      -0.733   6.693   9.930  1.00  0.00     0.148 A
HETATM    5  C4  UNL     1      -0.858   6.595  11.293  1.00  0.00     0.153 A
HETATM    6  C14 UNL     1      -0.806   7.807  11.999  1.00  0.00     0.294 A
HETATM    7  O3  UNL     1      -0.916   7.762  13.255  1.00  0.00    -0.265 OA
HETATM    8  N5  UNL     1      -0.646   8.971  11.362  1.00  0.00    -0.153 N
ATOM      9  H5  UNL     1      -0.613   9.833  11.907  1.00  0.00     0.187 HD
ENDROOT
BRANCH   5  10
HETATM   10  O1  UNL     1      -1.021   5.402  11.930  1.00  0.00    -0.337 OA
BRANCH  10  11
HETATM   11  C5  UNL     1      -0.115   4.381  12.165  1.00  0.00     0.255 C
BRANCH  11  12
HETATM   12  C6  UNL     1       0.942   4.681  13.126  1.00  0.00     0.160 C
HETATM   13  O2  UNL     1       2.079   4.879  12.640  1.00  0.00    -0.295 OA
BRANCH  12  14
HETATM   14  C7  UNL     1       0.869   4.790  14.581  1.00  0.00     0.160 C
BRANCH  14  15
HETATM   15  S1  UNL     1      -0.520   4.031  15.385  1.00  0.00    -0.122 SA
BRANCH  15  16
HETATM   16  C8  UNL     1      -1.972   5.060  15.372  1.00  0.00     0.001 A
HETATM   17  C9  UNL     1      -3.079   4.852  14.582  1.00  0.00     0.018 A
HETATM   18  C10 UNL     1      -4.182   5.690  14.612  1.00  0.00     0.001 A
HETATM   19  C11 UNL     1      -4.203   6.784  15.457  1.00  0.00     0.000 A
HETATM   20  C12 UNL     1      -3.108   7.015  16.258  1.00  0.00     0.001 A
HETATM   21  C13 UNL     1      -2.025   6.172  16.212  1.00  0.00     0.018 A
ENDBRANCH  15  16
ENDBRANCH  14  15
ENDBRANCH  12  14
ENDBRANCH  11  12
ENDBRANCH  10  11
ENDBRANCH   5  10
BRANCH   1  22
HETATM   22  N3  UNL     1      -0.379  10.167   9.439  1.00  0.00    -0.164 N
HETATM   23  C1  UNL     1      -1.378  10.713   8.606  1.00  0.00     0.200 C
HETATM   24  N1  UNL     1      -2.502  11.161   9.032  1.00  0.00    -0.373 N
HETATM   25  N2  UNL     1      -1.070  10.760   7.199  1.00  0.00    -0.063 NA
ATOM     26  H12 UNL     1      -3.224  11.555   8.430  1.00  0.00     0.158 HD
ATOM     27  H11 UNL     1      -2.720  11.128  10.028  1.00  0.00     0.158 HD
ATOM     28  H3  UNL     1       0.483  10.691   9.591  1.00  0.00     0.187 HD
ENDBRANCH   1  22
TORSDOF 7
ENDMDL