MODEL 3
REMARK VINA RESULT: -8.118619565      3.421      9.109
REMARK  6 active torsions:
REMARK  status: ('A' for Active; 'I' for Inactive)
REMARK    1  A    between atoms: N3_4  and  N4_6
REMARK    2  A    between atoms: C2_8  and  C3_9
REMARK    3  A    between atoms: C6_12  and  C7_13
REMARK    4  A    between atoms: C7_13  and  C8_14
REMARK       I    between atoms: C8_14  and  N5_16
REMARK    5  A    between atoms: N5_16  and  N6_18
REMARK    6  A    between atoms: C9_20  and  C10_21
ROOT
HETATM    1  C7  UNL     1      -1.351   6.505  16.358  1.00  0.00     0.143 C
ENDROOT
BRANCH   1   2
HETATM    2  C6  UNL     1      -1.247   6.980  14.950  1.00  0.00    -0.049 A
HETATM    3  C5  UNL     1      -2.336   7.459  14.251  1.00  0.00     0.008 A
HETATM    4  C4  UNL     1      -2.240   7.898  12.949  1.00  0.00     0.013 A
HETATM    5  C3  UNL     1      -1.020   7.867  12.301  1.00  0.00    -0.019 A
HETATM    6  C16 UNL     1       0.075   7.396  12.976  1.00  0.00     0.013 A
HETATM    7  C15 UNL     1      -0.038   6.959  14.282  1.00  0.00     0.008 A
BRANCH   5   8
HETATM    8  C2  UNL     1      -0.976   8.343  10.925  1.00  0.00     0.118 C
HETATM    9  N4  UNL     1      -0.549   9.566  10.760  1.00  0.00    -0.309 N
ATOM     10  H4  UNL     1      -0.266  10.142  11.553  1.00  0.00     0.186 HD
BRANCH   9  11
HETATM   11  N3  UNL     1      -0.496  10.048   9.461  1.00  0.00    -0.276 N
HETATM   12  C1  UNL     1       0.092  11.170   9.222  1.00  0.00     0.215 C
HETATM   13  N1  UNL     1       0.130  11.639   7.878  1.00  0.00    -0.065 NA
HETATM   14  N2  UNL     1       0.700  11.965  10.214  1.00  0.00    -0.065 NA
ATOM     15  H3  UNL     1      -0.920   9.518   8.699  1.00  0.00     0.189 HD
ENDBRANCH   9  11
ENDBRANCH   5   8
ENDBRANCH   1   2
BRANCH   1  16
HETATM   16  C8  UNL     1      -1.128   5.055  16.457  1.00  0.00     0.240 C
HETATM   17  O1  UNL     1      -2.082   4.275  16.271  1.00  0.00    -0.272 OA
HETATM   18  N5  UNL     1       0.154   4.562  16.762  1.00  0.00    -0.270 N
ATOM     19  H5  UNL     1       0.908   5.232  16.909  1.00  0.00     0.190 HD
BRANCH  18  20
HETATM   20  N6  UNL     1       0.446   3.195  16.874  1.00  0.00    -0.307 N
HETATM   21  C9  UNL     1       0.817   2.519  15.860  1.00  0.00     0.136 C
ATOM     22  H6  UNL     1       0.361   2.736  17.781  1.00  0.00     0.186 HD
BRANCH  21  23
HETATM   23  C10 UNL     1       1.112   1.091  16.025  1.00  0.00     0.049 A
HETATM   24  C11 UNL     1       1.404   0.569  17.265  1.00  0.00     0.031 A
HETATM   25  C12 UNL     1       1.680  -0.773  17.413  1.00  0.00     0.004 A
HETATM   26  C13 UNL     1       1.649  -1.554  16.279  1.00  0.00     0.017 A
HETATM   27  C14 UNL     1       1.353  -1.025  15.033  1.00  0.00     0.088 A
HETATM   28  N7  UNL     1       1.093   0.286  14.945  1.00  0.00    -0.365 N
ATOM     29  H7  UNL     1       0.875   0.687  14.032  1.00  0.00     0.165 HD
ENDBRANCH  21  23
ENDBRANCH  18  20
ENDBRANCH   1  16
TORSDOF 6
ENDMDL