MODEL 2
REMARK VINA RESULT: -4.745402677      2.621      3.834
REMARK  3 active torsions:
REMARK  status: ('A' for Active; 'I' for Inactive)
REMARK    1  A    between atoms: C1_2  and  C2_4
REMARK    2  A    between atoms: C2_4  and  C3_5
REMARK    3  A    between atoms: C11_13  and  C12_14
ROOT
HETATM    1  C3  UNL     1     124.983 108.913 -44.617  1.00  0.00    -0.028 C
HETATM    2  C4  UNL     1     123.671 109.054 -45.297  1.00  0.00     0.015 C
HETATM    3  C5  UNL     1     122.740 107.950 -44.830  1.00  0.00    -0.013 C
HETATM    4  C6  UNL     1     123.313 106.605 -45.147  1.00  0.00     0.009 C
HETATM    5  C7  UNL     1     124.634 106.464 -44.417  1.00  0.00    -0.013 C
HETATM    6  C8  UNL     1     124.450 106.589 -42.924  1.00  0.00     0.010 C
HETATM    7  C9  UNL     1     123.865 107.966 -42.624  1.00  0.00    -0.009 C
HETATM    8  C10 UNL     1     122.562 108.159 -43.331  1.00  0.00     0.010 C
HETATM    9  C11 UNL     1     124.899 108.962 -43.099  1.00  0.00     0.003 C
HETATM   10  C15 UNL     1     125.552 107.533 -44.957  1.00  0.00     0.015 C
ENDROOT
BRANCH   1  11
HETATM   11  C2  UNL     1     125.997 109.926 -45.077  1.00  0.00     0.109 C
BRANCH  11  12
HETATM   12  C1  UNL     1     125.874 110.266 -46.512  1.00  0.00     0.231 C
HETATM   13  N1  UNL     1     125.329 111.514 -46.928  1.00  0.00    -0.062 NA
HETATM   14  O1  UNL     1     126.239 109.483 -47.424  1.00  0.00    -0.277 OA
ENDBRANCH  11  12
ENDBRANCH   1  11
BRANCH   9  15
HETATM   15  C12 UNL     1     124.713 110.328 -42.574  1.00  0.00    -0.009 A
HETATM   16  C13 UNL     1     124.264 110.665 -41.233  1.00  0.00     0.005 A
HETATM   17  C14 UNL     1     125.705 110.750 -41.488  1.00  0.00     0.005 A
ENDBRANCH   9  15
TORSDOF 3
ENDMDL