MODEL 2
REMARK VINA RESULT: -5.452005846      0.214      1.812
REMARK  3 active torsions:
REMARK  status: ('A' for Active; 'I' for Inactive)
REMARK       I    between atoms: C1_2  and  N1_3
REMARK    1  A    between atoms: C1_2  and  C13_16
REMARK    2  A    between atoms: N1_3  and  C2_5
REMARK    3  A    between atoms: C2_5  and  C3_6
ROOT
HETATM    1  C3  UNL     1     124.144 106.955 -44.246  1.00  0.00    -0.007 C
HETATM    2  C4  UNL     1     122.821 107.493 -44.605  1.00  0.00     0.019 C
HETATM    3  C5  UNL     1     122.709 108.996 -44.346  1.00  0.00    -0.013 C
HETATM    4  C6  UNL     1     122.842 109.157 -42.844  1.00  0.00     0.009 C
HETATM    5  C7  UNL     1     124.138 108.578 -42.368  1.00  0.00    -0.013 C
HETATM    6  C8  UNL     1     125.248 109.434 -42.994  1.00  0.00     0.009 C
HETATM    7  C9  UNL     1     125.107 109.275 -44.478  1.00  0.00    -0.013 C
HETATM    8  C10 UNL     1     123.784 109.796 -44.997  1.00  0.00     0.009 C
HETATM    9  C11 UNL     1     125.210 107.851 -44.924  1.00  0.00     0.019 C
HETATM   10  C12 UNL     1     124.385 107.164 -42.753  1.00  0.00     0.019 C
ENDROOT
BRANCH   1  11
HETATM   11  C2  UNL     1     124.469 105.582 -44.677  1.00  0.00     0.073 C
BRANCH  11  12
HETATM   12  N1  UNL     1     124.784 104.559 -43.791  1.00  0.00    -0.340 N
HETATM   13  C1  UNL     1     124.875 103.171 -43.929  1.00  0.00     0.225 C
HETATM   14  O1  UNL     1     124.672 102.606 -45.013  1.00  0.00    -0.273 OA
ATOM     15  H1  UNL     1     124.990 104.888 -42.848  1.00  0.00     0.167 HD
BRANCH  13  16
HETATM   16  C13 UNL     1     125.223 102.264 -42.785  1.00  0.00     0.078 A
HETATM   17  C14 UNL     1     125.615 102.824 -41.482  1.00  0.00     0.015 A
HETATM   18  C15 UNL     1     126.690 102.288 -42.358  1.00  0.00     0.015 A
ENDBRANCH  13  16
ENDBRANCH  11  12
ENDBRANCH   1  11
TORSDOF 3
ENDMDL