MODEL 4
REMARK VINA RESULT: -4.600677886      2.570      4.752
REMARK  4 active torsions:
REMARK  status: ('A' for Active; 'I' for Inactive)
REMARK    1  A    between atoms: C2_2  and  C3_3
REMARK    2  A    between atoms: C3_3  and  C4_4
REMARK    3  A    between atoms: C13_13  and  O1_14
REMARK    4  A    between atoms: C16_18  and  C17_19
ROOT
HETATM    1  C4  UNL     1     124.249 107.415 -42.283  1.00  0.00    -0.002 C
HETATM    2  C5  UNL     1     124.472 107.173 -43.764  1.00  0.00    -0.005 C
HETATM    3  C6  UNL     1     125.331 108.444 -43.711  1.00  0.00     0.011 C
HETATM    4  C7  UNL     1     124.314 108.902 -42.656  1.00  0.00    -0.005 C
HETATM    5  C8  UNL     1     123.063 109.330 -43.344  1.00  0.00    -0.000 C
HETATM    6  C9  UNL     1     122.156 108.148 -43.722  1.00  0.00    -0.000 C
HETATM    7  C10 UNL     1     121.152 108.878 -44.621  1.00  0.00    -0.002 C
HETATM    8  C11 UNL     1     121.004 107.962 -45.848  1.00  0.00     0.013 C
HETATM    9  C12 UNL     1     122.264 108.414 -46.582  1.00  0.00     0.020 C
HETATM   10  C13 UNL     1     121.903 109.909 -46.662  1.00  0.00     0.127 C
HETATM   11  C14 UNL     1     121.865 110.107 -45.150  1.00  0.00     0.024 C
HETATM   12  C15 UNL     1     123.299 109.735 -44.812  1.00  0.00     0.002 C
HETATM   13  C16 UNL     1     123.424 108.474 -45.606  1.00  0.00     0.002 C
HETATM   14  C17 UNL     1     123.192 107.402 -44.529  1.00  0.00    -0.000 C
ENDROOT
BRANCH   1  15
HETATM   15  C3  UNL     1     125.337 106.946 -41.365  1.00  0.00     0.031 C
BRANCH  15  16
HETATM   16  C2  UNL     1     124.870 105.648 -40.781  1.00  0.00    -0.037 C
HETATM   17  C1  UNL     1     124.978 104.495 -41.434  1.00  0.00     0.007 C
ENDBRANCH  15  16
ENDBRANCH   1  15
BRANCH  10  18
HETATM   18  O1  UNL     1     120.626 110.102 -47.131  1.00  0.00    -0.395 OA
ATOM     19  H1  UNL     1     119.981 109.666 -46.586  1.00  0.00     0.210 HD
ENDBRANCH  10  18
TORSDOF 4
ENDMDL