MODEL 3
REMARK VINA RESULT: -5.613623579      0.561      1.645
REMARK  3 active torsions:
REMARK  status: ('A' for Active; 'I' for Inactive)
REMARK       I    between atoms: C1_2  and  N1_3
REMARK    1  A    between atoms: C1_2  and  C6_9
REMARK    2  A    between atoms: N1_3  and  C2_5
REMARK    3  A    between atoms: C2_5  and  C3_6
ROOT
HETATM    1  C6  UNL     1     124.490 107.003 -44.180  1.00  0.00     0.042 C
HETATM    2  C7  UNL     1     125.506 107.796 -44.915  1.00  0.00     0.020 C
HETATM    3  C8  UNL     1     125.047 109.163 -45.329  1.00  0.00     0.006 C
HETATM    4  C9  UNL     1     124.597 110.026 -44.209  1.00  0.00    -0.014 C
HETATM    5  C10 UNL     1     125.048 109.577 -42.850  1.00  0.00     0.010 C
HETATM    6  C11 UNL     1     124.037 108.538 -42.443  1.00  0.00    -0.009 C
HETATM    7  C12 UNL     1     124.632 107.183 -42.662  1.00  0.00     0.024 C
HETATM    8  C13 UNL     1     122.898 108.620 -43.411  1.00  0.00    -0.009 C
HETATM    9  C14 UNL     1     123.085 109.949 -44.113  1.00  0.00     0.010 C
HETATM   10  C15 UNL     1     123.075 107.479 -44.393  1.00  0.00     0.024 C
ENDROOT
BRANCH   1  11
HETATM   11  C1  UNL     1     124.664 105.569 -44.457  1.00  0.00     0.226 C
HETATM   12  O1  UNL     1     124.793 105.182 -45.648  1.00  0.00    -0.273 OA
HETATM   13  N1  UNL     1     124.697 104.567 -43.454  1.00  0.00    -0.360 N
ATOM     14  H1  UNL     1     124.594 104.854 -42.481  1.00  0.00     0.162 HD
BRANCH  13  15
HETATM   15  C2  UNL     1     124.868 103.169 -43.737  1.00  0.00     0.127 C
BRANCH  15  16
HETATM   16  C3  UNL     1     126.002 102.566 -42.911  1.00  0.00     0.003 A
HETATM   17  C4  UNL     1     126.251 103.182 -41.541  1.00  0.00     0.007 A
HETATM   18  C5  UNL     1     125.518 101.909 -41.620  1.00  0.00     0.007 A
ENDBRANCH  15  16
ENDBRANCH  13  15
ENDBRANCH   1  11
TORSDOF 3
ENDMDL