MODEL 4
REMARK VINA RESULT: -4.872235336      2.420      3.409
REMARK  3 active torsions:
REMARK  status: ('A' for Active; 'I' for Inactive)
REMARK    1  A    between atoms: C2_2  and  C3_3
REMARK    2  A    between atoms: C2_2  and  C7_7
REMARK    3  A    between atoms: C12_12  and  C13_13
ROOT
HETATM    1  C7  UNL     1     124.984 107.135 -43.460  1.00  0.00     0.024 C
HETATM    2  C8  UNL     1     124.749 108.384 -42.608  1.00  0.00    -0.004 C
HETATM    3  C9  UNL     1     123.273 108.342 -42.418  1.00  0.00     0.010 C
HETATM    4  C10 UNL     1     122.777 107.923 -43.789  1.00  0.00    -0.007 C
HETATM    5  C11 UNL     1     122.776 109.140 -44.703  1.00  0.00     0.024 C
HETATM    6  C12 UNL     1     124.266 108.899 -44.842  1.00  0.00     0.044 C
HETATM    7  C14 UNL     1     125.045 109.438 -43.667  1.00  0.00     0.024 C
HETATM    8  C15 UNL     1     123.998 107.442 -44.536  1.00  0.00     0.015 C
ENDROOT
BRANCH   1   9
HETATM    9  C2  UNL     1     124.758 105.877 -42.723  1.00  0.00    -0.080 C
HETATM   10  C1  UNL     1     124.961 105.795 -41.423  1.00  0.00     0.015 C
BRANCH   9  11
HETATM   11  C3  UNL     1     124.294 104.633 -43.420  1.00  0.00     0.014 C
HETATM   12  C4  UNL     1     125.127 104.238 -44.625  1.00  0.00     0.009 C
HETATM   13  C5  UNL     1     124.862 102.783 -44.206  1.00  0.00     0.001 C
HETATM   14  C6  UNL     1     124.760 103.344 -42.779  1.00  0.00     0.009 C
ENDBRANCH   9  11
ENDBRANCH   1   9
BRANCH   6  15
HETATM   15  C13 UNL     1     124.744 109.225 -46.168  1.00  0.00     0.240 C
HETATM   16  N1  UNL     1     126.137 109.336 -46.399  1.00  0.00    -0.061 NA
HETATM   17  O1  UNL     1     123.990 109.422 -47.162  1.00  0.00    -0.276 OA
ENDBRANCH   6  15
TORSDOF 3
ENDMDL