MODEL 5
REMARK VINA RESULT: -5.434518566      1.830      2.304
REMARK  3 active torsions:
REMARK  status: ('A' for Active; 'I' for Inactive)
REMARK       I    between atoms: C1_2  and  N1_3
REMARK    1  A    between atoms: C1_2  and  C6_9
REMARK    2  A    between atoms: N1_3  and  C2_5
REMARK    3  A    between atoms: C2_5  and  C3_6
ROOT
HETATM    1  C6  UNL     1     124.744 108.020 -42.335  1.00  0.00     0.042 C
HETATM    2  C7  UNL     1     125.171 109.106 -41.408  1.00  0.00     0.024 C
HETATM    3  C8  UNL     1     124.741 110.467 -41.892  1.00  0.00    -0.013 C
HETATM    4  C9  UNL     1     123.252 110.456 -42.074  1.00  0.00     0.009 C
HETATM    5  C10 UNL     1     122.877 109.430 -43.104  1.00  0.00    -0.013 C
HETATM    6  C11 UNL     1     123.565 109.655 -44.428  1.00  0.00     0.009 C
HETATM    7  C12 UNL     1     125.065 109.586 -44.172  1.00  0.00    -0.013 C
HETATM    8  C13 UNL     1     125.408 110.701 -43.230  1.00  0.00     0.009 C
HETATM    9  C14 UNL     1     125.441 108.225 -43.656  1.00  0.00     0.024 C
HETATM   10  C15 UNL     1     123.239 108.073 -42.605  1.00  0.00     0.024 C
ENDROOT
BRANCH   1  11
HETATM   11  C1  UNL     1     125.017 106.710 -41.734  1.00  0.00     0.226 C
HETATM   12  O1  UNL     1     125.569 106.691 -40.606  1.00  0.00    -0.273 OA
HETATM   13  N1  UNL     1     124.696 105.473 -42.347  1.00  0.00    -0.360 N
ATOM     14  H1  UNL     1     124.247 105.472 -43.262  1.00  0.00     0.162 HD
BRANCH  13  15
HETATM   15  C2  UNL     1     124.991 104.211 -41.703  1.00  0.00     0.127 C
BRANCH  15  16
HETATM   16  C3  UNL     1     124.753 103.032 -42.612  1.00  0.00     0.003 A
HETATM   17  C4  UNL     1     124.725 103.337 -44.080  1.00  0.00     0.007 A
HETATM   18  C5  UNL     1     125.943 102.631 -43.448  1.00  0.00     0.007 A
ENDBRANCH  15  16
ENDBRANCH  13  15
ENDBRANCH   1  11
TORSDOF 3
ENDMDL