MODEL 2
REMARK VINA RESULT: -5.451460731      1.878      2.578
REMARK  3 active torsions:
REMARK  status: ('A' for Active; 'I' for Inactive)
REMARK    1  A    between atoms: C1_2  and  C2_3
REMARK       I    between atoms: C1_2  and  N1_7
REMARK    2  A    between atoms: C2_3  and  C3_4
REMARK    3  A    between atoms: N1_7  and  C6_9
ROOT
HETATM    1  C6  UNL     1     124.527 106.998 -44.136  1.00  0.00     0.115 C
HETATM    2  C7  UNL     1     123.177 107.531 -44.388  1.00  0.00     0.032 C
HETATM    3  C8  UNL     1     122.908 108.958 -44.097  1.00  0.00    -0.010 C
HETATM    4  C9  UNL     1     122.773 109.269 -42.628  1.00  0.00     0.009 C
HETATM    5  C10 UNL     1     124.106 109.544 -41.976  1.00  0.00    -0.010 C
HETATM    6  C11 UNL     1     124.884 110.618 -42.693  1.00  0.00     0.037 C
HETATM    7  C12 UNL     1     125.136 110.124 -44.099  1.00  0.00     0.187 C
HETATM    8  C13 UNL     1     123.823 109.930 -44.778  1.00  0.00     0.037 C
HETATM    9  N2  UNL     1     125.966 108.942 -44.117  1.00  0.00    -0.065 N
ATOM     10  H21 UNL     1     126.922 109.165 -43.842  1.00  0.00     0.278 HD
ATOM     11  H22 UNL     1     126.136 108.632 -45.074  1.00  0.00     0.278 HD
HETATM   12  C14 UNL     1     125.439 107.869 -43.316  1.00  0.00     0.209 C
HETATM   13  C15 UNL     1     124.895 108.283 -41.993  1.00  0.00     0.040 C
ENDROOT
BRANCH   1  14
HETATM   14  N1  UNL     1     124.480 105.709 -43.492  1.00  0.00    -0.354 N
HETATM   15  C1  UNL     1     124.781 104.549 -44.242  1.00  0.00     0.218 C
HETATM   16  O1  UNL     1     125.082 104.668 -45.451  1.00  0.00    -0.274 OA
ATOM     17  H1  UNL     1     124.233 105.635 -42.506  1.00  0.00     0.162 HD
BRANCH  15  18
HETATM   18  C2  UNL     1     124.749 103.185 -43.624  1.00  0.00     0.107 C
BRANCH  18  19
HETATM   19  C3  UNL     1     124.998 103.309 -42.159  1.00  0.00    -0.006 A
HETATM   20  C4  UNL     1     126.363 103.304 -41.591  1.00  0.00     0.005 A
HETATM   21  C5  UNL     1     125.520 102.056 -41.486  1.00  0.00     0.005 A
ENDBRANCH  18  19
ENDBRANCH  15  18
ENDBRANCH   1  14
TORSDOF 3
ENDMDL