MODEL 3
REMARK VINA RESULT: -5.321038792      1.797      2.695
REMARK  3 active torsions:
REMARK  status: ('A' for Active; 'I' for Inactive)
REMARK    1  A    between atoms: C1_2  and  C2_3
REMARK       I    between atoms: C1_2  and  N1_7
REMARK    2  A    between atoms: C2_3  and  C3_4
REMARK    3  A    between atoms: N1_7  and  C6_9
ROOT
HETATM    1  C6  UNL     1     124.401 107.293 -44.188  1.00  0.00     0.092 C
HETATM    2  C7  UNL     1     123.014 107.905 -44.209  1.00  0.00     0.009 C
HETATM    3  C8  UNL     1     123.080 109.105 -45.130  1.00  0.00     0.011 C
HETATM    4  C9  UNL     1     124.095 110.085 -44.617  1.00  0.00    -0.013 C
HETATM    5  C10 UNL     1     123.614 110.584 -43.270  1.00  0.00     0.009 C
HETATM    6  C11 UNL     1     123.549 109.407 -42.340  1.00  0.00    -0.013 C
HETATM    7  C12 UNL     1     122.568 108.376 -42.861  1.00  0.00     0.011 C
HETATM    8  C13 UNL     1     124.877 108.721 -42.177  1.00  0.00     0.011 C
HETATM    9  C14 UNL     1     125.350 108.225 -43.509  1.00  0.00     0.009 C
HETATM   10  C15 UNL     1     125.461 109.463 -44.415  1.00  0.00     0.011 C
ENDROOT
BRANCH   1  11
HETATM   11  N1  UNL     1     124.419 105.959 -43.701  1.00  0.00    -0.356 N
HETATM   12  C1  UNL     1     124.732 104.799 -44.479  1.00  0.00     0.218 C
HETATM   13  O1  UNL     1     125.004 105.067 -45.683  1.00  0.00    -0.274 OA
ATOM     14  H1  UNL     1     124.189 105.816 -42.716  1.00  0.00     0.162 HD
BRANCH  12  15
HETATM   15  C2  UNL     1     124.715 103.483 -43.859  1.00  0.00     0.107 C
BRANCH  15  16
HETATM   16  C3  UNL     1     124.854 103.372 -42.401  1.00  0.00    -0.006 A
HETATM   17  C4  UNL     1     125.526 102.233 -41.729  1.00  0.00     0.005 A
HETATM   18  C5  UNL     1     126.018 103.645 -41.565  1.00  0.00     0.005 A
ENDBRANCH  15  16
ENDBRANCH  12  15
ENDBRANCH   1  11
TORSDOF 3
ENDMDL