MODEL 5
REMARK VINA RESULT: -5.331286680      1.640      3.363
REMARK  3 active torsions:
REMARK  status: ('A' for Active; 'I' for Inactive)
REMARK    1  A    between atoms: C4_4  and  C5_5
REMARK    2  A    between atoms: C6_6  and  C7_7
REMARK    3  A    between atoms: C14_14  and  C15_15
ROOT
HETATM    1  C1  UNL     1     124.938 104.129 -41.544  1.00  0.00     0.017 C
HETATM    2  C2  UNL     1     124.842 103.594 -42.623  1.00  0.00    -0.089 C
HETATM    3  C3  UNL     1     124.725 102.939 -43.894  1.00  0.00     0.063 C
HETATM    4  C4  UNL     1     124.636 103.631 -45.020  1.00  0.00     0.009 C
ENDROOT
BRANCH   4   5
HETATM    5  C5  UNL     1     124.650 105.070 -45.038  1.00  0.00    -0.002 C
HETATM    6  C6  UNL     1     123.602 105.796 -45.291  1.00  0.00    -0.009 C
BRANCH   6   7
HETATM    7  C7  UNL     1     123.576 107.283 -45.318  1.00  0.00     0.093 C
HETATM    8  C8  UNL     1     124.706 107.965 -44.863  1.00  0.00    -0.173 C
HETATM    9  C9  UNL     1     125.863 108.619 -44.406  1.00  0.00     0.084 C
HETATM   10  C10 UNL     1     125.379 109.441 -43.157  1.00  0.00     0.039 C
HETATM   11  C11 UNL     1     124.166 108.876 -42.537  1.00  0.00    -0.019 C
HETATM   12  C12 UNL     1     122.945 108.480 -43.162  1.00  0.00    -0.055 C
HETATM   13  C13 UNL     1     121.828 108.852 -42.487  1.00  0.00     0.019 C
HETATM   14  C14 UNL     1     122.405 107.735 -44.374  1.00  0.00     0.137 C
BRANCH  14  15
HETATM   15  C15 UNL     1     121.567 108.693 -45.150  1.00  0.00     0.183 C
HETATM   16  O1  UNL     1     120.392 108.404 -45.481  1.00  0.00    -0.647 OA
HETATM   17  O2  UNL     1     122.092 109.925 -45.514  1.00  0.00    -0.647 OA
ENDBRANCH  14  15
ENDBRANCH   6   7
ENDBRANCH   4   5
TORSDOF 3
ENDMDL