MODEL 2
REMARK VINA RESULT: -5.508458595      0.408      2.051
REMARK  3 active torsions:
REMARK  status: ('A' for Active; 'I' for Inactive)
REMARK    1  A    between atoms: C2_2  and  C3_3
REMARK    2  A    between atoms: C3_3  and  N1_4
REMARK       I    between atoms: N1_4  and  C4_6
REMARK    3  A    between atoms: C4_6  and  C5_8
ROOT
HETATM    1  C5  UNL     1     124.394 106.681 -44.486  1.00  0.00     0.042 C
HETATM    2  C6  UNL     1     124.358 106.848 -42.978  1.00  0.00     0.024 C
HETATM    3  C7  UNL     1     124.212 108.281 -42.578  1.00  0.00    -0.013 C
HETATM    4  C8  UNL     1     122.778 108.661 -42.620  1.00  0.00     0.005 C
HETATM    5  C9  UNL     1     122.269 109.176 -43.901  1.00  0.00     0.005 C
HETATM    6  C10 UNL     1     122.820 108.544 -45.139  1.00  0.00    -0.013 C
HETATM    7  C11 UNL     1     124.039 109.301 -45.636  1.00  0.00     0.009 C
HETATM    8  C12 UNL     1     125.212 108.949 -44.787  1.00  0.00    -0.013 C
HETATM    9  C13 UNL     1     125.061 109.235 -43.343  1.00  0.00     0.009 C
HETATM   10  C14 UNL     1     125.538 107.501 -44.995  1.00  0.00     0.024 C
HETATM   11  C15 UNL     1     123.063 107.089 -45.055  1.00  0.00     0.024 C
ENDROOT
BRANCH   1  12
HETATM   12  C4  UNL     1     124.629 105.251 -44.796  1.00  0.00     0.226 C
HETATM   13  N1  UNL     1     124.752 104.256 -43.780  1.00  0.00    -0.357 N
ATOM     14  H1  UNL     1     124.674 104.541 -42.804  1.00  0.00     0.162 HD
HETATM   15  O1  UNL     1     124.723 104.920 -46.003  1.00  0.00    -0.273 OA
BRANCH  13  16
HETATM   16  C3  UNL     1     124.979 102.878 -44.075  1.00  0.00     0.149 C
BRANCH  16  17
HETATM   17  C2  UNL     1     126.080 102.277 -43.302  1.00  0.00    -0.018 C
HETATM   18  C1  UNL     1     126.262 102.623 -42.042  1.00  0.00     0.008 C
ENDBRANCH  16  17
ENDBRANCH  13  16
ENDBRANCH   1  12
TORSDOF 3
ENDMDL