MODEL 3
REMARK VINA RESULT: -8.671253823      3.951      9.262
REMARK  8 active torsions:
REMARK  status: ('A' for Active; 'I' for Inactive)
REMARK    1  A    between atoms: C3_3  and  O1_4
REMARK    2  A    between atoms: N2_15  and  N3_16
REMARK       I    between atoms: N3_16  and  C9_18
REMARK    3  A    between atoms: C9_18  and  C10_20
REMARK    4  A    between atoms: C10_20  and  N4_21
REMARK    5  A    between atoms: N5_24  and  C13_25
REMARK    6  A    between atoms: C13_25  and  C14_26
REMARK    7  A    between atoms: C14_26  and  C15_27
REMARK    8  A    between atoms: C15_27  and  N6_28
ROOT
HETATM    1  N3  UNL     1      16.976   6.630  27.283  1.00  0.00    -0.261 N
ATOM      2  H3  UNL     1      16.098   6.269  26.910  1.00  0.00     0.190 HD
HETATM    3  C9  UNL     1      18.173   6.096  26.812  1.00  0.00     0.275 C
HETATM    4  O2  UNL     1      19.278   6.513  27.226  1.00  0.00    -0.265 OA
ENDROOT
BRANCH   1   5
HETATM    5  N2  UNL     1      16.931   7.650  28.254  1.00  0.00    -0.258 N
HETATM    6  C8  UNL     1      17.004   7.104  29.591  1.00  0.00     0.158 C
HETATM    7  C7  UNL     1      17.834   7.974  30.464  1.00  0.00     0.106 C
HETATM    8  C6  UNL     1      17.026   8.972  31.280  1.00  0.00     0.275 C
HETATM    9  C5  UNL     1      17.154  10.314  30.678  1.00  0.00     0.046 A
HETATM   10  F1  UNL     1      17.422   8.871  32.566  1.00  0.00    -0.201 F
HETATM   11  F2  UNL     1      15.694   8.528  31.240  1.00  0.00    -0.201 F
HETATM   12  C2  UNL     1      17.672  11.358  31.370  1.00  0.00     0.003 A
HETATM   13  C4  UNL     1      16.816  10.765  29.429  1.00  0.00     0.033 A
HETATM   14  C1  UNL     1      18.165  11.319  32.752  1.00  0.00     0.054 C
HETATM   15  C3  UNL     1      17.645  12.459  30.513  1.00  0.00     0.147 A
HETATM   16  N1  UNL     1      17.128  12.077  29.358  1.00  0.00    -0.339 N
ATOM     17  H1  UNL     1      16.986  12.676  28.545  1.00  0.00     0.168 HD
HETATM   18  C25 UNL     1      16.218  10.228  28.174  1.00  0.00     0.162 C
HETATM   19  C24 UNL     1      16.803   8.954  27.726  1.00  0.00     0.243 C
HETATM   20  O3  UNL     1      17.322   9.041  26.586  1.00  0.00    -0.271 OA
BRANCH  15  21
HETATM   21  O1  UNL     1      18.091  13.743  30.827  1.00  0.00    -0.346 OA
ATOM     22  H1  UNL     1      18.355  14.405  30.199  1.00  0.00     0.219 HD
ENDBRANCH  15  21
ENDBRANCH   1   5
BRANCH   3  23
HETATM   23  C10 UNL     1      18.118   5.011  25.807  1.00  0.00     0.162 C
BRANCH  23  24
HETATM   24  N4  UNL     1      17.129   5.255  24.834  1.00  0.00    -0.382 N
HETATM   25  C11 UNL     1      15.896   5.820  25.228  1.00  0.00     0.152 C
HETATM   26  C12 UNL     1      14.855   4.768  25.537  1.00  0.00     0.292 C
HETATM   27  N5  UNL     1      14.720   3.887  24.412  1.00  0.00     0.091 N
HETATM   28  C22 UNL     1      15.980   3.178  24.244  1.00  0.00     0.292 C
HETATM   29  C23 UNL     1      17.003   4.218  23.834  1.00  0.00     0.152 C
BRANCH  27  30
HETATM   30  C13 UNL     1      13.682   2.897  24.601  1.00  0.00     0.274 C
BRANCH  30  31
HETATM   31  C14 UNL     1      13.679   2.206  25.912  1.00  0.00     0.050 C
BRANCH  31  32
HETATM   32  C15 UNL     1      12.444   2.449  26.753  1.00  0.00     0.119 C
BRANCH  32  33
HETATM   33  N6  UNL     1      12.290   1.374  27.672  1.00  0.00    -0.408 N
HETATM   34  C16 UNL     1      13.276   0.364  27.562  1.00  0.00     0.117 C
HETATM   35  C17 UNL     1      13.810  -0.098  28.904  1.00  0.00     0.019 C
HETATM   36  C18 UNL     1      12.719  -0.467  29.856  1.00  0.00     0.004 C
HETATM   37  C19 UNL     1      11.473   0.323  29.636  1.00  0.00     0.024 C
HETATM   38  C20 UNL     1      11.775   1.666  28.955  1.00  0.00     0.075 C
HETATM   39  C21 UNL     1      10.406   2.334  28.807  1.00  0.00     0.032 C
ENDBRANCH  32  33
ENDBRANCH  31  32
ENDBRANCH  30  31
ENDBRANCH  27  30
ENDBRANCH  23  24
ENDBRANCH   3  23
TORSDOF 8
ENDMDL