MODEL 3
REMARK VINA RESULT: -8.392642507      3.429      7.498
REMARK  8 active torsions:
REMARK  status: ('A' for Active; 'I' for Inactive)
REMARK    1  A    between atoms: C4_6  and  C5_7
REMARK    2  A    between atoms: C5_7  and  N1_8
REMARK    3  A    between atoms: C5_7  and  C15_23
REMARK       I    between atoms: N1_8  and  C6_10
REMARK    4  A    between atoms: C6_10  and  C7_12
REMARK    5  A    between atoms: C7_12  and  N2_14
REMARK       I    between atoms: N2_14  and  C9_16
REMARK    6  A    between atoms: C9_16  and  C10_18
REMARK    7  A    between atoms: C17_27  and  C18_28
REMARK       I    between atoms: C18_28  and  N3_30
REMARK    8  A    between atoms: N3_30  and  C19_32
ROOT
HETATM    1  C5  UNL     1      13.842   6.749  26.280  1.00  0.00     0.162 C
ENDROOT
BRANCH   1   2
HETATM    2  C4  UNL     1      15.046   7.423  26.877  1.00  0.00     0.152 C
HETATM    3  O2  UNL     1      14.762   8.479  27.686  1.00  0.00    -0.351 OA
HETATM    4  C3  UNL     1      15.806   9.179  28.200  1.00  0.00     0.293 C
HETATM    5  O1  UNL     1      15.923   8.855  29.552  1.00  0.00    -0.329 OA
HETATM    6  C23 UNL     1      17.155   8.803  27.677  1.00  0.00     0.193 C
HETATM    7  C2  UNL     1      16.895   7.883  29.655  1.00  0.00     0.259 C
HETATM    8  C1  UNL     1      17.814   8.250  30.790  1.00  0.00     0.071 C
HETATM    9  O6  UNL     1      17.523   7.735  28.448  1.00  0.00    -0.351 OA
HETATM   10  C17 UNL     1      17.170   8.595  26.205  1.00  0.00     0.114 C
HETATM   11  C16 UNL     1      16.083   7.665  25.809  1.00  0.00     0.051 C
BRANCH  10  12
HETATM   12  C18 UNL     1      18.460   8.083  25.717  1.00  0.00     0.225 C
HETATM   13  O5  UNL     1      19.050   8.701  24.798  1.00  0.00    -0.273 OA
HETATM   14  N3  UNL     1      19.075   6.911  26.241  1.00  0.00    -0.353 N
ATOM     15  H3  UNL     1      18.603   6.401  26.988  1.00  0.00     0.163 HD
BRANCH  14  16
HETATM   16  C19 UNL     1      20.338   6.416  25.758  1.00  0.00     0.022 C
HETATM   17  C20 UNL     1      21.468   7.401  25.933  1.00  0.00     0.037 C
HETATM   18  C21 UNL     1      20.276   6.047  24.274  1.00  0.00     0.037 C
HETATM   19  C22 UNL     1      20.706   5.175  26.540  1.00  0.00     0.037 C
ENDBRANCH  14  16
ENDBRANCH  10  12
ENDBRANCH   1   2
BRANCH   1  20
HETATM   20  N1  UNL     1      14.075   5.315  26.177  1.00  0.00    -0.348 N
HETATM   21  C6  UNL     1      14.255   4.633  24.972  1.00  0.00     0.240 C
HETATM   22  O3  UNL     1      14.218   5.268  23.888  1.00  0.00    -0.271 OA
ATOM     23  H1  UNL     1      14.109   4.773  27.041  1.00  0.00     0.163 HD
BRANCH  21  24
HETATM   24  C7  UNL     1      14.487   3.167  24.983  1.00  0.00     0.172 C
HETATM   25  C8  UNL     1      15.876   2.895  24.449  1.00  0.00     0.042 C
BRANCH  24  26
HETATM   26  N2  UNL     1      14.335   2.616  26.325  1.00  0.00    -0.348 N
HETATM   27  C9  UNL     1      13.079   2.154  26.799  1.00  0.00     0.222 C
HETATM   28  O4  UNL     1      12.090   2.234  26.029  1.00  0.00    -0.273 OA
ATOM     29  H2  UNL     1      15.150   2.561  26.936  1.00  0.00     0.163 HD
BRANCH  27  30
HETATM   30  C10 UNL     1      12.911   1.599  28.140  1.00  0.00     0.078 C
HETATM   31  C11 UNL     1      11.460   1.365  28.508  1.00  0.00     0.014 C
HETATM   32  C12 UNL     1      11.632   0.568  29.808  1.00  0.00     0.001 C
HETATM   33  C13 UNL     1      12.830  -0.311  29.521  1.00  0.00     0.001 C
HETATM   34  C14 UNL     1      13.480   0.202  28.277  1.00  0.00     0.014 C
ENDBRANCH  27  30
ENDBRANCH  24  26
ENDBRANCH  21  24
ENDBRANCH   1  20
BRANCH   1  35
HETATM   35  C15 UNL     1      12.583   6.956  27.074  1.00  0.00     0.290 C
HETATM   36  F1  UNL     1      11.591   7.580  26.351  1.00  0.00    -0.231 F
HETATM   37 CL1  UNL     1      12.042   5.407  27.768  1.00  0.00    -0.087 Cl
ENDBRANCH   1  35
TORSDOF 8
ENDMDL