MODEL 3
REMARK VINA RESULT: -7.535800333      3.463      6.270
REMARK  9 active torsions:
REMARK  status: ('A' for Active; 'I' for Inactive)
REMARK    1  A    between atoms: C2_2  and  C3_3
REMARK    2  A    between atoms: C7_9  and  N2_10
REMARK       I    between atoms: N2_10  and  C8_12
REMARK    3  A    between atoms: C8_12  and  C9_14
REMARK    4  A    between atoms: N4_22  and  C13_24
REMARK    5  A    between atoms: C13_24  and  C14_25
REMARK    6  A    between atoms: C14_25  and  N5_26
REMARK    7  A    between atoms: N5_26  and  C16_28
REMARK    8  A    between atoms: C16_28  and  C17_29
REMARK    9  A    between atoms: C17_29  and  O2_30
ROOT
HETATM    1  C3  UNL     1      16.300   8.214  30.214  1.00  0.00     0.056 A
HETATM    2  C4  UNL     1      17.581   7.872  29.837  1.00  0.00     0.048 A
HETATM    3  C5  UNL     1      17.739   7.109  28.719  1.00  0.00     0.014 A
HETATM    4  C6  UNL     1      18.984   6.708  28.250  1.00  0.00     0.120 A
HETATM    5  N1  UNL     1      19.011   5.955  27.139  1.00  0.00    -0.201 N
ATOM      6  H1  UNL     1      19.912   5.648  26.773  1.00  0.00     0.183 HD
HETATM    7  C7  UNL     1      17.886   5.593  26.489  1.00  0.00     0.685 A
HETATM    8  N3  UNL     1      16.679   5.981  26.942  1.00  0.00    -0.186 N
ATOM      9  H3  UNL     1      15.836   5.701  26.441  1.00  0.00     0.184 HD
HETATM   10  C11 UNL     1      16.580   6.723  28.031  1.00  0.00     0.112 A
HETATM   11  C12 UNL     1      15.316   7.082  28.436  1.00  0.00     0.172 A
HETATM   12  N4  UNL     1      14.265   6.778  27.876  1.00  0.00    -0.367 N
ATOM     13  H4  UNL     1      13.493   7.184  28.405  1.00  0.00     0.161 HD
HETATM   14  O3  UNL     1      15.243   7.832  29.541  1.00  0.00    -0.296 OA
ENDROOT
BRANCH  12  15
HETATM   15  C13 UNL     1      13.740   6.094  26.805  1.00  0.00     0.152 C
BRANCH  15  16
HETATM   16  C14 UNL     1      12.353   5.577  27.253  1.00  0.00     0.291 C
BRANCH  16  17
HETATM   17  N5  UNL     1      11.937   4.431  26.504  1.00  0.00     0.087 N
HETATM   18  C15 UNL     1      12.540   4.434  25.199  1.00  0.00     0.310 C
BRANCH  17  19
HETATM   19  C16 UNL     1      12.127   3.201  27.217  1.00  0.00     0.297 C
BRANCH  19  20
HETATM   20  C17 UNL     1      13.089   2.270  26.503  1.00  0.00     0.194 C
BRANCH  20  21
HETATM   21  O2  UNL     1      14.319   2.227  27.155  1.00  0.00    -0.399 OA
ATOM     22  H2  UNL     1      14.245   2.551  28.044  1.00  0.00     0.209 HD
ENDBRANCH  20  21
ENDBRANCH  19  20
ENDBRANCH  17  19
ENDBRANCH  16  17
ENDBRANCH  15  16
ENDBRANCH  12  15
BRANCH   1  23
HETATM   23  C2  UNL     1      16.171   9.057  31.451  1.00  0.00     0.060 C
HETATM   24  C1  UNL     1      17.398   8.924  32.327  1.00  0.00     0.012 C
ENDBRANCH   1  23
BRANCH   7  25
HETATM   25  N2  UNL     1      17.996   4.863  25.426  1.00  0.00    -0.157 N
HETATM   26  C8  UNL     1      16.959   4.404  24.616  1.00  0.00     0.266 C
HETATM   27  O1  UNL     1      16.259   3.444  25.084  1.00  0.00    -0.270 OA
ATOM     28  H2  UNL     1      18.941   4.596  25.152  1.00  0.00     0.187 HD
BRANCH  26  29
HETATM   29  C9  UNL     1      16.620   4.940  23.280  1.00  0.00     0.153 C
HETATM   30  C10 UNL     1      15.563   6.023  23.476  1.00  0.00     0.051 C
HETATM   31 BR1  UNL     1      15.921   3.635  22.068  1.00  0.00    -0.063 Br
HETATM   32 BR2  UNL     1      18.166   5.815  22.508  1.00  0.00    -0.063 Br
ENDBRANCH  26  29
ENDBRANCH   7  25
TORSDOF 9
ENDMDL