MODEL 3
REMARK VINA RESULT: -8.169148533      1.861      2.842
REMARK  12 active torsions:
REMARK  status: ('A' for Active; 'I' for Inactive)
REMARK       I    between atoms: C2_2  and  N1_4
REMARK    1  A    between atoms: N1_4  and  C3_6
REMARK    2  A    between atoms: C3_6  and  C4_7
REMARK    3  A    between atoms: C3_6  and  C7_12
REMARK    4  A    between atoms: C4_7  and  C5_8
REMARK    5  A    between atoms: C5_8  and  C6_10
REMARK    6  A    between atoms: C7_12  and  O4_14
REMARK    7  A    between atoms: O4_14  and  C8_15
REMARK    8  A    between atoms: C8_15  and  O5_16
REMARK    9  A    between atoms: C8_15  and  C9_18
REMARK   10  A    between atoms: C9_18  and  C21_33
REMARK   11  A    between atoms: C11_20  and  C12_22
REMARK   12  A    between atoms: C15_25  and  O6_26
ROOT
HETATM    1  C8  UNL     1      13.527   6.952  27.202  1.00  0.00     0.277 C
ENDROOT
BRANCH   1   2
HETATM    2  O4  UNL     1      12.755   5.837  27.599  1.00  0.00    -0.287 OA
BRANCH   2   3
HETATM    3  C7  UNL     1      11.717   5.334  26.838  1.00  0.00     0.284 C
HETATM    4  O3  UNL     1      10.667   6.017  26.783  1.00  0.00    -0.263 OA
BRANCH   3   5
HETATM    5  C3  UNL     1      11.772   4.047  26.092  1.00  0.00     0.191 C
BRANCH   5   6
HETATM    6  N1  UNL     1      12.068   2.986  27.006  1.00  0.00    -0.347 N
HETATM    7  C2  UNL     1      11.144   2.140  27.626  1.00  0.00     0.214 C
HETATM    8  C1  UNL     1      11.593   1.082  28.549  1.00  0.00     0.117 C
HETATM    9  O1  UNL     1       9.922   2.267  27.407  1.00  0.00    -0.274 OA
ATOM     10  H1  UNL     1      13.052   2.831  27.227  1.00  0.00     0.163 HD
ENDBRANCH   5   6
BRANCH   5  11
HETATM   11  C4  UNL     1      12.649   4.128  24.891  1.00  0.00     0.115 C
BRANCH  11  12
HETATM   12  C5  UNL     1      13.731   3.117  24.888  1.00  0.00     0.142 C
HETATM   13  O2  UNL     1      13.532   1.945  24.635  1.00  0.00    -0.297 OA
BRANCH  12  14
HETATM   14  C6  UNL     1      15.134   3.515  25.204  1.00  0.00     0.192 C
HETATM   15 CL1  UNL     1      16.218   3.150  23.846  1.00  0.00    -0.123 Cl
ENDBRANCH  12  14
ENDBRANCH  11  12
ENDBRANCH   5  11
ENDBRANCH   3   5
ENDBRANCH   2   3
ENDBRANCH   1   2
BRANCH   1  16
HETATM   16  O5  UNL     1      12.757   7.937  26.600  1.00  0.00    -0.370 OA
ATOM     17  H5  UNL     1      12.901   8.793  26.987  1.00  0.00     0.212 HD
ENDBRANCH   1  16
BRANCH   1  18
HETATM   18  C9  UNL     1      14.444   7.479  28.268  1.00  0.00     0.034 A
HETATM   19  C10 UNL     1      15.299   8.616  27.775  1.00  0.00     0.039 A
HETATM   20  C11 UNL     1      15.869   7.353  28.324  1.00  0.00     0.036 A
HETATM   21 BR1  UNL     1      16.920   6.392  26.987  1.00  0.00    -0.084 Br
BRANCH  20  22
HETATM   22  C12 UNL     1      16.492   7.379  29.662  1.00  0.00     0.011 C
HETATM   23  C13 UNL     1      15.868   8.449  30.549  1.00  0.00     0.014 C
HETATM   24  C14 UNL     1      16.756   9.642  30.383  1.00  0.00     0.021 C
HETATM   25  C15 UNL     1      16.667  10.285  28.990  1.00  0.00     0.131 C
HETATM   26  C18 UNL     1      18.076   9.119  29.989  1.00  0.00     0.007 C
HETATM   27  C16 UNL     1      17.895   9.653  28.557  1.00  0.00    -0.009 C
HETATM   28  C17 UNL     1      19.007  10.649  28.192  1.00  0.00     0.018 C
HETATM   29  C21 UNL     1      17.947   8.493  27.647  1.00  0.00     0.012 C
HETATM   30  C20 UNL     1      18.725   7.514  28.496  1.00  0.00     0.012 C
HETATM   31  C19 UNL     1      17.934   7.606  29.765  1.00  0.00    -0.003 C
BRANCH  25  32
HETATM   32  O6  UNL     1      16.816  11.682  29.143  1.00  0.00    -0.394 OA
ATOM     33  H6  UNL     1      16.043  12.013  29.585  1.00  0.00     0.210 HD
ENDBRANCH  25  32
ENDBRANCH  20  22
ENDBRANCH   1  18
TORSDOF 12
ENDMDL