MODEL 5
REMARK VINA RESULT: -7.767891656      2.979      3.856
REMARK  6 active torsions:
REMARK  status: ('A' for Active; 'I' for Inactive)
REMARK    1  A    between atoms: C3_3  and  N1_4
REMARK    2  A    between atoms: N1_4  and  C5_6
REMARK    3  A    between atoms: C5_6  and  C6_7
REMARK    4  A    between atoms: C6_7  and  N2_8
REMARK    5  A    between atoms: C15_28  and  S1_29
REMARK    6  A    between atoms: S1_29  and  N7_32
ROOT
HETATM    1  C1  UNL     1      11.215  -0.077  31.570  1.00  0.00     0.013 C
HETATM    2  C2  UNL     1      11.792   0.047  30.515  1.00  0.00    -0.087 C
HETATM    3  C3  UNL     1      12.460   0.200  29.242  1.00  0.00     0.364 C
ENDROOT
BRANCH   3   4
HETATM    4  N1  UNL     1      12.104   1.489  28.673  1.00  0.00     0.096 N
HETATM    5  C4  UNL     1      10.712   1.379  28.243  1.00  0.00     0.311 C
BRANCH   4   6
HETATM    6  C5  UNL     1      12.906   1.771  27.493  1.00  0.00     0.292 C
BRANCH   6   7
HETATM    7  C6  UNL     1      12.429   3.015  26.792  1.00  0.00     0.151 C
BRANCH   7   8
HETATM    8  N2  UNL     1      13.408   4.075  26.877  1.00  0.00    -0.373 N
HETATM    9  C7  UNL     1      14.340   4.244  26.006  1.00  0.00     0.130 A
HETATM   10  N3  UNL     1      14.626   3.554  24.900  1.00  0.00    -0.283 N
HETATM   11  C18 UNL     1      15.267   5.269  26.108  1.00  0.00     0.058 A
HETATM   12  N4  UNL     1      15.675   4.054  24.270  1.00  0.00    -0.282 N
ATOM     13  H3  UNL     1      14.099   2.741  24.580  1.00  0.00     0.188 HD
HETATM   14  C8  UNL     1      16.088   5.109  24.994  1.00  0.00     0.149 A
ATOM     15  H4  UNL     1      16.090   3.707  23.405  1.00  0.00     0.188 HD
HETATM   16  N5  UNL     1      17.096   5.986  24.837  1.00  0.00    -0.283 N
HETATM   17  N6  UNL     1      17.264   6.942  25.727  1.00  0.00    -0.298 N
ATOM     18  H5  UNL     1      17.724   5.911  24.036  1.00  0.00     0.188 HD
HETATM   19  C9  UNL     1      16.512   7.147  26.813  1.00  0.00     0.062 A
ATOM     20  H6  UNL     1      18.040   7.586  25.574  1.00  0.00     0.187 HD
HETATM   21  C10 UNL     1      16.734   8.210  27.764  1.00  0.00     0.033 A
HETATM   22  C17 UNL     1      15.473   6.280  27.017  1.00  0.00     0.051 A
HETATM   23  C11 UNL     1      17.590   8.016  28.844  1.00  0.00     0.026 A
HETATM   24  C15 UNL     1      16.057   9.410  27.554  1.00  0.00     0.095 A
HETATM   25 BR1  UNL     1      18.447   6.312  28.994  1.00  0.00    -0.050 Br
HETATM   26  C12 UNL     1      17.790   9.029  29.744  1.00  0.00     0.044 A
HETATM   27  C13 UNL     1      17.142  10.236  29.581  1.00  0.00     0.036 A
HETATM   28 CL1  UNL     1      17.387  11.544  30.729  1.00  0.00    -0.084 Cl
HETATM   29  C14 UNL     1      16.300  10.395  28.501  1.00  0.00     0.050 A
ATOM     30  H2  UNL     1      13.358   4.719  27.666  1.00  0.00     0.161 HD
BRANCH  24  31
HETATM   31  S1  UNL     1      14.998   9.655  26.218  1.00  0.00     0.259 S
HETATM   32  O1  UNL     1      13.804   8.753  26.207  1.00  0.00    -0.201 OA
HETATM   33  O2  UNL     1      14.413  11.041  26.371  1.00  0.00    -0.201 OA
BRANCH  31  34
HETATM   34  N7  UNL     1      15.808   9.685  24.699  1.00  0.00    -0.320 N
HETATM   35  C16 UNL     1      15.019   8.899  23.733  1.00  0.00     0.159 C
ATOM     36  H7  UNL     1      16.686  10.165  24.501  1.00  0.00     0.171 HD
ENDBRANCH  31  34
ENDBRANCH  24  31
ENDBRANCH   7   8
ENDBRANCH   6   7
ENDBRANCH   4   6
ENDBRANCH   3   4
TORSDOF 6
ENDMDL