MODEL 1
REMARK VINA RESULT: -8.162711108      0.000      0.000
REMARK  8 active torsions:
REMARK  status: ('A' for Active; 'I' for Inactive)
REMARK    1  A    between atoms: C2_2  and  C3_3
REMARK    2  A    between atoms: C8_10  and  N1_11
REMARK    3  A    between atoms: C10_16  and  N3_17
REMARK    4  A    between atoms: C15_26  and  N6_27
REMARK    5  A    between atoms: N6_27  and  C16_29
REMARK    6  A    between atoms: C16_29  and  C17_30
REMARK    7  A    between atoms: C17_30  and  C18_31
REMARK    8  A    between atoms: C18_31  and  N7_32
ROOT
HETATM    1  N1  UNL     1      15.793   3.008  25.130  1.00  0.00    -0.188 N
ATOM      2  H1  UNL     1      16.491   2.360  25.494  1.00  0.00     0.184 HD
HETATM    3  C9  UNL     1      14.590   2.988  25.601  1.00  0.00     0.711 A
HETATM    4  N2  UNL     1      14.281   2.087  26.583  1.00  0.00    -0.021 N
ATOM      5  H2  UNL     1      15.014   1.459  26.913  1.00  0.00     0.203 HD
HETATM    6  C10 UNL     1      13.065   1.988  27.133  1.00  0.00     0.709 A
HETATM    7  N5  UNL     1      12.127   2.844  26.661  1.00  0.00    -0.021 N
ATOM      8  H5  UNL     1      11.186   2.805  27.052  1.00  0.00     0.203 HD
HETATM    9  C15 UNL     1      12.390   3.742  25.698  1.00  0.00     0.707 A
HETATM   10  N8  UNL     1      13.644   3.821  25.152  1.00  0.00    -0.021 N
ATOM     11  H8  UNL     1      13.852   4.499  24.420  1.00  0.00     0.203 HD
ENDROOT
BRANCH   1  12
HETATM   12  C8  UNL     1      16.146   3.920  24.119  1.00  0.00     0.079 A
HETATM   13  C3  UNL     1      16.806   5.071  24.491  1.00  0.00    -0.029 A
HETATM   14  C4  UNL     1      17.150   5.954  23.467  1.00  0.00     0.011 A
HETATM   15  C5  UNL     1      16.837   5.670  22.154  1.00  0.00     0.026 A
HETATM   16  C6  UNL     1      16.173   4.508  21.795  1.00  0.00     0.058 A
HETATM   17 CL1  UNL     1      15.779   4.155  20.108  1.00  0.00    -0.082 Cl
HETATM   18  C7  UNL     1      15.833   3.636  22.804  1.00  0.00     0.083 A
HETATM   19 CL2  UNL     1      14.979   2.166  22.348  1.00  0.00    -0.080 Cl
BRANCH  13  20
HETATM   20  C2  UNL     1      17.122   5.383  25.903  1.00  0.00     0.036 C
HETATM   21  C1  UNL     1      18.566   5.529  26.219  1.00  0.00     0.010 C
ENDBRANCH  13  20
ENDBRANCH   1  12
BRANCH   6  22
HETATM   22  N3  UNL     1      12.750   1.076  28.141  1.00  0.00    -0.214 N
HETATM   23  C11 UNL     1      13.537  -0.162  28.206  1.00  0.00     0.160 C
HETATM   24  C12 UNL     1      13.776  -0.349  29.712  1.00  0.00     0.134 C
HETATM   25  N4  UNL     1      12.473  -0.696  30.243  1.00  0.00    -0.418 N
HETATM   26  C13 UNL     1      11.486   0.318  30.130  1.00  0.00     0.134 C
ATOM     27  H4  UNL     1      12.280  -1.603  30.667  1.00  0.00     0.153 HD
HETATM   28  C14 UNL     1      11.684   1.337  29.068  1.00  0.00     0.160 C
ENDBRANCH   6  22
BRANCH   9  29
HETATM   29  N6  UNL     1      11.556   4.590  25.224  1.00  0.00    -0.225 N
ATOM     30  H6  UNL     1      11.355   4.502  24.228  1.00  0.00     0.177 HD
BRANCH  29  31
HETATM   31  C16 UNL     1      10.872   5.641  25.902  1.00  0.00     0.140 C
BRANCH  31  32
HETATM   32  C17 UNL     1      11.851   6.379  26.796  1.00  0.00     0.050 C
BRANCH  32  33
HETATM   33  C18 UNL     1      12.727   7.316  25.983  1.00  0.00     0.274 C
BRANCH  33  34
HETATM   34  N7  UNL     1      14.084   7.329  26.473  1.00  0.00     0.088 N
HETATM   35  C19 UNL     1      14.739   8.593  26.393  1.00  0.00     0.272 C
HETATM   36  C20 UNL     1      15.826   8.475  27.447  1.00  0.00     0.032 C
HETATM   37  C21 UNL     1      15.089   7.772  28.569  1.00  0.00     0.032 C
HETATM   38  C22 UNL     1      14.181   6.829  27.805  1.00  0.00     0.272 C
ENDBRANCH  33  34
ENDBRANCH  32  33
ENDBRANCH  31  32
ENDBRANCH  29  31
ENDBRANCH   9  29
TORSDOF 8
ENDMDL