MODEL 2
REMARK VINA RESULT: -7.916921921      1.141      1.437
REMARK  8 active torsions:
REMARK  status: ('A' for Active; 'I' for Inactive)
REMARK    1  A    between atoms: C2_2  and  C3_3
REMARK    2  A    between atoms: C3_3  and  C5_6
REMARK    3  A    between atoms: C5_6  and  N1_7
REMARK    4  A    between atoms: C5_6  and  C6_11
REMARK       I    between atoms: C6_11  and  N2_13
REMARK    5  A    between atoms: N3_16  and  C9_17
REMARK    6  A    between atoms: C9_17  and  C10_18
REMARK       I    between atoms: N4_22  and  C14_23
REMARK    7  A    between atoms: C14_23  and  C15_25
REMARK    8  A    between atoms: C17_30  and  C18_31
ROOT
HETATM    1  C10 UNL     1      16.678   6.831  25.028  1.00  0.00     0.032 C
HETATM    2  C11 UNL     1      17.200   5.430  25.279  1.00  0.00     0.009 C
HETATM    3  C12 UNL     1      16.411   4.442  24.431  1.00  0.00     0.020 C
HETATM    4  C13 UNL     1      14.926   4.752  24.520  1.00  0.00     0.126 C
HETATM    5  N4  UNL     1      14.732   5.508  25.712  1.00  0.00    -0.345 N
HETATM    6  C14 UNL     1      14.114   5.100  26.906  1.00  0.00     0.287 C
HETATM    7  O2  UNL     1      14.039   5.948  27.857  1.00  0.00    -0.264 OA
HETATM    8  C19 UNL     1      15.272   6.884  25.648  1.00  0.00     0.132 C
ENDROOT
BRANCH   1   9
HETATM    9  C9  UNL     1      17.496   7.846  25.788  1.00  0.00     0.278 C
BRANCH   9  10
HETATM   10  N3  UNL     1      17.180   9.205  25.493  1.00  0.00     0.092 N
HETATM   11  C8  UNL     1      18.263  10.041  25.965  1.00  0.00     0.292 C
HETATM   12  C7  UNL     1      17.791  11.262  26.718  1.00  0.00     0.156 C
HETATM   13  N2  UNL     1      17.007  10.717  27.858  1.00  0.00    -0.347 N
HETATM   14  C6  UNL     1      17.467  10.982  29.144  1.00  0.00     0.252 C
HETATM   15  C21 UNL     1      15.860   9.966  27.445  1.00  0.00     0.156 C
HETATM   16  O1  UNL     1      18.554  11.684  29.211  1.00  0.00    -0.271 OA
HETATM   17  C20 UNL     1      15.912   9.672  25.933  1.00  0.00     0.292 C
BRANCH  14  18
HETATM   18  C5  UNL     1      16.926  10.599  30.454  1.00  0.00     0.297 C
BRANCH  18  19
HETATM   19  C3  UNL     1      17.016   9.151  30.776  1.00  0.00     0.070 C
HETATM   20  C4  UNL     1      17.236   9.015  32.294  1.00  0.00     0.035 C
HETATM   21 CL1  UNL     1      15.429   8.346  30.427  1.00  0.00    -0.117 Cl
BRANCH  19  22
HETATM   22  C2  UNL     1      18.045   8.339  30.092  1.00  0.00     0.023 C
HETATM   23  C1  UNL     1      17.568   7.110  29.371  1.00  0.00     0.007 C
ENDBRANCH  19  22
ENDBRANCH  18  19
BRANCH  18  24
HETATM   24  N1  UNL     1      17.400  11.418  31.509  1.00  0.00    -0.065 N
ATOM     25  H13 UNL     1      16.678  11.564  32.214  1.00  0.00     0.275 HD
ATOM     26  H12 UNL     1      18.087  10.923  32.078  1.00  0.00     0.275 HD
ATOM     27  H11 UNL     1      17.773  12.307  31.174  1.00  0.00     0.275 HD
ENDBRANCH  18  24
ENDBRANCH  14  18
ENDBRANCH   9  10
ENDBRANCH   1   9
BRANCH   6  28
HETATM   28  C15 UNL     1      13.549   3.782  27.152  1.00  0.00     0.176 A
HETATM   29  N5  UNL     1      14.131   2.582  27.163  1.00  0.00    -0.326 N
HETATM   30  C16 UNL     1      13.222   1.648  27.442  1.00  0.00     0.139 A
ATOM     31  H5  UNL     1      15.120   2.406  26.986  1.00  0.00     0.168 HD
HETATM   32 CL2  UNL     1      13.484  -0.103  27.575  1.00  0.00    -0.062 Cl
HETATM   33  C17 UNL     1      12.005   2.265  27.617  1.00  0.00     0.150 A
HETATM   34  N6  UNL     1      12.237   3.571  27.434  1.00  0.00    -0.330 N
ATOM     35  H6  UNL     1      11.529   4.302  27.498  1.00  0.00     0.168 HD
BRANCH  33  36
HETATM   36  C18 UNL     1      10.737   1.631  27.934  1.00  0.00     0.230 C
HETATM   37  O3  UNL     1       9.650   2.114  27.545  1.00  0.00    -0.643 OA
HETATM   38  O4  UNL     1      10.726   0.477  28.678  1.00  0.00    -0.643 OA
ENDBRANCH  33  36
ENDBRANCH   6  28
TORSDOF 8
ENDMDL