MODEL 4
REMARK VINA RESULT: -7.938163629      2.753      6.451
REMARK  11 active torsions:
REMARK  status: ('A' for Active; 'I' for Inactive)
REMARK    1  A    between atoms: C2_2  and  C3_3
REMARK    2  A    between atoms: C3_3  and  C4_4
REMARK    3  A    between atoms: C4_4  and  S1_5
REMARK    4  A    between atoms: S1_5  and  N1_8
REMARK    5  A    between atoms: C7_11  and  C8_12
REMARK    6  A    between atoms: C7_11  and  C20_31
REMARK    7  A    between atoms: C8_12  and  N2_13
REMARK    8  A    between atoms: C12_20  and  C14_23
REMARK    9  A    between atoms: C15_24  and  C16_25
REMARK   10  A    between atoms: C20_31  and  O4_32
REMARK   11  A    between atoms: N5_34  and  O5_36
ROOT
HETATM    1  N2  UNL     1      15.202   5.514  23.988  1.00  0.00    -0.313 N
HETATM    2  C9  UNL     1      15.932   5.888  22.783  1.00  0.00     0.294 C
HETATM    3  O3  UNL     1      16.268   7.047  22.425  1.00  0.00    -0.266 OA
HETATM    4  C10 UNL     1      16.231   4.661  22.018  1.00  0.00     0.326 C
HETATM    5  F1  UNL     1      15.665   4.717  20.777  1.00  0.00    -0.195 F
HETATM    6  F2  UNL     1      17.591   4.384  21.939  1.00  0.00    -0.195 F
HETATM    7  C11 UNL     1      15.496   3.552  22.794  1.00  0.00     0.150 C
HETATM    8  C12 UNL     1      15.567   4.138  24.181  1.00  0.00     0.195 C
HETATM    9  C13 UNL     1      17.015   4.148  24.544  1.00  0.00     0.105 C
HETATM   10  N3  UNL     1      18.143   4.153  24.855  1.00  0.00    -0.193 NA
ENDROOT
BRANCH   8  11
HETATM   11  C14 UNL     1      14.808   3.466  25.180  1.00  0.00    -0.052 C
HETATM   12  C15 UNL     1      14.159   2.854  26.021  1.00  0.00    -0.045 C
BRANCH  12  13
HETATM   13  C16 UNL     1      13.403   2.114  26.994  1.00  0.00     0.086 A
HETATM   14  C17 UNL     1      12.143   2.377  27.491  1.00  0.00     0.040 A
HETATM   15  C18 UNL     1      11.786   1.409  28.412  1.00  0.00     0.020 A
HETATM   16  C19 UNL     1      12.869   0.551  28.460  1.00  0.00     0.089 A
HETATM   17  N4  UNL     1      13.808   0.995  27.608  1.00  0.00    -0.359 N
ATOM     18  H4  UNL     1      14.709   0.543  27.451  1.00  0.00     0.166 HD
ENDBRANCH  12  13
ENDBRANCH   8  11
BRANCH   1  19
HETATM   19  C8  UNL     1      14.446   6.462  24.708  1.00  0.00     0.147 C
BRANCH  19  20
HETATM   20  C7  UNL     1      15.025   7.139  25.912  1.00  0.00     0.045 C
HETATM   21  C6  UNL     1      14.685   8.625  25.788  1.00  0.00     0.035 C
HETATM   22  C5  UNL     1      15.439   9.481  26.770  1.00  0.00     0.108 C
HETATM   23  N1  UNL     1      16.200   8.692  27.678  1.00  0.00    -0.211 NA
HETATM   24  C22 UNL     1      17.162   7.873  27.022  1.00  0.00     0.108 C
HETATM   25  C21 UNL     1      16.516   7.026  25.936  1.00  0.00     0.035 C
BRANCH  23  26
HETATM   26  S1  UNL     1      16.842   9.579  29.004  1.00  0.00     0.211 S
HETATM   27  O1  UNL     1      18.325   9.529  28.957  1.00  0.00    -0.211 OA
HETATM   28  O2  UNL     1      16.343  11.001  28.842  1.00  0.00    -0.211 OA
BRANCH  26  29
HETATM   29  C4  UNL     1      16.238   8.847  30.481  1.00  0.00     0.157 C
BRANCH  29  30
HETATM   30  C3  UNL     1      17.199   8.779  31.611  1.00  0.00     0.016 C
BRANCH  30  31
HETATM   31  C2  UNL     1      16.788   9.450  32.874  1.00  0.00    -0.004 C
HETATM   32  C1  UNL     1      17.129  10.927  32.732  1.00  0.00     0.005 C
ENDBRANCH  30  31
ENDBRANCH  29  30
ENDBRANCH  26  29
ENDBRANCH  23  26
BRANCH  20  33
HETATM   33  C20 UNL     1      14.489   6.582  27.183  1.00  0.00     0.145 C
HETATM   34  N5  UNL     1      13.366   6.744  27.704  1.00  0.00    -0.250 N
ATOM     35  H5  UNL     1      13.262   6.241  28.586  1.00  0.00     0.196 HD
BRANCH  33  36
HETATM   36  O4  UNL     1      15.377   5.762  27.880  1.00  0.00    -0.347 OA
ATOM     37  H4  UNL     1      15.025   4.914  28.125  1.00  0.00     0.219 HD
ENDBRANCH  33  36
BRANCH  34  38
HETATM   38  O5  UNL     1      12.274   7.427  27.365  1.00  0.00    -0.288 OA
ATOM     39  H5  UNL     1      11.342   7.288  27.484  1.00  0.00     0.244 HD
ENDBRANCH  34  38
ENDBRANCH  20  33
ENDBRANCH  19  20
ENDBRANCH   1  19
TORSDOF 11
ENDMDL