MODEL 1
REMARK VINA RESULT: -9.149999761      0.000      0.000
REMARK  9 active torsions:
REMARK  status: ('A' for Active; 'I' for Inactive)
REMARK    1  A    between atoms: C2_2  and  O1_3
REMARK    2  A    between atoms: O1_3  and  C3_4
REMARK       I    between atoms: C3_4  and  N1_6
REMARK    3  A    between atoms: C6_9  and  C7_10
REMARK    4  A    between atoms: C7_10  and  N2_11
REMARK       I    between atoms: N2_11  and  C8_13
REMARK    5  A    between atoms: C8_13  and  C9_15
REMARK       I    between atoms: C9_15  and  N3_17
REMARK    6  A    between atoms: N3_17  and  C10_19
REMARK    7  A    between atoms: C10_19  and  C11_20
REMARK    8  A    between atoms: C14_23  and  C15_24
REMARK       I    between atoms: C15_24  and  N4_26
REMARK    9  A    between atoms: C22_36  and  C23_37
ROOT
HETATM    1  N2  UNL     1      14.139   8.796  26.189  1.00  0.00    -0.353 N
ATOM      2  H2  UNL     1      14.511   7.950  26.620  1.00  0.00     0.162 HD
HETATM    3  C8  UNL     1      12.808   8.794  25.708  1.00  0.00     0.309 C
HETATM    4  O3  UNL     1      12.278   9.779  25.172  1.00  0.00    -0.262 OA
ENDROOT
BRANCH   3   5
HETATM    5  C9  UNL     1      12.003   7.556  25.848  1.00  0.00     0.309 C
HETATM    6  O4  UNL     1      11.433   7.425  26.940  1.00  0.00    -0.262 OA
HETATM    7  N3  UNL     1      11.956   6.669  24.774  1.00  0.00    -0.351 N
ATOM      8  H3  UNL     1      12.489   6.987  23.964  1.00  0.00     0.162 HD
BRANCH   7   9
HETATM    9  C10 UNL     1      11.324   5.419  24.571  1.00  0.00     0.156 C
BRANCH   9  10
HETATM   10  C11 UNL     1      11.831   4.295  25.338  1.00  0.00     0.204 C
HETATM   11  C12 UNL     1      13.239   4.367  25.820  1.00  0.00     0.037 C
HETATM   12  C13 UNL     1      13.235   3.422  27.057  1.00  0.00     0.045 C
HETATM   13  C14 UNL     1      11.854   2.831  26.992  1.00  0.00     0.277 C
HETATM   14  N5  UNL     1      11.074   4.024  26.598  1.00  0.00    -0.057 N
ATOM     15  H52 UNL     1      11.000   4.783  27.275  1.00  0.00     0.278 HD
ATOM     16  H51 UNL     1      10.062   3.921  26.526  1.00  0.00     0.278 HD
BRANCH  13  17
HETATM   17  C15 UNL     1      11.391   2.311  28.284  1.00  0.00     0.250 C
HETATM   18  O5  UNL     1      10.539   2.973  28.931  1.00  0.00    -0.271 OA
HETATM   19  N4  UNL     1      11.875   1.112  28.797  1.00  0.00    -0.350 N
HETATM   20  C16 UNL     1      11.450   0.628  30.087  1.00  0.00     0.126 C
HETATM   21  C20 UNL     1      12.798   0.296  28.055  1.00  0.00     0.126 C
HETATM   22  C17 UNL     1      12.165  -0.667  30.369  1.00  0.00     0.020 C
HETATM   23  C18 UNL     1      13.637  -0.584  30.149  1.00  0.00     0.003 C
HETATM   24  C19 UNL     1      14.060   0.034  28.853  1.00  0.00     0.020 C
ENDBRANCH  13  17
ENDBRANCH   9  10
ENDBRANCH   7   9
ENDBRANCH   3   5
BRANCH   1  25
HETATM   25  C7  UNL     1      14.983   9.957  26.088  1.00  0.00     0.128 C
BRANCH  25  26
HETATM   26  C6  UNL     1      15.919  10.011  27.253  1.00  0.00     0.007 C
HETATM   27  C5  UNL     1      17.339  10.283  26.816  1.00  0.00     0.026 C
HETATM   28  C4  UNL     1      18.122  10.613  28.088  1.00  0.00     0.129 C
HETATM   29  N1  UNL     1      17.399  10.167  29.263  1.00  0.00    -0.315 N
HETATM   30  C3  UNL     1      17.423  10.995  30.425  1.00  0.00     0.363 C
HETATM   31  C22 UNL     1      16.660   8.926  29.294  1.00  0.00     0.197 C
HETATM   32  O2  UNL     1      18.040  12.071  30.450  1.00  0.00    -0.238 OA
HETATM   33  C21 UNL     1      15.937   8.674  27.990  1.00  0.00     0.041 C
BRANCH  30  34
HETATM   34  O1  UNL     1      16.739  10.603  31.580  1.00  0.00    -0.304 OA
BRANCH  34  35
HETATM   35  C2  UNL     1      17.351  10.553  32.853  1.00  0.00     0.176 C
HETATM   36  C1  UNL     1      17.006   9.318  33.630  1.00  0.00     0.034 C
ENDBRANCH  34  35
ENDBRANCH  30  34
BRANCH  31  37
HETATM   37  C23 UNL     1      17.554   7.745  29.646  1.00  0.00     0.407 C
HETATM   38  F1  UNL     1      18.553   7.678  28.688  1.00  0.00    -0.169 F
HETATM   39  F2  UNL     1      18.140   7.906  30.871  1.00  0.00    -0.169 F
HETATM   40  F3  UNL     1      16.848   6.572  29.666  1.00  0.00    -0.169 F
ENDBRANCH  31  37
ENDBRANCH  25  26
ENDBRANCH   1  25
TORSDOF 9
ENDMDL