MODEL 2
REMARK VINA RESULT: -8.327770434      1.971      3.862
REMARK  8 active torsions:
REMARK  status: ('A' for Active; 'I' for Inactive)
REMARK       I    between atoms: N1_4  and  C4_6
REMARK    1  A    between atoms: C4_6  and  C5_8
REMARK    2  A    between atoms: C8_12  and  O3_13
REMARK    3  A    between atoms: C10_16  and  N2_17
REMARK    4  A    between atoms: N2_17  and  C11_19
REMARK    5  A    between atoms: C12_21  and  C13_22
REMARK    6  A    between atoms: C13_22  and  C14_23
REMARK    7  A    between atoms: C14_23  and  N3_24
REMARK       I    between atoms: N3_24  and  C15_26
REMARK    8  A    between atoms: C15_26  and  C16_28
ROOT
HETATM    1  C5  UNL     1      17.811   5.363  23.967  1.00  0.00     0.101 C
HETATM    2  C6  UNL     1      17.717   6.631  23.250  1.00  0.00     0.190 C
HETATM    3  O2  UNL     1      18.681   6.604  22.267  1.00  0.00    -0.387 OA
HETATM    4  C7  UNL     1      18.990   5.297  21.945  1.00  0.00     0.207 C
HETATM    5  C8  UNL     1      18.690   4.469  23.148  1.00  0.00     0.100 C
HETATM    6  C9  UNL     1      17.923   3.217  22.907  1.00  0.00     0.067 C
HETATM    7  C10 UNL     1      16.421   3.686  23.071  1.00  0.00     0.092 C
HETATM    8  C12 UNL     1      16.508   4.610  24.219  1.00  0.00     0.034 C
ENDROOT
BRANCH   8   9
HETATM    9  C13 UNL     1      15.398   5.466  24.597  1.00  0.00     0.041 C
BRANCH   9  10
HETATM   10  C14 UNL     1      14.680   5.293  25.889  1.00  0.00     0.056 C
HETATM   11  C22 UNL     1      13.989   3.985  26.081  1.00  0.00     0.059 C
HETATM   12  C23 UNL     1      12.966   4.041  24.938  1.00  0.00     0.170 C
HETATM   13  O6  UNL     1      12.728   5.373  24.687  1.00  0.00    -0.389 OA
HETATM   14  C24 UNL     1      13.353   6.130  25.677  1.00  0.00     0.198 C
BRANCH  10  15
HETATM   15  N3  UNL     1      15.343   5.862  26.994  1.00  0.00    -0.349 N
HETATM   16  C15 UNL     1      15.894   7.131  27.140  1.00  0.00     0.222 C
HETATM   17  O5  UNL     1      15.864   7.983  26.226  1.00  0.00    -0.273 OA
ATOM     18  H3  UNL     1      15.431   5.253  27.808  1.00  0.00     0.163 HD
BRANCH  16  19
HETATM   19  C16 UNL     1      16.572   7.549  28.437  1.00  0.00     0.078 C
HETATM   20  C17 UNL     1      15.471   7.856  29.400  1.00  0.00     0.020 C
HETATM   21  C18 UNL     1      15.922   8.538  30.653  1.00  0.00     0.080 C
HETATM   22  C19 UNL     1      17.398   8.855  30.672  1.00  0.00     0.243 C
HETATM   23  F1  UNL     1      18.163   7.759  31.000  1.00  0.00    -0.206 F
HETATM   24  F2  UNL     1      17.615   9.797  31.685  1.00  0.00    -0.206 F
HETATM   25  C20 UNL     1      17.878   9.459  29.394  1.00  0.00     0.080 C
HETATM   26  C21 UNL     1      17.450   8.717  28.170  1.00  0.00     0.020 C
ENDBRANCH  16  19
ENDBRANCH  10  15
ENDBRANCH   9  10
ENDBRANCH   8   9
BRANCH   1  27
HETATM   27  C4  UNL     1      18.484   5.654  25.294  1.00  0.00     0.236 C
HETATM   28  N1  UNL     1      19.221   6.843  25.444  1.00  0.00    -0.334 N
HETATM   29  C2  UNL     1      20.058   7.102  26.370  1.00  0.00    -0.018 C
ATOM     30  H1  UNL     1      19.072   7.570  24.743  1.00  0.00     0.168 HD
HETATM   31  C1  UNL     1      20.782   8.393  26.430  1.00  0.00     0.062 C
HETATM   32  C3  UNL     1      20.341   6.109  27.433  1.00  0.00     0.062 C
HETATM   33  O1  UNL     1      18.339   4.799  26.194  1.00  0.00    -0.272 OA
ENDBRANCH   1  27
BRANCH   7  34
HETATM   34  N2  UNL     1      15.994   4.166  21.801  1.00  0.00    -0.363 N
ATOM     35  H2  UNL     1      15.971   5.164  21.593  1.00  0.00     0.162 HD
BRANCH  34  36
HETATM   36  C11 UNL     1      15.597   3.190  20.826  1.00  0.00     0.348 C
HETATM   37  O4  UNL     1      14.754   2.292  21.062  1.00  0.00    -0.284 OA
ENDBRANCH  34  36
ENDBRANCH   7  34
BRANCH   5  38
HETATM   38  O3  UNL     1      19.913   4.215  23.798  1.00  0.00    -0.386 OA
ATOM     39  H3  UNL     1      20.514   3.743  23.234  1.00  0.00     0.210 HD
ENDBRANCH   5  38
TORSDOF 8
ENDMDL