MODEL 4
REMARK VINA RESULT: -5.992798256      2.106      5.120
REMARK  3 active torsions:
REMARK  status: ('A' for Active; 'I' for Inactive)
REMARK    1  A    between atoms: C4_7  and  N3_8
REMARK    2  A    between atoms: C9_16  and  C10_17
REMARK       I    between atoms: C10_17  and  N5_19
REMARK    3  A    between atoms: N5_19  and  N6_21
ROOT
HETATM    1  N1  UNL     1       7.356 -19.740   0.139  1.00  0.00    -0.191 NA
HETATM    2  C1  UNL     1       6.997 -18.769   0.629  1.00  0.00     0.104 C
HETATM    3  C2  UNL     1       6.529 -17.586   1.271  1.00  0.00     0.113 A
HETATM    4  C3  UNL     1       6.009 -17.581   2.548  1.00  0.00     0.181 A
HETATM    5  N2  UNL     1       5.859 -18.693   3.453  1.00  0.00    -0.073 NA
HETATM    6  O1  UNL     1       5.673 -16.379   2.811  1.00  0.00    -0.277 OA
HETATM    7  C4  UNL     1       5.935 -15.563   1.781  1.00  0.00     0.165 A
HETATM    8  C9  UNL     1       6.490 -16.305   0.765  1.00  0.00     0.109 A
ENDROOT
BRANCH   8   9
HETATM    9  C10 UNL     1       6.944 -15.809  -0.518  1.00  0.00     0.275 C
HETATM   10  O2  UNL     1       8.172 -16.075  -0.828  1.00  0.00    -0.266 OA
HETATM   11  N5  UNL     1       6.218 -15.075  -1.465  1.00  0.00    -0.272 N
ATOM     12  H5  UNL     1       5.242 -14.839  -1.283  1.00  0.00     0.189 HD
BRANCH  11  13
HETATM   13  N6  UNL     1       6.833 -14.653  -2.682  1.00  0.00    -0.342 N
ATOM     14  H62 UNL     1       7.704 -14.125  -2.634  1.00  0.00     0.176 HD
ATOM     15  H61 UNL     1       6.408 -14.876  -3.583  1.00  0.00     0.176 HD
ENDBRANCH  11  13
ENDBRANCH   8   9
BRANCH   7  16
HETATM   16  N3  UNL     1       5.629 -14.192   1.893  1.00  0.00    -0.357 N
HETATM   17  C5  UNL     1       6.411 -13.153   2.472  1.00  0.00     0.152 C
HETATM   18  C6  UNL     1       6.522 -11.942   1.546  1.00  0.00     0.252 C
HETATM   19  N4  UNL     1       5.204 -11.529   1.103  1.00  0.00    -0.072 N
HETATM   20  C7  UNL     1       4.131 -12.333   1.669  1.00  0.00     0.252 C
ATOM     21  H42 UNL     1       5.052 -10.538   1.290  1.00  0.00     0.277 HD
ATOM     22  H41 UNL     1       5.151 -11.519   0.084  1.00  0.00     0.277 HD
HETATM   23  C8  UNL     1       4.343 -13.771   1.272  1.00  0.00     0.152 C
ENDBRANCH   7  16
TORSDOF 3
ENDMDL