MODEL 2
REMARK VINA RESULT: -7.525771262      1.478      5.158
REMARK  4 active torsions:
REMARK  status: ('A' for Active; 'I' for Inactive)
REMARK    1  A    between atoms: N1_1  and  C1_4
REMARK    2  A    between atoms: C4_8  and  C5_9
REMARK    3  A    between atoms: C5_9  and  O1_10
REMARK    4  A    between atoms: C5_9  and  N3_12
ROOT
HETATM    1  C1  UNL     1       6.496 -16.910   2.627  1.00  0.00     0.116 A
HETATM    2  C2  UNL     1       6.298 -16.100   3.729  1.00  0.00     0.067 A
HETATM    3  C3  UNL     1       5.823 -14.822   3.544  1.00  0.00     0.120 A
HETATM    4  N2  UNL     1       5.565 -14.389   2.308  1.00  0.00    -0.140 N
HETATM    5  C4  UNL     1       5.097 -13.183   1.889  1.00  0.00     0.168 A
HETATM    6  N5  UNL     1       5.019 -13.279   0.551  1.00  0.00    -0.270 N
ATOM      7  H5  UNL     1       4.700 -12.532  -0.066  1.00  0.00     0.189 HD
HETATM    8  N6  UNL     1       5.414 -14.474   0.143  1.00  0.00    -0.130 N
ATOM      9  H6  UNL     1       5.448 -14.799  -0.823  1.00  0.00     0.205 HD
HETATM   10  C10 UNL     1       5.764 -15.193   1.249  1.00  0.00     0.706 A
HETATM   11  N7  UNL     1       6.231 -16.455   1.406  1.00  0.00    -0.175 N
ATOM     12  H7  UNL     1       6.377 -17.053   0.592  1.00  0.00     0.186 HD
ENDROOT
BRANCH   5  13
HETATM   13  C5  UNL     1       4.756 -12.033   2.779  1.00  0.00     0.291 C
BRANCH  13  14
HETATM   14  O1  UNL     1       3.827 -11.255   2.060  1.00  0.00    -0.369 OA
ATOM     15  H1  UNL     1       4.298 -10.475   1.791  1.00  0.00     0.212 HD
ENDBRANCH  13  14
BRANCH  13  16
HETATM   16  N3  UNL     1       5.894 -11.312   3.215  1.00  0.00    -0.358 N
HETATM   17  C6  UNL     1       6.133 -11.208   4.597  1.00  0.00     0.152 C
HETATM   18  C7  UNL     1       7.498 -11.854   4.874  1.00  0.00     0.252 C
HETATM   19  N4  UNL     1       8.464 -10.978   4.260  1.00  0.00    -0.069 N
HETATM   20  C8  UNL     1       8.290 -10.841   2.842  1.00  0.00     0.276 C
ATOM     21  H42 UNL     1       8.463 -10.065   4.715  1.00  0.00     0.277 HD
ATOM     22  H41 UNL     1       9.414 -11.276   4.481  1.00  0.00     0.277 HD
HETATM   23  C9  UNL     1       6.959 -11.161   2.313  1.00  0.00     0.088 C
ENDBRANCH  13  16
ENDBRANCH   5  13
BRANCH   1  24
HETATM   24  N1  UNL     1       6.945 -18.104   2.862  1.00  0.00    -0.385 N
ATOM     25  H12 UNL     1       6.839 -18.882   2.211  1.00  0.00     0.157 HD
ATOM     26  H11 UNL     1       7.425 -18.240   3.752  1.00  0.00     0.157 HD
ENDBRANCH   1  24
TORSDOF 4
ENDMDL