MODEL 3
REMARK VINA RESULT: -6.786092230      1.315      2.002
REMARK  4 active torsions:
REMARK  status: ('A' for Active; 'I' for Inactive)
REMARK    1  A    between atoms: N1_1  and  C1_4
REMARK    2  A    between atoms: C2_7  and  N3_8
REMARK    3  A    between atoms: C6_12  and  N4_13
REMARK    4  A    between atoms: C8_20  and  N6_21
ROOT
HETATM    1  C1  UNL     1       7.615 -16.440   0.326  1.00  0.00     0.705 A
HETATM    2  N2  UNL     1       6.850 -15.338   0.426  1.00  0.00    -0.021 N
ATOM      3  H2  UNL     1       6.493 -14.882  -0.414  1.00  0.00     0.203 HD
HETATM    4  C2  UNL     1       6.563 -14.844   1.637  1.00  0.00     0.720 A
HETATM    5  N5  UNL     1       7.050 -15.470   2.717  1.00  0.00    -0.021 N
ATOM      6  H5  UNL     1       6.831 -15.096   3.640  1.00  0.00     0.203 HD
HETATM    7  C8  UNL     1       7.818 -16.576   2.631  1.00  0.00     0.705 A
HETATM    8  N7  UNL     1       8.112 -17.079   1.427  1.00  0.00    -0.022 N
ATOM      9  H7  UNL     1       8.690 -17.914   1.333  1.00  0.00     0.203 HD
ENDROOT
BRANCH   4  10
HETATM   10  N3  UNL     1       5.761 -13.686   1.806  1.00  0.00    -0.119 N
HETATM   11  C3  UNL     1       4.522 -13.622   1.257  1.00  0.00     0.119 A
HETATM   12  C4  UNL     1       3.724 -12.509   1.407  1.00  0.00     0.021 A
HETATM   13  C5  UNL     1       4.181 -11.406   2.137  1.00  0.00     0.043 A
HETATM   14  C6  UNL     1       5.447 -11.474   2.696  1.00  0.00     0.171 A
HETATM   15  C7  UNL     1       6.194 -12.617   2.509  1.00  0.00     0.299 A
HETATM   16  O3  UNL     1       7.365 -12.726   3.006  1.00  0.00    -0.264 OA
BRANCH  14  17
HETATM   17  N4  UNL     1       5.967 -10.386   3.450  1.00  0.00    -0.110 N
HETATM   18  O1  UNL     1       6.612  -9.443   2.951  1.00  0.00    -0.532 OA
HETATM   19  O2  UNL     1       5.762 -10.349   4.805  1.00  0.00    -0.532 OA
ENDBRANCH  14  17
ENDBRANCH   4  10
BRANCH   1  20
HETATM   20  N1  UNL     1       7.934 -16.973  -0.806  1.00  0.00    -0.234 N
ATOM     21  H12 UNL     1       8.652 -16.475  -1.332  1.00  0.00     0.174 HD
ATOM     22  H11 UNL     1       7.505 -17.829  -1.156  1.00  0.00     0.174 HD
ENDBRANCH   1  20
BRANCH   7  23
HETATM   23  N6  UNL     1       8.274 -17.155   3.714  1.00  0.00    -0.234 N
ATOM     24  H62 UNL     1       8.555 -16.591   4.515  1.00  0.00     0.174 HD
ATOM     25  H61 UNL     1       8.351 -18.171   3.765  1.00  0.00     0.174 HD
ENDBRANCH   7  23
TORSDOF 4
ENDMDL