MODEL 2
REMARK VINA RESULT: -7.274324790      2.576      3.923
REMARK  3 active torsions:
REMARK  status: ('A' for Active; 'I' for Inactive)
REMARK    1  A    between atoms: C3_4  and  N2_5
REMARK    2  A    between atoms: C5_9  and  C6_10
REMARK    3  A    between atoms: C9_20  and  N6_21
ROOT
HETATM    1  N1  UNL     1       5.132 -10.754   1.476  1.00  0.00    -0.191 NA
HETATM    2  C1  UNL     1       5.445 -11.851   1.742  1.00  0.00     0.107 C
HETATM    3  C2  UNL     1       5.812 -13.193   2.083  1.00  0.00     0.132 A
HETATM    4  C3  UNL     1       6.604 -13.406   3.212  1.00  0.00     0.141 A
HETATM    5  N4  UNL     1       6.948 -14.662   3.532  1.00  0.00    -0.293 N
ATOM      6  H4  UNL     1       7.526 -14.844   4.352  1.00  0.00     0.172 HD
HETATM    7  C8  UNL     1       6.526 -15.671   2.764  1.00  0.00     0.327 A
HETATM    8  O3  UNL     1       6.858 -16.857   3.076  1.00  0.00    -0.247 OA
HETATM    9  N5  UNL     1       5.764 -15.504   1.672  1.00  0.00    -0.293 N
ATOM     10  H5  UNL     1       5.470 -16.311   1.122  1.00  0.00     0.172 HD
HETATM   11  C9  UNL     1       5.389 -14.253   1.306  1.00  0.00     0.127 A
ENDROOT
BRANCH   4  12
HETATM   12  N2  UNL     1       7.005 -12.267   3.969  1.00  0.00    -0.300 N
HETATM   13  C4  UNL     1       7.990 -11.405   3.660  1.00  0.00     0.190 A
HETATM   14  N3  UNL     1       8.116 -10.439   4.581  1.00  0.00    -0.345 N
HETATM   15  C5  UNL     1       7.188 -10.675   5.521  1.00  0.00     0.126 A
ATOM     16  H3  UNL     1       8.788  -9.671   4.569  1.00  0.00     0.167 HD
HETATM   17  C7  UNL     1       6.501 -11.821   5.127  1.00  0.00     0.136 A
BRANCH  15  18
HETATM   18  C6  UNL     1       6.983  -9.864   6.699  1.00  0.00     0.228 C
HETATM   19  O1  UNL     1       5.822  -9.608   7.077  1.00  0.00    -0.643 OA
HETATM   20  O2  UNL     1       8.045  -9.366   7.416  1.00  0.00    -0.643 OA
ENDBRANCH  15  18
ENDBRANCH   4  12
BRANCH  11  21
HETATM   21  N6  UNL     1       4.656 -14.090   0.255  1.00  0.00    -0.384 N
ATOM     22  H62 UNL     1       4.201 -13.190   0.093  1.00  0.00     0.157 HD
ATOM     23  H61 UNL     1       4.511 -14.832  -0.430  1.00  0.00     0.157 HD
ENDBRANCH  11  21
TORSDOF 3
ENDMDL