MODEL 4
REMARK VINA RESULT: -7.270551322      2.136      6.295
REMARK  2 active torsions:
REMARK  status: ('A' for Active; 'I' for Inactive)
REMARK    1  A    between atoms: C2_3  and  S1_4
REMARK    2  A    between atoms: S1_4  and  C3_5
ROOT
HETATM    1  C3  UNL     1       5.555 -14.936   0.754  1.00  0.00     0.158 A
HETATM    2  N2  UNL     1       5.950 -14.531  -0.468  1.00  0.00    -0.288 N
ATOM      3  H2  UNL     1       5.717 -13.588  -0.776  1.00  0.00     0.172 HD
HETATM    4  C4  UNL     1       6.646 -15.337  -1.297  1.00  0.00     0.330 A
HETATM    5  O1  UNL     1       7.017 -14.960  -2.439  1.00  0.00    -0.246 OA
HETATM    6  N3  UNL     1       6.970 -16.596  -0.918  1.00  0.00    -0.260 N
ATOM      7  H3  UNL     1       7.496 -17.210  -1.541  1.00  0.00     0.175 HD
HETATM    8  C5  UNL     1       6.579 -17.023   0.309  1.00  0.00     0.330 A
HETATM    9  O2  UNL     1       6.900 -18.196   0.621  1.00  0.00    -0.246 OA
HETATM   10  N4  UNL     1       5.894 -16.199   1.102  1.00  0.00    -0.288 N
ATOM     11  H4  UNL     1       5.610 -16.538   2.021  1.00  0.00     0.172 HD
ENDROOT
BRANCH   1  12
HETATM   12  S1  UNL     1       4.636 -13.867   1.843  1.00  0.00    -0.033 SA
BRANCH  12  13
HETATM   13  C2  UNL     1       5.677 -12.832   2.819  1.00  0.00     0.120 A
HETATM   14  C1  UNL     1       5.666 -11.456   2.593  1.00  0.00     0.133 A
HETATM   15  N1  UNL     1       4.840 -10.871   1.600  1.00  0.00    -0.095 NA
HETATM   16  C7  UNL     1       6.507 -10.707   3.396  1.00  0.00     0.215 A
HETATM   17  C6  UNL     1       7.301 -11.288   4.353  1.00  0.00     0.164 A
HETATM   18  O3  UNL     1       6.529  -9.460   3.226  1.00  0.00    -0.285 OA
HETATM   19  N6  UNL     1       7.238 -12.619   4.492  1.00  0.00    -0.307 N
HETATM   20  N5  UNL     1       6.458 -13.396   3.760  1.00  0.00    -0.292 N
ATOM     21  H6  UNL     1       7.825 -13.057   5.202  1.00  0.00     0.186 HD
ATOM     22  H5  UNL     1       6.449 -14.405   3.906  1.00  0.00     0.187 HD
ENDBRANCH  12  13
ENDBRANCH   1  12
TORSDOF 2
ENDMDL