MODEL 1
REMARK VINA RESULT: -6.502932190      0.000      0.000
REMARK  2 active torsions:
REMARK  status: ('A' for Active; 'I' for Inactive)
REMARK    1  A    between atoms: C4_6  and  C5_7
REMARK    2  A    between atoms: C7_11  and  N4_12
ROOT
HETATM    1  N1  UNL     1       8.335 -17.668   3.357  1.00  0.00    -0.191 NA
HETATM    2  C1  UNL     1       7.889 -17.032   2.508  1.00  0.00     0.103 C
HETATM    3  C2  UNL     1       7.339 -16.258   1.444  1.00  0.00     0.096 A
HETATM    4  C3  UNL     1       7.500 -16.666   0.135  1.00  0.00     0.084 A
HETATM    5  N2  UNL     1       8.213 -17.858  -0.174  1.00  0.00    -0.100 NA
HETATM    6  C4  UNL     1       6.972 -15.925  -0.904  1.00  0.00     0.057 A
HETATM    7  C6  UNL     1       6.278 -14.768  -0.628  1.00  0.00     0.054 A
HETATM    8  C7  UNL     1       6.108 -14.345   0.692  1.00  0.00     0.101 A
HETATM    9  C10 UNL     1       6.642 -15.096   1.715  1.00  0.00     0.099 A
HETATM   10  N7  UNL     1       6.464 -14.659   3.044  1.00  0.00    -0.098 NA
ENDROOT
BRANCH   6  11
HETATM   11  C5  UNL     1       7.166 -16.391  -2.265  1.00  0.00     0.267 C
HETATM   12  N3  UNL     1       8.289 -15.904  -2.992  1.00  0.00    -0.057 NA
HETATM   13  O1  UNL     1       6.415 -17.191  -2.846  1.00  0.00    -0.271 OA
ENDBRANCH   6  11
BRANCH   8  14
HETATM   14  N4  UNL     1       5.398 -13.159   0.989  1.00  0.00    -0.196 N
HETATM   15  N5  UNL     1       5.958 -11.970   1.136  1.00  0.00    -0.289 N
HETATM   16  C8  UNL     1       5.033 -11.038   1.413  1.00  0.00     0.127 A
ATOM     17  H5  UNL     1       6.958 -11.786   1.050  1.00  0.00     0.188 HD
HETATM   18  C9  UNL     1       3.830 -11.696   1.438  1.00  0.00     0.127 A
HETATM   19  N6  UNL     1       4.116 -12.992   1.172  1.00  0.00    -0.289 N
ATOM     20  H6  UNL     1       3.423 -13.738   1.121  1.00  0.00     0.188 HD
ENDBRANCH   8  14
TORSDOF 2
ENDMDL