MODEL 1
REMARK VINA RESULT: -7.054256360      0.000      0.000
REMARK  3 active torsions:
REMARK  status: ('A' for Active; 'I' for Inactive)
REMARK    1  A    between atoms: C1_2  and  C2_4
REMARK    2  A    between atoms: C5_7  and  C6_8
REMARK    3  A    between atoms: N3_11  and  N4_12
ROOT
HETATM    1  C6  UNL     1       5.705 -14.018   2.287  1.00  0.00     0.109 A
HETATM    2  C7  UNL     1       5.970 -12.904   3.071  1.00  0.00     0.161 A
HETATM    3  N2  UNL     1       6.845 -13.051   4.171  1.00  0.00    -0.079 NA
HETATM    4  N3  UNL     1       5.386 -11.725   2.755  1.00  0.00    -0.197 N
HETATM    5  C8  UNL     1       4.553 -11.591   1.703  1.00  0.00     0.349 A
HETATM    6  O2  UNL     1       4.020 -10.476   1.431  1.00  0.00    -0.244 OA
HETATM    7  N5  UNL     1       4.288 -12.661   0.937  1.00  0.00    -0.273 N
ATOM      8  H5  UNL     1       3.660 -12.571   0.139  1.00  0.00     0.173 HD
HETATM    9  C9  UNL     1       4.857 -13.870   1.222  1.00  0.00     0.265 A
HETATM   10  O3  UNL     1       4.604 -14.863   0.501  1.00  0.00    -0.267 OA
ENDROOT
BRANCH   1  11
HETATM   11  C5  UNL     1       6.359 -15.275   2.666  1.00  0.00     0.095 A
HETATM   12  C4  UNL     1       5.893 -16.258   3.504  1.00  0.00     0.041 A
HETATM   13  C3  UNL     1       6.842 -17.280   3.580  1.00  0.00     0.045 A
HETATM   14  C2  UNL     1       7.862 -16.856   2.764  1.00  0.00     0.141 A
HETATM   15  O4  UNL     1       7.538 -15.692   2.257  1.00  0.00    -0.304 OA
BRANCH  14  16
HETATM   16  C1  UNL     1       9.126 -17.579   2.490  1.00  0.00     0.288 C
HETATM   17  N1  UNL     1      10.195 -16.924   1.861  1.00  0.00    -0.055 NA
HETATM   18  O1  UNL     1       9.161 -18.777   2.852  1.00  0.00    -0.269 OA
ENDBRANCH  14  16
ENDBRANCH   1  11
BRANCH   4  19
HETATM   19  N4  UNL     1       5.683 -10.626   3.574  1.00  0.00    -0.333 N
ATOM     20  H42 UNL     1       6.406 -10.693   4.290  1.00  0.00     0.177 HD
ATOM     21  H41 UNL     1       5.146  -9.773   3.418  1.00  0.00     0.177 HD
ENDBRANCH   4  19
TORSDOF 3
ENDMDL