MODEL 5
REMARK VINA RESULT: -6.466332730      1.212      1.461
REMARK  4 active torsions:
REMARK  status: ('A' for Active; 'I' for Inactive)
REMARK    1  A    between atoms: N1_1  and  C1_4
REMARK    2  A    between atoms: C2_7  and  N3_8
REMARK    3  A    between atoms: C4_10  and  S1_11
REMARK    4  A    between atoms: S1_11  and  N4_12
ROOT
HETATM    1  N3  UNL     1       6.330 -14.018   2.005  1.00  0.00    -0.249 N
HETATM    2  C3  UNL     1       6.462 -12.690   1.954  1.00  0.00     0.145 A
HETATM    3  C4  UNL     1       6.568 -12.217   3.264  1.00  0.00     0.113 A
HETATM    4  C5  UNL     1       6.493 -13.320   4.072  1.00  0.00     0.134 A
HETATM    5  N5  UNL     1       6.351 -14.379   3.289  1.00  0.00    -0.302 N
ATOM      6  H5  UNL     1       6.268 -15.339   3.623  1.00  0.00     0.186 HD
ENDROOT
BRANCH   1   7
HETATM    7  C2  UNL     1       6.188 -14.932   0.914  1.00  0.00     0.143 A
HETATM    8  N2  UNL     1       6.427 -14.535  -0.361  1.00  0.00    -0.175 N
HETATM    9  C1  UNL     1       6.307 -15.359  -1.413  1.00  0.00     0.677 A
ATOM     10  H2  UNL     1       6.710 -13.569  -0.527  1.00  0.00     0.186 HD
HETATM   11  N6  UNL     1       5.934 -16.641  -1.229  1.00  0.00    -0.202 N
HETATM   12  C7  UNL     1       5.686 -17.081   0.027  1.00  0.00     0.110 A
ATOM     13  H6  UNL     1       5.840 -17.272  -2.025  1.00  0.00     0.183 HD
HETATM   14  C6  UNL     1       5.812 -16.228   1.101  1.00  0.00     0.068 A
BRANCH   9  15
HETATM   15  N1  UNL     1       6.541 -14.961  -2.634  1.00  0.00    -0.234 N
ATOM     16  H12 UNL     1       6.040 -15.426  -3.391  1.00  0.00     0.174 HD
ATOM     17  H11 UNL     1       7.198 -14.209  -2.840  1.00  0.00     0.174 HD
ENDBRANCH   9  15
ENDBRANCH   1   7
BRANCH   3  18
HETATM   18  S1  UNL     1       6.759 -10.558   3.755  1.00  0.00     0.259 S
HETATM   19  O1  UNL     1       6.569  -9.664   2.583  1.00  0.00    -0.201 OA
HETATM   20  O2  UNL     1       5.718 -10.277   4.831  1.00  0.00    -0.201 OA
BRANCH  18  21
HETATM   21  N4  UNL     1       8.303 -10.368   4.500  1.00  0.00    -0.324 N
ATOM     22  H42 UNL     1       8.962 -11.127   4.676  1.00  0.00     0.169 HD
ATOM     23  H41 UNL     1       8.441  -9.384   4.730  1.00  0.00     0.169 HD
ENDBRANCH  18  21
ENDBRANCH   3  18
TORSDOF 4
ENDMDL