MODEL 5
REMARK VINA RESULT: -7.140334467      3.078      4.269
REMARK  3 active torsions:
REMARK  status: ('A' for Active; 'I' for Inactive)
REMARK    1  A    between atoms: C1_2  and  O1_3
REMARK    2  A    between atoms: C1_2  and  N2_5
REMARK    3  A    between atoms: C5_13  and  C6_14
ROOT
HETATM    1  N2  UNL     1       5.871 -17.725   1.272  1.00  0.00    -0.269 N
HETATM    2  C2  UNL     1       6.559 -18.602   2.093  1.00  0.00     0.193 A
HETATM    3  N3  UNL     1       7.064 -17.959   3.141  1.00  0.00    -0.336 N
ATOM      4  H3  UNL     1       7.613 -18.375   3.893  1.00  0.00     0.168 HD
HETATM    5  C3  UNL     1       6.724 -16.660   3.033  1.00  0.00     0.138 A
HETATM    6  N4  UNL     1       6.976 -15.589   3.812  1.00  0.00    -0.349 N
ATOM      7  H4  UNL     1       7.524 -15.705   4.664  1.00  0.00     0.167 HD
HETATM    8  C4  UNL     1       6.514 -14.361   3.482  1.00  0.00     0.109 A
HETATM    9  C5  UNL     1       5.784 -14.201   2.345  1.00  0.00     0.079 A
HETATM   10  C7  UNL     1       5.493 -15.273   1.499  1.00  0.00     0.218 A
HETATM   11  O2  UNL     1       4.820 -15.090   0.464  1.00  0.00    -0.285 OA
HETATM   12  C8  UNL     1       5.970 -16.516   1.851  1.00  0.00     0.138 A
ENDROOT
BRANCH   9  13
HETATM   13  C6  UNL     1       5.290 -12.878   1.995  1.00  0.00     0.152 A
HETATM   14  N5  UNL     1       4.307 -12.179   2.579  1.00  0.00    -0.268 N
HETATM   15  N6  UNL     1       4.195 -11.030   1.937  1.00  0.00    -0.227 N
ATOM     16  H5  UNL     1       3.746 -12.479   3.376  1.00  0.00     0.190 HD
HETATM   17  N7  UNL     1       5.076 -10.982   0.967  1.00  0.00    -0.227 N
ATOM     18  H6  UNL     1       3.526 -10.293   2.161  1.00  0.00     0.210 HD
HETATM   19  N8  UNL     1       5.753 -12.103   0.989  1.00  0.00    -0.268 N
ATOM     20  H7  UNL     1       5.209 -10.211   0.313  1.00  0.00     0.210 HD
ATOM     21  H8  UNL     1       6.508 -12.351   0.350  1.00  0.00     0.190 HD
ENDBRANCH   9  13
BRANCH   1  22
HETATM   22  C1  UNL     1       5.231 -18.128   0.087  1.00  0.00     0.237 C
HETATM   23  N1  UNL     1       5.744 -18.546  -1.141  1.00  0.00    -0.056 NA
BRANCH  22  24
HETATM   24  O1  UNL     1       3.927 -18.124   0.098  1.00  0.00    -0.334 OA
ATOM     25  H1  UNL     1       3.577 -17.438   0.653  1.00  0.00     0.220 HD
ENDBRANCH  22  24
ENDBRANCH   1  22
TORSDOF 3
ENDMDL