MODEL 2
REMARK VINA RESULT: -7.538468886      2.394      6.615
REMARK  3 active torsions:
REMARK  status: ('A' for Active; 'I' for Inactive)
REMARK    1  A    between atoms: N1_1  and  C1_4
REMARK    2  A    between atoms: C4_16  and  C5_17
REMARK    3  A    between atoms: C8_20  and  C9_21
ROOT
HETATM    1  C1  UNL     1       6.115 -15.917   1.180  1.00  0.00     0.145 A
HETATM    2  N2  UNL     1       6.392 -17.011   0.403  1.00  0.00    -0.247 N
ATOM      3  H2  UNL     1       6.565 -17.916   0.841  1.00  0.00     0.191 HD
HETATM    4  N3  UNL     1       6.435 -16.894  -0.909  1.00  0.00    -0.018 N
HETATM    5  N4  UNL     1       6.677 -17.780  -1.882  1.00  0.00    -0.260 N
ATOM      6  H4  UNL     1       6.883 -18.768  -1.741  1.00  0.00     0.190 HD
HETATM    7  C2  UNL     1       6.607 -17.164  -3.075  1.00  0.00     0.217 A
HETATM    8  N5  UNL     1       6.315 -15.879  -2.814  1.00  0.00    -0.183 N
ATOM      9  H5  UNL     1       6.195 -15.150  -3.517  1.00  0.00     0.185 HD
HETATM   10  C3  UNL     1       6.205 -15.695  -1.469  1.00  0.00     0.720 A
HETATM   11  N6  UNL     1       5.934 -14.620  -0.717  1.00  0.00    -0.182 N
ATOM     12  H6  UNL     1       5.766 -13.726  -1.179  1.00  0.00     0.184 HD
HETATM   13  C4  UNL     1       5.876 -14.678   0.646  1.00  0.00     0.120 A
ENDROOT
BRANCH  13  14
HETATM   14  C5  UNL     1       5.579 -13.487   1.394  1.00  0.00     0.064 A
HETATM   15  C6  UNL     1       4.267 -13.035   1.586  1.00  0.00     0.034 A
HETATM   16  C7  UNL     1       4.318 -11.881   2.337  1.00  0.00     0.037 A
HETATM   17  C8  UNL     1       5.631 -11.623   2.604  1.00  0.00     0.098 A
HETATM   18  N8  UNL     1       6.352 -12.608   2.022  1.00  0.00    -0.350 N
ATOM     19  H8  UNL     1       7.369 -12.669   2.061  1.00  0.00     0.166 HD
BRANCH  17  20
HETATM   20  C9  UNL     1       6.147 -10.497   3.373  1.00  0.00     0.281 C
HETATM   21  N7  UNL     1       5.896 -10.336   4.756  1.00  0.00    -0.056 NA
HETATM   22  O1  UNL     1       6.853  -9.603   2.818  1.00  0.00    -0.269 OA
ENDBRANCH  17  20
ENDBRANCH  13  14
BRANCH   1  23
HETATM   23  N1  UNL     1       6.083 -16.080   2.460  1.00  0.00    -0.382 N
ATOM     24  H12 UNL     1       5.422 -15.544   3.022  1.00  0.00     0.157 HD
ATOM     25  H11 UNL     1       6.733 -16.751   2.870  1.00  0.00     0.157 HD
ENDBRANCH   1  23
TORSDOF 3
ENDMDL