MODEL 4
REMARK VINA RESULT: -7.324049686      3.710      7.581
REMARK  6 active torsions:
REMARK  status: ('A' for Active; 'I' for Inactive)
REMARK    1  A    between atoms: C2_2  and  N1_3
REMARK    2  A    between atoms: C3_5  and  C4_6
REMARK    3  A    between atoms: C7_15  and  C8_16
REMARK    4  A    between atoms: C8_16  and  C9_17
REMARK    5  A    between atoms: C11_21  and  N5_22
REMARK    6  A    between atoms: C12_27  and  N7_28
ROOT
HETATM    1  C4  UNL     1      -3.227 -10.703  11.164  1.00  0.00     0.092 A
HETATM    2  C5  UNL     1      -1.925 -10.690  10.709  1.00  0.00     0.264 A
HETATM    3  O1  UNL     1      -0.957 -10.983  11.497  1.00  0.00    -0.267 OA
HETATM    4  N2  UNL     1      -1.577 -10.388   9.469  1.00  0.00    -0.274 N
ATOM      5  H2  UNL     1      -0.602 -10.391   9.170  1.00  0.00     0.173 HD
HETATM    6  C6  UNL     1      -2.578 -10.075   8.619  1.00  0.00     0.341 A
HETATM    7  O2  UNL     1      -2.363  -9.772   7.423  1.00  0.00    -0.245 OA
HETATM    8  N3  UNL     1      -3.877 -10.078   9.042  1.00  0.00    -0.215 N
HETATM    9  S1  UNL     1      -5.372  -9.748   8.278  1.00  0.00     0.012 SA
HETATM   10  C7  UNL     1      -6.400 -10.021   9.619  1.00  0.00     0.074 A
HETATM   11  N8  UNL     1      -5.542 -10.340  10.543  1.00  0.00    -0.337 N
ATOM     12  H8  UNL     1      -5.869 -10.565  11.483  1.00  0.00     0.168 HD
HETATM   13  C13 UNL     1      -4.266 -10.376  10.273  1.00  0.00     0.140 A
ENDROOT
BRANCH  10  14
HETATM   14  C8  UNL     1      -7.876  -9.927   9.733  1.00  0.00     0.110 C
BRANCH  14  15
HETATM   15  C9  UNL     1      -8.571 -10.323   8.505  1.00  0.00     0.008 A
HETATM   16  C10 UNL     1      -8.588  -9.571   7.351  1.00  0.00     0.117 A
HETATM   17  N4  UNL     1      -9.239  -9.985   6.265  1.00  0.00    -0.202 N
HETATM   18  C11 UNL     1      -9.914 -11.170   6.254  1.00  0.00     0.677 A
ATOM     19  H4  UNL     1      -9.233  -9.405   5.426  1.00  0.00     0.183 HD
HETATM   20  N6  UNL     1      -9.903 -11.916   7.382  1.00  0.00    -0.177 N
HETATM   21  C12 UNL     1      -9.251 -11.525   8.506  1.00  0.00     0.122 A
ATOM     22  H6  UNL     1     -10.404 -12.805   7.388  1.00  0.00     0.185 HD
BRANCH  18  23
HETATM   23  N5  UNL     1     -10.542 -11.568   5.204  1.00  0.00    -0.234 N
ATOM     24  H52 UNL     1     -10.627 -10.968   4.384  1.00  0.00     0.174 HD
ATOM     25  H51 UNL     1     -10.971 -12.493   5.165  1.00  0.00     0.174 HD
ENDBRANCH  18  23
BRANCH  21  26
HETATM   26  N7  UNL     1      -9.296 -12.295   9.524  1.00  0.00    -0.385 N
ATOM     27  H72 UNL     1      -8.821 -11.993  10.375  1.00  0.00     0.157 HD
ATOM     28  H71 UNL     1      -9.785 -13.190   9.520  1.00  0.00     0.157 HD
ENDBRANCH  21  26
ENDBRANCH  14  15
ENDBRANCH  10  14
BRANCH   1  29
HETATM   29  C3  UNL     1      -3.504 -11.051  12.550  1.00  0.00     0.104 C
HETATM   30  N1  UNL     1      -3.026 -12.108  13.042  1.00  0.00    -0.398 N
ATOM     31  H1  UNL     1      -2.452 -12.682  12.424  1.00  0.00     0.158 HD
BRANCH  30  32
HETATM   32  C2  UNL     1      -3.205 -12.588  14.380  1.00  0.00     0.114 C
HETATM   33  C1  UNL     1      -2.873 -14.059  14.518  1.00  0.00     0.026 C
ENDBRANCH  30  32
ENDBRANCH   1  29
TORSDOF 6
ENDMDL