MODEL 3
REMARK VINA RESULT: -6.786172451      1.101      1.298
REMARK  5 active torsions:
REMARK  status: ('A' for Active; 'I' for Inactive)
REMARK    1  A    between atoms: C3_5  and  C4_6
REMARK    2  A    between atoms: N3_13  and  C8_14
REMARK    3  A    between atoms: C10_16  and  O1_17
REMARK    4  A    between atoms: C10_16  and  C11_19
REMARK    5  A    between atoms: C14_24  and  N5_25
ROOT
HETATM    1  C8  UNL     1      -3.435 -11.874   9.965  1.00  0.00     0.131 A
HETATM    2  C9  UNL     1      -3.126 -13.185   9.978  1.00  0.00     0.110 A
HETATM    3  C10 UNL     1      -3.188 -14.106   8.871  1.00  0.00     0.076 C
HETATM    4  N4  UNL     1      -2.898 -13.767  11.208  1.00  0.00    -0.187 N
ATOM      5  H4  UNL     1      -2.660 -14.759  11.230  1.00  0.00     0.184 HD
HETATM    6  C14 UNL     1      -2.968 -13.119  12.369  1.00  0.00     0.679 A
HETATM    7  N6  UNL     1      -3.277 -11.823  12.372  1.00  0.00    -0.154 N
ATOM      8  H6  UNL     1      -3.335 -11.312  13.253  1.00  0.00     0.187 HD
HETATM    9  C15 UNL     1      -3.512 -11.185  11.201  1.00  0.00     0.288 A
HETATM   10  O2  UNL     1      -3.794  -9.970  11.279  1.00  0.00    -0.265 OA
ENDROOT
BRANCH   1  11
HETATM   11  N3  UNL     1      -3.561 -11.092   8.802  1.00  0.00    -0.339 N
HETATM   12  C4  UNL     1      -4.407 -10.376   7.989  1.00  0.00     0.357 C
HETATM   13  N2  UNL     1      -3.918 -10.564   6.596  1.00  0.00    -0.042 N
HETATM   14  C5  UNL     1      -2.501 -10.542   6.709  1.00  0.00     0.202 C
ATOM     15  H22 UNL     1      -4.286 -11.397   6.135  1.00  0.00     0.280 HD
ATOM     16  H21 UNL     1      -4.292  -9.890   5.929  1.00  0.00     0.280 HD
HETATM   17  C6  UNL     1      -1.882  -9.152   6.515  1.00  0.00     0.042 C
HETATM   18  C7  UNL     1      -2.222 -10.936   8.099  1.00  0.00     0.158 C
BRANCH  12  19
HETATM   19  C3  UNL     1      -5.844 -10.429   7.923  1.00  0.00     0.150 A
HETATM   20  N1  UNL     1      -6.633 -11.075   7.064  1.00  0.00    -0.330 N
HETATM   21  C2  UNL     1      -7.925 -10.808   7.286  1.00  0.00     0.093 A
ATOM     22  H1  UNL     1      -6.294 -11.697   6.330  1.00  0.00     0.168 HD
HETATM   23  C1  UNL     1      -9.065 -11.344   6.494  1.00  0.00     0.090 C
HETATM   24  N8  UNL     1      -7.939  -9.968   8.322  1.00  0.00    -0.286 N
HETATM   25  N7  UNL     1      -6.693  -9.737   8.706  1.00  0.00    -0.280 N
ATOM     26  H8  UNL     1      -8.775  -9.569   8.749  1.00  0.00     0.188 HD
HETATM   27  C16 UNL     1      -6.375  -8.828   9.811  1.00  0.00     0.179 C
ENDBRANCH  12  19
ENDBRANCH   1  11
BRANCH   3  28
HETATM   28  O1  UNL     1      -3.740 -13.707   7.697  1.00  0.00    -0.362 OA
ATOM     29  H1  UNL     1      -3.424 -14.076   6.881  1.00  0.00     0.217 HD
ENDBRANCH   3  28
BRANCH   3  30
HETATM   30  C11 UNL     1      -1.980 -14.923   8.540  1.00  0.00     0.036 C
HETATM   31  C12 UNL     1      -1.981 -16.384   8.571  1.00  0.00     0.016 C
HETATM   32  C13 UNL     1      -1.607 -14.536   7.068  1.00  0.00     0.016 C
ENDBRANCH   3  30
BRANCH   6  33
HETATM   33  N5  UNL     1      -2.718 -13.754  13.480  1.00  0.00    -0.234 N
ATOM     34  H52 UNL     1      -2.722 -13.268  14.376  1.00  0.00     0.174 HD
ATOM     35  H51 UNL     1      -2.501 -14.750  13.454  1.00  0.00     0.174 HD
ENDBRANCH   6  33
TORSDOF 5
ENDMDL