MODEL 1
REMARK VINA RESULT: -7.671346470      0.000      0.000
REMARK  5 active torsions:
REMARK  status: ('A' for Active; 'I' for Inactive)
REMARK    1  A    between atoms: N1_1  and  C1_4
REMARK    2  A    between atoms: C4_10  and  O2_11
REMARK    3  A    between atoms: O2_11  and  C5_12
REMARK    4  A    between atoms: C5_12  and  C6_13
REMARK    5  A    between atoms: C10_22  and  N5_23
ROOT
HETATM    1  C1  UNL     1      -3.418 -12.352   6.952  1.00  0.00     0.680 A
HETATM    2  N2  UNL     1      -4.482 -11.642   6.601  1.00  0.00    -0.155 N
ATOM      3  H2  UNL     1      -4.814 -11.695   5.638  1.00  0.00     0.187 HD
HETATM    4  C2  UNL     1      -5.139 -10.856   7.473  1.00  0.00     0.278 A
HETATM    5  O1  UNL     1      -6.157 -10.186   7.110  1.00  0.00    -0.266 OA
HETATM    6  C3  UNL     1      -4.658 -10.814   8.763  1.00  0.00     0.129 A
HETATM    7  C4  UNL     1      -5.274 -10.036   9.710  1.00  0.00     0.177 A
HETATM    8  N4  UNL     1      -4.787 -10.013  10.957  1.00  0.00    -0.169 N
ATOM      9  H4  UNL     1      -5.264  -9.427  11.643  1.00  0.00     0.186 HD
HETATM   10  C10 UNL     1      -3.714 -10.709  11.368  1.00  0.00     0.684 A
HETATM   11  N7  UNL     1      -3.097 -11.483  10.438  1.00  0.00    -0.175 N
ATOM     12  H7  UNL     1      -2.278 -12.031  10.702  1.00  0.00     0.186 HD
HETATM   13  C15 UNL     1      -3.555 -11.537   9.168  1.00  0.00     0.156 A
HETATM   14  N8  UNL     1      -2.956 -12.297   8.234  1.00  0.00    -0.175 N
ATOM     15  H8  UNL     1      -2.136 -12.847   8.492  1.00  0.00     0.186 HD
ENDROOT
BRANCH   7  16
HETATM   16  O2  UNL     1      -6.389  -9.301   9.317  1.00  0.00    -0.332 OA
BRANCH  16  17
HETATM   17  C5  UNL     1      -7.458  -8.990  10.189  1.00  0.00     0.210 C
BRANCH  17  18
HETATM   18  C6  UNL     1      -8.713  -9.580   9.581  1.00  0.00     0.210 C
HETATM   19  C7  UNL     1      -8.780 -11.069   9.706  1.00  0.00     0.037 C
HETATM   20  C8  UNL     1      -9.302 -11.513   8.350  1.00  0.00     0.029 C
HETATM   21  C9  UNL     1      -9.721 -10.237   7.683  1.00  0.00     0.233 C
HETATM   22  N3  UNL     1      -8.696  -9.290   8.148  1.00  0.00    -0.069 N
ATOM     23  H32 UNL     1      -8.843  -8.314   7.890  1.00  0.00     0.277 HD
ATOM     24  H31 UNL     1      -7.787  -9.359   7.691  1.00  0.00     0.277 HD
ENDBRANCH  17  18
ENDBRANCH  16  17
ENDBRANCH   7  16
BRANCH  10  25
HETATM   25  N5  UNL     1      -3.239 -10.648  12.704  1.00  0.00    -0.208 N
HETATM   26  C11 UNL     1      -3.745 -11.519  13.733  1.00  0.00     0.186 C
HETATM   27  C12 UNL     1      -2.679 -12.126  14.584  1.00  0.00     0.080 C
HETATM   28  N6  UNL     1      -1.481 -11.412  14.716  1.00  0.00    -0.379 N
HETATM   29  C13 UNL     1      -1.115 -10.474  13.747  1.00  0.00     0.080 C
ATOM     30  H6  UNL     1      -0.876 -11.576  15.520  1.00  0.00     0.164 HD
HETATM   31  C14 UNL     1      -2.221  -9.706  13.103  1.00  0.00     0.186 C
ENDBRANCH  10  25
BRANCH   1  32
HETATM   32  N1  UNL     1      -2.837 -13.083   6.066  1.00  0.00    -0.234 N
ATOM     33  H12 UNL     1      -1.943 -12.808   5.659  1.00  0.00     0.174 HD
ATOM     34  H11 UNL     1      -3.286 -13.949   5.770  1.00  0.00     0.174 HD
ENDBRANCH   1  32
TORSDOF 5
ENDMDL