MODEL 4
REMARK VINA RESULT: -7.619605123      1.607      4.062
REMARK  6 active torsions:
REMARK  status: ('A' for Active; 'I' for Inactive)
REMARK    1  A    between atoms: N1_1  and  C1_4
REMARK    2  A    between atoms: C7_14  and  C8_15
REMARK    3  A    between atoms: C8_15  and  N4_16
REMARK    4  A    between atoms: N7_28  and  C13_29
REMARK    5  A    between atoms: C13_29  and  C14_30
REMARK    6  A    between atoms: C14_30  and  C15_31
ROOT
HETATM    1  C1  UNL     1      -1.957 -11.797  12.405  1.00  0.00     0.111 A
HETATM    2  N2  UNL     1      -2.394 -11.752  13.674  1.00  0.00    -0.338 N
ATOM      3  H2  UNL     1      -1.821 -12.122  14.432  1.00  0.00     0.168 HD
HETATM    4  C2  UNL     1      -3.610 -11.205  13.934  1.00  0.00     0.183 A
HETATM    5  N3  UNL     1      -4.350 -10.724  12.953  1.00  0.00    -0.338 N
ATOM      6  H3  UNL     1      -5.258 -10.321  13.189  1.00  0.00     0.168 HD
HETATM    7  C3  UNL     1      -3.982 -10.734  11.670  1.00  0.00     0.119 A
HETATM    8  C4  UNL     1      -2.722 -11.296  11.369  1.00  0.00     0.046 A
HETATM    9  C5  UNL     1      -2.515 -11.215   9.924  1.00  0.00     0.056 C
HETATM   10  C6  UNL     1      -1.136 -10.897   9.466  1.00  0.00     0.034 C
HETATM   11  C7  UNL     1      -0.614 -12.076   8.684  1.00  0.00     0.049 C
HETATM   12  C9  UNL     1      -1.776 -12.946   8.515  1.00  0.00    -0.010 A
HETATM   13  C10 UNL     1      -2.233 -14.098   7.908  1.00  0.00     0.116 A
HETATM   14  N5  UNL     1      -3.519 -14.249   8.259  1.00  0.00    -0.311 N
ATOM     15  H5  UNL     1      -4.111 -15.021   7.952  1.00  0.00     0.186 HD
HETATM   16  N6  UNL     1      -3.917 -13.285   9.041  1.00  0.00    -0.303 N
ATOM     17  H6  UNL     1      -4.847 -13.173   9.443  1.00  0.00     0.186 HD
HETATM   18  C11 UNL     1      -2.859 -12.462   9.217  1.00  0.00     0.049 A
HETATM   19  C12 UNL     1      -3.482 -10.089   9.526  1.00  0.00     0.150 C
HETATM   20  N7  UNL     1      -4.611 -10.314  10.470  1.00  0.00    -0.345 N
ENDROOT
BRANCH   1  21
HETATM   21  N1  UNL     1      -0.811 -12.315  12.127  1.00  0.00    -0.385 N
ATOM     22  H12 UNL     1      -0.735 -12.919  11.309  1.00  0.00     0.157 HD
ATOM     23  H11 UNL     1      -0.002 -12.126  12.718  1.00  0.00     0.157 HD
ENDBRANCH   1  21
BRANCH  11  24
HETATM   24  C8  UNL     1       0.019 -11.663   7.379  1.00  0.00     0.239 C
BRANCH  24  25
HETATM   25  N4  UNL     1      -0.850 -10.986   6.489  1.00  0.00    -0.079 N
ATOM     26  H43 UNL     1      -0.316 -10.546   5.739  1.00  0.00     0.274 HD
ATOM     27  H42 UNL     1      -1.395 -11.656   5.947  1.00  0.00     0.274 HD
ATOM     28  H41 UNL     1      -1.467 -10.305   6.932  1.00  0.00     0.274 HD
ENDBRANCH  24  25
ENDBRANCH  11  24
BRANCH  20  29
HETATM   29  C13 UNL     1      -5.974 -10.205  10.092  1.00  0.00     0.073 C
BRANCH  29  30
HETATM   30  C14 UNL     1      -6.397  -9.923   8.726  1.00  0.00     0.124 C
BRANCH  30  31
HETATM   31  C15 UNL     1      -7.410 -10.832   8.164  1.00  0.00     0.117 A
HETATM   32  N8  UNL     1      -7.586 -10.962   6.814  1.00  0.00    -0.272 N
HETATM   33  N9  UNL     1      -8.532 -11.857   6.618  1.00  0.00    -0.227 N
ATOM     34  H8  UNL     1      -7.077 -10.456   6.089  1.00  0.00     0.190 HD
HETATM   35  N10 UNL     1      -8.970 -12.307   7.772  1.00  0.00    -0.227 N
ATOM     36  H9  UNL     1      -8.874 -12.157   5.704  1.00  0.00     0.210 HD
HETATM   37  N11 UNL     1      -8.268 -11.664   8.688  1.00  0.00    -0.272 N
ATOM     38  H10 UNL     1      -9.698 -13.004   7.928  1.00  0.00     0.210 HD
ATOM     39  H11 UNL     1      -8.383 -11.802   9.692  1.00  0.00     0.190 HD
ENDBRANCH  30  31
ENDBRANCH  29  30
ENDBRANCH  20  29
TORSDOF 6
ENDMDL