MODEL 5
REMARK VINA RESULT: -7.201060656      1.528      6.684
REMARK  7 active torsions:
REMARK  status: ('A' for Active; 'I' for Inactive)
REMARK    1  A    between atoms: C2_2  and  C3_3
REMARK    2  A    between atoms: N2_10  and  C8_11
REMARK    3  A    between atoms: C9_14  and  N4_15
REMARK    4  A    between atoms: C11_17  and  N5_18
REMARK    5  A    between atoms: C13_23  and  N6_24
REMARK    6  A    between atoms: C13_23  and  C14_28
REMARK    7  A    between atoms: C17_33  and  N8_34
ROOT
HETATM    1  C8  UNL     1      -3.005 -11.356   9.641  1.00  0.00     0.710 A
HETATM    2  N3  UNL     1      -4.221 -10.861   9.563  1.00  0.00    -0.021 N
ATOM      3  H3  UNL     1      -4.579 -10.330  10.356  1.00  0.00     0.203 HD
HETATM    4  C9  UNL     1      -5.030 -11.023   8.472  1.00  0.00     0.709 A
HETATM    5  N7  UNL     1      -4.499 -11.730   7.463  1.00  0.00    -0.022 N
ATOM      6  H7  UNL     1      -5.064 -11.878   6.627  1.00  0.00     0.203 HD
HETATM    7  C17 UNL     1      -3.254 -12.258   7.498  1.00  0.00     0.705 A
HETATM    8  N9  UNL     1      -2.531 -12.055   8.596  1.00  0.00    -0.021 N
ATOM      9  H9  UNL     1      -1.588 -12.442   8.646  1.00  0.00     0.203 HD
ENDROOT
BRANCH   4  10
HETATM   10  N4  UNL     1      -6.338 -10.478   8.416  1.00  0.00    -0.212 N
HETATM   11  C10 UNL     1      -7.285 -11.120   7.526  1.00  0.00     0.174 C
HETATM   12  C11 UNL     1      -8.670 -10.623   7.581  1.00  0.00     0.204 C
HETATM   13  C12 UNL     1      -9.151 -10.213   8.939  1.00  0.00     0.074 C
HETATM   14  C13 UNL     1      -8.148  -9.529   9.781  1.00  0.00     0.141 C
HETATM   15  C16 UNL     1      -6.776  -9.355   9.171  1.00  0.00     0.180 C
BRANCH  12  16
HETATM   16  N5  UNL     1      -8.878  -9.547   6.615  1.00  0.00    -0.073 N
ATOM     17  H53 UNL     1      -8.212  -8.787   6.749  1.00  0.00     0.274 HD
ATOM     18  H52 UNL     1      -8.605  -9.828   5.673  1.00  0.00     0.274 HD
ATOM     19  H51 UNL     1      -9.842  -9.213   6.643  1.00  0.00     0.274 HD
ENDBRANCH  12  16
BRANCH  14  20
HETATM   20  N6  UNL     1      -7.943 -10.333  10.998  1.00  0.00    -0.069 N
ATOM     21  H63 UNL     1      -8.260  -9.856  11.843  1.00  0.00     0.275 HD
ATOM     22  H62 UNL     1      -8.569 -11.136  11.049  1.00  0.00     0.275 HD
ATOM     23  H61 UNL     1      -6.959 -10.599  11.042  1.00  0.00     0.275 HD
ENDBRANCH  14  20
BRANCH  14  24
HETATM   24  C14 UNL     1      -8.690  -8.203  10.249  1.00  0.00     0.036 C
HETATM   25  C15 UNL     1      -7.678  -7.101  10.239  1.00  0.00     0.007 C
ENDBRANCH  14  24
ENDBRANCH   4  10
BRANCH   1  26
HETATM   26  N2  UNL     1      -2.145 -11.199  10.766  1.00  0.00    -0.207 N
HETATM   27  C3  UNL     1      -2.383 -11.917  11.979  1.00  0.00     0.126 C
HETATM   28  C4  UNL     1      -3.017 -10.899  12.938  1.00  0.00     0.049 C
HETATM   29  C5  UNL     1      -2.093  -9.705  13.074  1.00  0.00     0.116 C
HETATM   30  N1  UNL     1      -0.719 -10.040  13.024  1.00  0.00    -0.420 N
HETATM   31  C6  UNL     1      -0.139 -10.292  11.757  1.00  0.00     0.134 C
ATOM     32  H1  UNL     1      -0.161 -10.097  13.876  1.00  0.00     0.153 HD
HETATM   33  C7  UNL     1      -1.032 -10.252  10.577  1.00  0.00     0.161 C
BRANCH  27  34
HETATM   34  C2  UNL     1      -3.172 -13.139  11.876  1.00  0.00    -0.011 C
HETATM   35  C1  UNL     1      -2.803 -14.192  12.586  1.00  0.00     0.009 C
ENDBRANCH  27  34
ENDBRANCH   1  26
BRANCH   7  36
HETATM   36  N8  UNL     1      -2.794 -12.930   6.501  1.00  0.00    -0.234 N
ATOM     37  H82 UNL     1      -3.222 -13.806   6.204  1.00  0.00     0.174 HD
ATOM     38  H81 UNL     1      -1.982 -12.600   5.979  1.00  0.00     0.174 HD
ENDBRANCH   7  36
TORSDOF 7
ENDMDL