MODEL 5
REMARK VINA RESULT: -7.797498135      1.160      1.306
REMARK  7 active torsions:
REMARK  status: ('A' for Active; 'I' for Inactive)
REMARK    1  A    between atoms: N1_1  and  C1_4
REMARK    2  A    between atoms: C2_10  and  C3_11
REMARK    3  A    between atoms: C5_13  and  C6_14
REMARK    4  A    between atoms: C6_14  and  C7_15
REMARK    5  A    between atoms: C7_15  and  C8_16
REMARK    6  A    between atoms: C10_21  and  C11_22
REMARK    7  A    between atoms: C13_29  and  C14_30
ROOT
HETATM    1  C3  UNL     1      -3.284 -10.471  12.114  1.00  0.00     0.108 A
HETATM    2  C4  UNL     1      -4.112  -9.434  11.735  1.00  0.00     0.049 A
HETATM    3  C5  UNL     1      -4.697  -9.806  10.553  1.00  0.00    -0.022 A
HETATM    4  C13 UNL     1      -4.208 -11.058  10.246  1.00  0.00     0.064 A
HETATM    5  O4  UNL     1      -3.394 -11.375  11.199  1.00  0.00    -0.312 OA
ENDROOT
BRANCH   3   6
HETATM    6  C6  UNL     1      -5.668  -9.075   9.709  1.00  0.00     0.072 C
BRANCH   6   7
HETATM    7  C7  UNL     1      -7.049  -9.287  10.196  1.00  0.00     0.026 C
BRANCH   7   8
HETATM    8  C8  UNL     1      -7.923  -9.935   9.438  1.00  0.00     0.105 A
HETATM    9  N4  UNL     1      -8.672 -11.007   9.801  1.00  0.00    -0.308 N
HETATM   10  C9  UNL     1      -9.436 -11.378   8.757  1.00  0.00     0.278 A
ATOM     11  H4  UNL     1      -8.658 -11.458  10.715  1.00  0.00     0.170 HD
HETATM   12  O2  UNL     1     -10.271 -12.338   8.700  1.00  0.00    -0.265 OA
HETATM   13  C10 UNL     1      -9.170 -10.527   7.706  1.00  0.00     0.154 A
HETATM   14  N6  UNL     1      -8.247  -9.668   8.163  1.00  0.00    -0.335 N
ATOM     15  H6  UNL     1      -7.843  -8.911   7.613  1.00  0.00     0.168 HD
BRANCH  13  16
HETATM   16  C11 UNL     1      -9.730 -10.572   6.494  1.00  0.00     0.174 C
HETATM   17  N5  UNL     1      -9.822 -11.534   5.453  1.00  0.00    -0.347 N
HETATM   18  C12 UNL     1     -10.970 -10.834   4.951  1.00  0.00     0.302 C
ATOM     19  H5  UNL     1      -9.297 -12.365   5.179  1.00  0.00     0.163 HD
HETATM   20  O3  UNL     1     -10.472  -9.717   5.697  1.00  0.00    -0.314 OA
ENDBRANCH  13  16
ENDBRANCH   7   8
ENDBRANCH   6   7
ENDBRANCH   3   6
BRANCH   4  21
HETATM   21  C14 UNL     1      -4.534 -11.903   9.059  1.00  0.00     0.044 A
HETATM   22  C15 UNL     1      -3.667 -11.643   7.814  1.00  0.00     0.012 A
HETATM   23  C16 UNL     1      -3.525 -12.897   8.616  1.00  0.00     0.012 A
ENDBRANCH   4  21
BRANCH   1  24
HETATM   24  C2  UNL     1      -2.474 -10.497  13.301  1.00  0.00     0.135 A
HETATM   25  C1  UNL     1      -2.287 -11.567  14.152  1.00  0.00     0.153 A
HETATM   26  N2  UNL     1      -1.460 -11.157  15.129  1.00  0.00    -0.224 N
HETATM   27  O1  UNL     1      -1.141  -9.898  14.908  1.00  0.00    -0.155 OA
ATOM     28  H2  UNL     1      -1.134 -11.726  15.910  1.00  0.00     0.198 HD
HETATM   29  N3  UNL     1      -1.736  -9.494  13.827  1.00  0.00    -0.235 N
ATOM     30  H3  UNL     1      -1.658  -8.557  13.432  1.00  0.00     0.197 HD
BRANCH  25  31
HETATM   31  N1  UNL     1      -2.785 -12.737  14.067  1.00  0.00    -0.382 N
ATOM     32  H12 UNL     1      -3.735 -13.035  14.286  1.00  0.00     0.157 HD
ATOM     33  H11 UNL     1      -2.275 -13.563  13.754  1.00  0.00     0.157 HD
ENDBRANCH  25  31
ENDBRANCH   1  24
TORSDOF 7
ENDMDL