MODEL 5
REMARK VINA RESULT: -7.997306764      1.046      1.808
REMARK  6 active torsions:
REMARK  status: ('A' for Active; 'I' for Inactive)
REMARK    1  A    between atoms: N1_2  and  C2_4
REMARK    2  A    between atoms: C4_12  and  N5_13
REMARK    3  A    between atoms: N5_13  and  C5_15
REMARK    4  A    between atoms: C5_15  and  C6_16
REMARK    5  A    between atoms: C6_16  and  N6_17
REMARK    6  A    between atoms: C13_34  and  N12_35
ROOT
HETATM    1  C2  UNL     1      -8.097 -10.361   7.588  1.00  0.00     0.137 A
HETATM    2  N2  UNL     1      -7.318 -11.169   6.856  1.00  0.00    -0.283 N
ATOM      3  H2  UNL     1      -7.614 -11.657   6.011  1.00  0.00     0.188 HD
HETATM    4  N3  UNL     1      -6.094 -11.243   7.395  1.00  0.00    -0.283 N
ATOM      5  H3  UNL     1      -5.323 -11.797   7.019  1.00  0.00     0.188 HD
HETATM    6  C3  UNL     1      -6.028 -10.481   8.505  1.00  0.00     0.153 A
HETATM    7  N4  UNL     1      -5.073 -10.196   9.408  1.00  0.00    -0.174 N
ATOM      8  H4  UNL     1      -4.142 -10.602   9.322  1.00  0.00     0.186 HD
HETATM    9  C4  UNL     1      -5.365  -9.369  10.422  1.00  0.00     0.681 A
HETATM   10  N11 UNL     1      -6.602  -8.813  10.558  1.00  0.00    -0.176 N
ATOM     11  H11 UNL     1      -6.792  -8.187  11.341  1.00  0.00     0.186 HD
HETATM   12  C13 UNL     1      -7.564  -9.078   9.681  1.00  0.00     0.132 A
HETATM   13  C14 UNL     1      -7.291  -9.924   8.629  1.00  0.00     0.099 A
ENDROOT
BRANCH   9  14
HETATM   14  N5  UNL     1      -4.493  -9.060  11.315  1.00  0.00    -0.224 N
ATOM     15  H5  UNL     1      -4.679  -8.270  11.933  1.00  0.00     0.177 HD
BRANCH  14  16
HETATM   16  C5  UNL     1      -3.254  -9.795  11.474  1.00  0.00     0.157 C
BRANCH  16  17
HETATM   17  C6  UNL     1      -3.457 -10.842  12.553  1.00  0.00     0.141 C
BRANCH  17  18
HETATM   18  N6  UNL     1      -3.205 -12.165  12.078  1.00  0.00    -0.373 N
HETATM   19  C7  UNL     1      -3.008 -13.208  12.793  1.00  0.00     0.133 A
HETATM   20  N7  UNL     1      -3.035 -13.079  14.142  1.00  0.00    -0.337 N
HETATM   21  C10 UNL     1      -2.774 -14.438  12.222  1.00  0.00     0.122 A
HETATM   22  C8  UNL     1      -2.829 -14.175  14.903  1.00  0.00     0.183 A
ATOM     23  H7  UNL     1      -3.207 -12.171  14.574  1.00  0.00     0.168 HD
HETATM   24  N8  UNL     1      -2.599 -15.377  14.352  1.00  0.00    -0.336 N
HETATM   25  C9  UNL     1      -2.566 -15.541  13.011  1.00  0.00     0.140 A
ATOM     26  H8  UNL     1      -2.448 -16.184  14.959  1.00  0.00     0.168 HD
HETATM   27  N10 UNL     1      -2.370 -16.566  12.178  1.00  0.00    -0.332 N
HETATM   28  C11 UNL     1      -2.450 -16.136  10.900  1.00  0.00     0.184 A
HETATM   29  C12 UNL     1      -2.112 -17.927  12.618  1.00  0.00     0.158 C
HETATM   30  N9  UNL     1      -2.702 -14.808  10.946  1.00  0.00    -0.346 N
ATOM     31  H9  UNL     1      -2.816 -14.194  10.140  1.00  0.00     0.167 HD
ATOM     32  H6  UNL     1      -3.180 -12.291  11.066  1.00  0.00     0.161 HD
ENDBRANCH  17  18
ENDBRANCH  16  17
ENDBRANCH  14  16
ENDBRANCH   9  14
BRANCH  12  33
HETATM   33  N12 UNL     1      -8.760  -8.579   9.755  1.00  0.00    -0.384 N
ATOM     34 2H12 UNL     1      -8.854  -7.566   9.686  1.00  0.00     0.157 HD
ATOM     35 1H12 UNL     1      -9.600  -9.145   9.880  1.00  0.00     0.157 HD
ENDBRANCH  12  33
BRANCH   1  36
HETATM   36  N1  UNL     1      -9.456 -10.016   7.363  1.00  0.00    -0.360 N
HETATM   37  C1  UNL     1      -9.974 -10.058   6.186  1.00  0.00     0.120 C
ATOM     38  H1  UNL     1     -10.034  -9.727   8.152  1.00  0.00     0.165 HD
ENDBRANCH   1  36
TORSDOF 6
ENDMDL