MODEL 5
REMARK VINA RESULT: -7.302520828      1.567      1.987
REMARK  7 active torsions:
REMARK  status: ('A' for Active; 'I' for Inactive)
REMARK    1  A    between atoms: N1_1  and  C1_4
REMARK    2  A    between atoms: N4_12  and  C5_14
REMARK    3  A    between atoms: C5_14  and  C6_15
REMARK    4  A    between atoms: C12_27  and  N7_28
REMARK    5  A    between atoms: N7_28  and  C13_29
REMARK    6  A    between atoms: C13_29  and  C14_30
REMARK    7  A    between atoms: C14_30  and  O3_31
ROOT
HETATM    1  C1  UNL     1      -2.903 -10.225   7.951  1.00  0.00     0.129 A
HETATM    2  N2  UNL     1      -1.589 -10.299   8.298  1.00  0.00    -0.337 N
ATOM      3  H2  UNL     1      -0.886 -10.377   7.563  1.00  0.00     0.168 HD
HETATM    4  C2  UNL     1      -1.191 -10.273   9.580  1.00  0.00     0.182 A
HETATM    5  N3  UNL     1      -2.111 -10.170  10.532  1.00  0.00    -0.347 N
ATOM      6  H3  UNL     1      -1.790 -10.150  11.500  1.00  0.00     0.167 HD
HETATM    7  C3  UNL     1      -3.422 -10.091  10.312  1.00  0.00     0.108 A
HETATM    8  C4  UNL     1      -4.310  -9.986  11.361  1.00  0.00     0.138 A
HETATM    9  N4  UNL     1      -3.956  -9.960  12.557  1.00  0.00    -0.346 N
ATOM     10  H4  UNL     1      -4.746  -9.881  13.198  1.00  0.00     0.167 HD
HETATM   11  N6  UNL     1      -5.626  -9.911  11.022  1.00  0.00    -0.300 N
ATOM     12  H6  UNL     1      -6.318  -9.833  11.767  1.00  0.00     0.171 HD
HETATM   13  C12 UNL     1      -6.052  -9.936   9.753  1.00  0.00     0.260 A
HETATM   14  N8  UNL     1      -5.136 -10.041   8.735  1.00  0.00    -0.311 N
ATOM     15  H8  UNL     1      -5.465 -10.059   7.769  1.00  0.00     0.170 HD
HETATM   16  C15 UNL     1      -3.823 -10.119   8.978  1.00  0.00     0.110 A
ENDROOT
BRANCH   9  17
HETATM   17  C5  UNL     1      -2.733 -10.015  13.221  1.00  0.00     0.147 C
BRANCH  17  18
HETATM   18  C6  UNL     1      -2.463 -11.381  13.810  1.00  0.00     0.181 C
HETATM   19  N5  UNL     1      -1.274 -11.852  13.965  1.00  0.00    -0.240 N
HETATM   20  O1  UNL     1      -1.352 -13.122  14.527  1.00  0.00    -0.238 OA
ATOM     21  H5  UNL     1      -0.412 -11.369  13.715  1.00  0.00     0.196 HD
HETATM   22  C7  UNL     1      -2.681 -13.527  14.375  1.00  0.00     0.197 C
HETATM   23  C8  UNL     1      -2.829 -14.391  13.121  1.00  0.00     0.071 C
HETATM   24  C11 UNL     1      -3.193 -14.429  15.440  1.00  0.00     0.071 C
HETATM   25  O2  UNL     1      -3.387 -12.314  14.258  1.00  0.00    -0.293 OA
HETATM   26  C9  UNL     1      -2.183 -15.682  13.630  1.00  0.00     0.006 C
HETATM   27  C10 UNL     1      -2.604 -15.778  15.074  1.00  0.00     0.006 C
ENDBRANCH  17  18
ENDBRANCH   9  17
BRANCH  13  28
HETATM   28  N7  UNL     1      -7.214  -9.869   9.463  1.00  0.00    -0.386 NA
BRANCH  28  29
HETATM   29  C13 UNL     1      -8.501  -9.808   9.134  1.00  0.00     0.185 C
BRANCH  29  30
HETATM   30  C14 UNL     1      -8.841  -9.997   7.650  1.00  0.00     0.223 C
BRANCH  30  31
HETATM   31  O3  UNL     1     -10.154  -9.593   7.417  1.00  0.00    -0.395 OA
ATOM     32  H3  UNL     1     -10.232  -8.659   7.575  1.00  0.00     0.209 HD
ENDBRANCH  30  31
ENDBRANCH  29  30
ENDBRANCH  28  29
ENDBRANCH  13  28
BRANCH   1  33
HETATM   33  N1  UNL     1      -3.259 -10.251   6.737  1.00  0.00    -0.384 N
ATOM     34  H12 UNL     1      -3.304  -9.403   6.172  1.00  0.00     0.157 HD
ATOM     35  H11 UNL     1      -3.511 -11.128   6.283  1.00  0.00     0.157 HD
ENDBRANCH   1  33
TORSDOF 7
ENDMDL