MODEL 2
REMARK VINA RESULT: -7.130592838      2.717      2.808
REMARK  6 active torsions:
REMARK  status: ('A' for Active; 'I' for Inactive)
REMARK    1  A    between atoms: C4_7  and  N3_8
REMARK       I    between atoms: N6_17  and  C7_18
REMARK       I    between atoms: C7_18  and  N7_20
REMARK    2  A    between atoms: N7_20  and  C8_22
REMARK    3  A    between atoms: C8_22  and  C9_23
REMARK    4  A    between atoms: C9_23  and  C10_24
REMARK    5  A    between atoms: C10_24  and  N8_25
REMARK    6  A    between atoms: C15_33  and  N10_34
ROOT
HETATM    1  N1  UNL     1      -0.698  -9.714  15.137  1.00  0.00    -0.190 NA
HETATM    2  C1  UNL     1      -0.875  -9.755  13.993  1.00  0.00     0.121 C
HETATM    3  C2  UNL     1      -1.119  -9.793  12.557  1.00  0.00     0.159 A
HETATM    4  N2  UNL     1      -0.113  -9.794  11.683  1.00  0.00    -0.339 N
ATOM      5  H2  UNL     1       0.857  -9.767  11.999  1.00  0.00     0.167 HD
HETATM    6  C3  UNL     1      -0.413  -9.830  10.368  1.00  0.00     0.122 A
HETATM    7  C4  UNL     1       0.619  -9.824   9.428  1.00  0.00     0.131 A
HETATM    8  N4  UNL     1       0.337  -9.853   8.109  1.00  0.00    -0.337 N
ATOM      9  H4  UNL     1       1.094  -9.849   7.426  1.00  0.00     0.168 HD
HETATM   10  C5  UNL     1      -0.950  -9.889   7.692  1.00  0.00     0.183 A
HETATM   11  N5  UNL     1      -1.948  -9.895   8.587  1.00  0.00    -0.336 N
ATOM     12  H5  UNL     1      -2.914  -9.922   8.258  1.00  0.00     0.168 HD
HETATM   13  C6  UNL     1      -1.701  -9.865   9.912  1.00  0.00     0.149 A
HETATM   14  N6  UNL     1      -2.761  -9.867  10.781  1.00  0.00    -0.230 N
HETATM   15  C7  UNL     1      -4.042  -9.918  10.240  1.00  0.00     0.330 C
HETATM   16  O1  UNL     1      -4.107  -9.997   8.945  1.00  0.00    -0.246 OA
HETATM   17  N7  UNL     1      -5.253  -9.893  10.920  1.00  0.00    -0.342 N
ATOM     18  H7  UNL     1      -5.236  -9.836  11.939  1.00  0.00     0.164 HD
HETATM   19  C15 UNL     1      -2.436  -9.831  12.094  1.00  0.00     0.149 A
ENDROOT
BRANCH  19  20
HETATM   20  N10 UNL     1      -3.342  -9.835  12.969  1.00  0.00    -0.382 N
ATOM     21 2H10 UNL     1      -3.102  -9.729  13.955  1.00  0.00     0.157 HD
ATOM     22 1H10 UNL     1      -4.300  -9.943  12.635  1.00  0.00     0.157 HD
ENDBRANCH  19  20
BRANCH   7  23
HETATM   23  N3  UNL     1       1.823  -9.788   9.877  1.00  0.00    -0.383 N
ATOM     24  H32 UNL     1       2.271 -10.596  10.309  1.00  0.00     0.157 HD
ATOM     25  H31 UNL     1       2.330  -8.908   9.785  1.00  0.00     0.157 HD
ENDBRANCH   7  23
BRANCH  17  26
HETATM   26  C8  UNL     1      -6.557  -9.945  10.243  1.00  0.00     0.129 C
BRANCH  26  27
HETATM   27  C9  UNL     1      -7.098  -8.612   9.903  1.00  0.00     0.064 C
BRANCH  27  28
HETATM   28  C10 UNL     1      -8.390  -8.609   9.145  1.00  0.00     0.065 C
BRANCH  28  29
HETATM   29  N8  UNL     1      -8.693  -9.718   8.360  1.00  0.00    -0.371 N
HETATM   30  C11 UNL     1      -8.437  -9.806   7.003  1.00  0.00     0.090 C
HETATM   31  C12 UNL     1      -9.616 -10.504   6.330  1.00  0.00     0.277 C
HETATM   32  N9  UNL     1      -9.542 -11.881   6.782  1.00  0.00    -0.069 N
HETATM   33  C13 UNL     1      -9.644 -11.988   8.215  1.00  0.00     0.252 C
ATOM     34  H92 UNL     1     -10.241 -12.460   6.317  1.00  0.00     0.277 HD
ATOM     35  H91 UNL     1      -8.698 -12.338   6.437  1.00  0.00     0.277 HD
HETATM   36  C14 UNL     1      -9.565 -10.691   8.938  1.00  0.00     0.154 C
ENDBRANCH  28  29
ENDBRANCH  27  28
ENDBRANCH  26  27
ENDBRANCH  17  26
TORSDOF 6
ENDMDL