MODEL 2
REMARK VINA RESULT: -6.603637636      2.212      6.494
REMARK  7 active torsions:
REMARK  status: ('A' for Active; 'I' for Inactive)
REMARK    1  A    between atoms: C2_2  and  C3_3
REMARK    2  A    between atoms: C3_3  and  C4_4
REMARK    3  A    between atoms: C3_3  and  N1_6
REMARK    4  A    between atoms: N1_6  and  C6_7
REMARK    5  A    between atoms: C7_10  and  N3_11
REMARK    6  A    between atoms: C10_18  and  N6_19
REMARK    7  A    between atoms: C11_24  and  N8_25
ROOT
HETATM    1  C6  UNL     1      -1.577  -9.794   9.485  1.00  0.00     0.217 A
HETATM    2  N2  UNL     1      -0.435  -9.773  10.205  1.00  0.00    -0.162 N
ATOM      3  H2  UNL     1       0.452  -9.641   9.720  1.00  0.00     0.187 HD
HETATM    4  C7  UNL     1      -0.433  -9.919  11.529  1.00  0.00     0.694 A
HETATM    5  N4  UNL     1      -1.577 -10.097  12.241  1.00  0.00    -0.074 N
HETATM    6  C8  UNL     1      -1.465 -10.243  13.637  1.00  0.00     0.204 C
HETATM    7  N5  UNL     1      -1.314 -10.360  14.793  1.00  0.00    -0.171 NA
HETATM    8  C9  UNL     1      -2.736 -10.131  11.624  1.00  0.00     0.143 A
HETATM    9  C10 UNL     1      -3.927 -10.322  12.352  1.00  0.00     0.146 A
HETATM   10  N7  UNL     1      -5.061 -10.341  11.547  1.00  0.00    -0.175 N
ATOM     11  H7  UNL     1      -5.961 -10.476  12.007  1.00  0.00     0.186 HD
HETATM   12  C11 UNL     1      -5.064 -10.196  10.233  1.00  0.00     0.682 A
HETATM   13  N10 UNL     1      -3.913 -10.015   9.566  1.00  0.00    -0.184 N
ATOM     14  H10 UNL     1      -3.920  -9.905   8.552  1.00  0.00     0.184 HD
HETATM   15  C16 UNL     1      -2.752  -9.981  10.243  1.00  0.00     0.139 A
ENDROOT
BRANCH   4  16
HETATM   16  N3  UNL     1       0.694  -9.893  12.178  1.00  0.00    -0.233 N
ATOM     17  H32 UNL     1       1.552  -9.754  11.644  1.00  0.00     0.174 HD
ATOM     18  H31 UNL     1       0.696 -10.010  13.191  1.00  0.00     0.174 HD
ENDBRANCH   4  16
BRANCH   9  19
HETATM   19  N6  UNL     1      -4.028 -10.451  13.533  1.00  0.00    -0.383 N
ATOM     20  H62 UNL     1      -3.214 -10.707  14.093  1.00  0.00     0.157 HD
ATOM     21  H61 UNL     1      -4.876 -10.340  14.088  1.00  0.00     0.157 HD
ENDBRANCH   9  19
BRANCH   1  22
HETATM   22  N1  UNL     1      -1.608  -9.668   8.322  1.00  0.00    -0.422 NA
BRANCH  22  23
HETATM   23  C3  UNL     1      -1.595  -9.652   6.971  1.00  0.00     0.164 C
BRANCH  23  24
HETATM   24  C2  UNL     1      -0.614  -8.730   6.307  1.00  0.00     0.035 C
HETATM   25  C1  UNL     1      -1.100  -7.864   5.218  1.00  0.00     0.008 C
ENDBRANCH  23  24
BRANCH  23  26
HETATM   26  C4  UNL     1      -1.539 -11.059   6.427  1.00  0.00     0.035 C
HETATM   27  C5  UNL     1      -2.671 -11.950   6.711  1.00  0.00     0.008 C
ENDBRANCH  23  26
ENDBRANCH  22  23
ENDBRANCH   1  22
BRANCH  12  28
HETATM   28  N8  UNL     1      -6.321 -10.253   9.527  1.00  0.00    -0.214 N
HETATM   29  C12 UNL     1      -7.494  -9.810  10.230  1.00  0.00     0.168 C
HETATM   30  C13 UNL     1      -8.386  -9.083   9.246  1.00  0.00     0.252 C
HETATM   31  N9  UNL     1      -8.698 -10.019   8.181  1.00  0.00    -0.072 N
HETATM   32  C14 UNL     1      -7.532 -10.336   7.387  1.00  0.00     0.252 C
ATOM     33  H92 UNL     1      -9.139 -10.863   8.547  1.00  0.00     0.277 HD
ATOM     34  H91 UNL     1      -9.463  -9.678   7.599  1.00  0.00     0.277 HD
HETATM   35  C15 UNL     1      -6.347 -10.730   8.197  1.00  0.00     0.168 C
ENDBRANCH  12  28
TORSDOF 7
ENDMDL