MODEL 1
REMARK VINA RESULT: -4.565356461      0.000      0.000
REMARK  4 active torsions:
REMARK  status: ('A' for Active; 'I' for Inactive)
REMARK    1  A    between atoms: C2_2  and  N1_3
REMARK    2  A    between atoms: N1_3  and  C3_6
REMARK    3  A    between atoms: C3_6  and  C4_7
REMARK    4  A    between atoms: C4_7  and  N2_8
ROOT
HETATM    1  N2  UNL     1      16.827  45.263  75.968  1.00  0.00    -0.361 N
ATOM      2  H2  UNL     1      15.830  45.472  76.036  1.00  0.00     0.162 HD
HETATM    3  C5  UNL     1      17.230  44.213  75.368  1.00  0.00     0.171 C
HETATM    4  N3  UNL     1      18.563  43.800  75.198  1.00  0.00    -0.361 N
ATOM      5  H3  UNL     1      19.354  44.029  75.800  1.00  0.00     0.162 HD
HETATM    6  C6  UNL     1      18.596  42.972  73.982  1.00  0.00     0.142 C
HETATM    7  C7  UNL     1      17.180  42.558  73.783  1.00  0.00     0.142 C
HETATM    8  N4  UNL     1      16.397  43.254  74.757  1.00  0.00    -0.361 N
ATOM      9  H4  UNL     1      15.414  43.086  74.970  1.00  0.00     0.162 HD
ENDROOT
BRANCH   1  10
HETATM   10  C4  UNL     1      17.806  46.151  76.549  1.00  0.00     0.150 C
BRANCH  10  11
HETATM   11  C3  UNL     1      17.996  47.320  75.602  1.00  0.00     0.251 C
BRANCH  11  12
HETATM   12  N1  UNL     1      19.384  47.579  75.337  1.00  0.00    -0.074 N
ATOM     13  H12 UNL     1      19.684  47.115  74.479  1.00  0.00     0.277 HD
ATOM     14  H11 UNL     1      19.979  47.091  76.007  1.00  0.00     0.277 HD
BRANCH  12  15
HETATM   15  C2  UNL     1      19.699  48.986  75.298  1.00  0.00     0.228 C
HETATM   16  C1  UNL     1      20.879  49.153  74.356  1.00  0.00     0.034 C
ENDBRANCH  12  15
ENDBRANCH  11  12
ENDBRANCH  10  11
ENDBRANCH   1  10
TORSDOF 4
ENDMDL