MODEL 4
REMARK VINA RESULT: -4.115721326      1.091      1.130
REMARK  4 active torsions:
REMARK  status: ('A' for Active; 'I' for Inactive)
REMARK    1  A    between atoms: C2_2  and  C3_3
REMARK    2  A    between atoms: C3_3  and  N1_4
REMARK    3  A    between atoms: N1_4  and  C4_7
REMARK    4  A    between atoms: C4_7  and  C5_8
ROOT
HETATM    1  C5  UNL     1      17.757  44.325  75.536  1.00  0.00     0.238 C
HETATM    2  C6  UNL     1      16.548  43.580  75.094  1.00  0.00     0.269 C
HETATM    3  N2  UNL     1      16.909  42.730  73.997  1.00  0.00    -0.049 N
ATOM      4  H21 UNL     1      16.435  42.965  73.124  1.00  0.00     0.279 HD
ATOM      5  H22 UNL     1      16.546  41.780  74.079  1.00  0.00     0.279 HD
HETATM    6  C7  UNL     1      18.349  42.793  73.908  1.00  0.00     0.463 C
HETATM    7  N3  UNL     1      18.729  44.066  74.493  1.00  0.00    -0.044 N
ATOM      8  H31 UNL     1      19.695  44.094  74.818  1.00  0.00     0.279 HD
ATOM      9  H32 UNL     1      18.807  44.821  73.812  1.00  0.00     0.279 HD
ENDROOT
BRANCH   1  10
HETATM   10  C4  UNL     1      17.498  45.797  75.727  1.00  0.00     0.267 C
BRANCH  10  11
HETATM   11  N1  UNL     1      18.732  46.501  75.920  1.00  0.00    -0.070 N
ATOM     12  H12 UNL     1      19.494  46.020  75.443  1.00  0.00     0.277 HD
ATOM     13  H11 UNL     1      19.046  46.411  76.886  1.00  0.00     0.277 HD
BRANCH  11  14
HETATM   14  C3  UNL     1      18.694  47.876  75.535  1.00  0.00     0.259 C
BRANCH  14  15
HETATM   15  C2  UNL     1      20.045  48.440  75.255  1.00  0.00    -0.010 C
HETATM   16  C1  UNL     1      20.149  49.779  75.215  1.00  0.00     0.008 C
ENDBRANCH  14  15
ENDBRANCH  11  14
ENDBRANCH  10  11
ENDBRANCH   1  10
TORSDOF 4
ENDMDL