MODEL 2
REMARK VINA RESULT: -4.604538998      1.347      5.689
REMARK  4 active torsions:
REMARK  status: ('A' for Active; 'I' for Inactive)
REMARK    1  A    between atoms: C2_4  and  C3_5
REMARK    2  A    between atoms: C3_5  and  C4_6
REMARK    3  A    between atoms: C4_6  and  N2_7
REMARK    4  A    between atoms: N2_7  and  C5_10
ROOT
HETATM    1  C4  UNL     1      17.912  47.398  75.650  1.00  0.00     0.241 C
ENDROOT
BRANCH   1   2
HETATM    2  C3  UNL     1      19.401  47.433  75.506  1.00  0.00     0.086 C
BRANCH   2   3
HETATM    3  C2  UNL     1      19.850  48.801  75.140  1.00  0.00     0.027 A
HETATM    4  N1  UNL     1      19.450  49.979  75.646  1.00  0.00    -0.355 N
HETATM    5  C1  UNL     1      20.096  50.989  75.045  1.00  0.00     0.180 A
ATOM      6  H1  UNL     1      18.754  50.089  76.384  1.00  0.00     0.166 HD
HETATM    7  N4  UNL     1      20.929  50.454  74.135  1.00  0.00    -0.360 N
HETATM    8  C7  UNL     1      20.804  49.114  74.166  1.00  0.00     0.114 A
ATOM      9  H4  UNL     1      21.553  50.978  73.522  1.00  0.00     0.166 HD
ENDBRANCH   2   3
ENDBRANCH   1   2
BRANCH   1  10
HETATM   10  N2  UNL     1      17.406  46.122  76.064  1.00  0.00    -0.044 N
ATOM     11  H22 UNL     1      18.104  45.620  76.614  1.00  0.00     0.279 HD
ATOM     12  H21 UNL     1      16.680  46.236  76.772  1.00  0.00     0.279 HD
BRANCH  10  13
HETATM   13  C5  UNL     1      16.930  45.301  74.974  1.00  0.00     0.408 A
HETATM   14  C6  UNL     1      17.560  43.925  74.914  1.00  0.00     0.297 A
HETATM   15  N3  UNL     1      16.179  44.104  75.264  1.00  0.00    -0.041 N
ATOM     16  H32 UNL     1      15.620  43.809  76.065  1.00  0.00     0.279 HD
ATOM     17  H31 UNL     1      15.311  43.718  74.891  1.00  0.00     0.279 HD
ENDBRANCH  10  13
ENDBRANCH   1  10
TORSDOF 4
ENDMDL