MODEL 4
REMARK VINA RESULT: -4.081305964      1.338      1.952
REMARK  4 active torsions:
REMARK  status: ('A' for Active; 'I' for Inactive)
REMARK    1  A    between atoms: C2_2  and  C3_3
REMARK    2  A    between atoms: C3_3  and  N1_4
REMARK    3  A    between atoms: N1_4  and  C4_7
REMARK    4  A    between atoms: C4_7  and  C5_8
ROOT
HETATM    1  C5  UNL     1      17.564  46.355  75.895  1.00  0.00     0.408 C
HETATM    2  N2  UNL     1      18.537  45.340  76.240  1.00  0.00    -0.043 N
ATOM      3  H21 UNL     1      18.780  45.338  77.231  1.00  0.00     0.279 HD
ATOM      4  H22 UNL     1      19.469  45.538  75.877  1.00  0.00     0.279 HD
HETATM    5  C6  UNL     1      18.015  44.087  75.790  1.00  0.00     0.262 C
HETATM    6  C7  UNL     1      16.765  44.459  75.031  1.00  0.00     0.262 C
HETATM    7  N3  UNL     1      17.053  45.825  74.643  1.00  0.00    -0.043 N
ATOM      8  H31 UNL     1      17.666  45.935  73.835  1.00  0.00     0.279 HD
ATOM      9  H32 UNL     1      16.275  46.339  74.231  1.00  0.00     0.279 HD
ENDROOT
BRANCH   1  10
HETATM   10  C4  UNL     1      18.157  47.715  75.769  1.00  0.00     0.294 C
BRANCH  10  11
HETATM   11  N1  UNL     1      19.522  47.693  75.328  1.00  0.00    -0.071 N
ATOM     12  H12 UNL     1      19.615  47.181  74.451  1.00  0.00     0.277 HD
ATOM     13  H11 UNL     1      20.091  47.095  75.928  1.00  0.00     0.277 HD
BRANCH  11  14
HETATM   14  C3  UNL     1      20.090  48.998  75.221  1.00  0.00     0.232 C
BRANCH  14  15
HETATM   15  C2  UNL     1      21.006  49.200  74.056  1.00  0.00     0.023 C
HETATM   16  C1  UNL     1      22.438  49.126  74.604  1.00  0.00     0.007 C
ENDBRANCH  14  15
ENDBRANCH  11  14
ENDBRANCH  10  11
ENDBRANCH   1  10
TORSDOF 4
ENDMDL