MODEL 4
REMARK VINA RESULT: -3.949666319      0.933      1.147
REMARK  4 active torsions:
REMARK  status: ('A' for Active; 'I' for Inactive)
REMARK    1  A    between atoms: N1_2  and  C2_5
REMARK    2  A    between atoms: C2_5  and  C3_6
REMARK    3  A    between atoms: C3_6  and  N2_7
REMARK    4  A    between atoms: N2_7  and  C4_10
ROOT
HETATM    1  N2  UNL     1      18.379  47.560  75.634  1.00  0.00    -0.068 N
ATOM      2  H21 UNL     1      17.629  48.132  75.246  1.00  0.00     0.277 HD
ATOM      3  H22 UNL     1      18.149  47.719  76.615  1.00  0.00     0.277 HD
ENDROOT
BRANCH   1   4
HETATM    4  C3  UNL     1      19.704  47.998  75.264  1.00  0.00     0.260 C
BRANCH   4   5
HETATM    5  C2  UNL     1      19.953  49.448  75.279  1.00  0.00     0.259 C
BRANCH   5   6
HETATM    6  N1  UNL     1      21.233  49.910  75.690  1.00  0.00    -0.077 N
HETATM    7  C1  UNL     1      21.128  51.179  76.419  1.00  0.00     0.267 C
ATOM      8  H12 UNL     1      21.877  49.983  74.902  1.00  0.00     0.276 HD
ATOM      9  H11 UNL     1      21.730  49.205  76.234  1.00  0.00     0.276 HD
ENDBRANCH   5   6
ENDBRANCH   4   5
ENDBRANCH   1   4
BRANCH   1  10
HETATM   10  C4  UNL     1      18.322  46.163  75.233  1.00  0.00     0.213 C
HETATM   11  C5  UNL     1      17.050  45.703  74.621  1.00  0.00     0.062 C
HETATM   12  C6  UNL     1      17.198  44.187  74.852  1.00  0.00     0.234 C
HETATM   13  N3  UNL     1      17.467  44.195  76.291  1.00  0.00    -0.073 N
HETATM   14  C7  UNL     1      18.471  45.228  76.413  1.00  0.00     0.265 C
ATOM     15  H32 UNL     1      16.644  44.323  76.881  1.00  0.00     0.277 HD
ATOM     16  H31 UNL     1      17.729  43.291  76.683  1.00  0.00     0.277 HD
ENDBRANCH   1  10
TORSDOF 4
ENDMDL