MODEL 3
REMARK VINA RESULT: -4.328255834      1.784      2.582
REMARK  4 active torsions:
REMARK  status: ('A' for Active; 'I' for Inactive)
REMARK    1  A    between atoms: N1_2  and  C2_5
REMARK    2  A    between atoms: C2_5  and  C3_6
REMARK    3  A    between atoms: C3_6  and  C4_7
REMARK    4  A    between atoms: C4_7  and  N2_8
ROOT
HETATM    1  N2  UNL     1      19.069  46.965  76.147  1.00  0.00    -0.362 N
ATOM      2  H2  UNL     1      19.627  46.858  76.993  1.00  0.00     0.162 HD
HETATM    3  C5  UNL     1      18.229  46.061  75.811  1.00  0.00     0.171 C
HETATM    4  N3  UNL     1      17.386  46.055  74.678  1.00  0.00    -0.361 N
ATOM      5  H3  UNL     1      17.091  46.873  74.145  1.00  0.00     0.162 HD
HETATM    6  C6  UNL     1      17.009  44.662  74.404  1.00  0.00     0.142 C
HETATM    7  C7  UNL     1      17.438  43.865  75.614  1.00  0.00     0.142 C
HETATM    8  N4  UNL     1      17.987  44.867  76.535  1.00  0.00    -0.361 N
ATOM      9  H4  UNL     1      18.165  44.728  77.529  1.00  0.00     0.162 HD
ENDROOT
BRANCH   1  10
HETATM   10  C4  UNL     1      19.223  48.140  75.319  1.00  0.00     0.124 C
BRANCH  10  11
HETATM   11  C3  UNL     1      20.522  48.877  75.586  1.00  0.00     0.047 C
BRANCH  11  12
HETATM   12  C2  UNL     1      20.678  50.070  74.676  1.00  0.00     0.233 C
BRANCH  12  13
HETATM   13  N1  UNL     1      22.071  50.307  74.387  1.00  0.00    -0.079 N
HETATM   14  C1  UNL     1      22.900  49.164  74.636  1.00  0.00     0.266 C
ATOM     15  H12 UNL     1      22.414  51.122  74.894  1.00  0.00     0.276 HD
ATOM     16  H11 UNL     1      22.191  50.641  73.431  1.00  0.00     0.276 HD
ENDBRANCH  12  13
ENDBRANCH  11  12
ENDBRANCH  10  11
ENDBRANCH   1  10
TORSDOF 4
ENDMDL