MODEL 2
REMARK VINA RESULT: -5.096082994      1.278      1.942
REMARK  5 active torsions:
REMARK  status: ('A' for Active; 'I' for Inactive)
REMARK    1  A    between atoms: C2_2  and  C3_3
REMARK    2  A    between atoms: C3_3  and  N1_4
REMARK    3  A    between atoms: N1_4  and  C4_6
REMARK    4  A    between atoms: C4_6  and  C5_7
REMARK    5  A    between atoms: C6_10  and  N3_11
ROOT
HETATM    1  C5  UNL     1      17.822  45.925  75.581  1.00  0.00     0.130 A
HETATM    2  N2  UNL     1      16.586  45.398  75.536  1.00  0.00    -0.177 N
ATOM      3  H2  UNL     1      15.712  45.917  75.625  1.00  0.00     0.185 HD
HETATM    4  C6  UNL     1      16.698  44.086  75.356  1.00  0.00     0.691 A
HETATM    5  N4  UNL     1      18.003  43.754  75.284  1.00  0.00    -0.131 N
ATOM      6  H4  UNL     1      18.398  42.823  75.149  1.00  0.00     0.205 HD
HETATM    7  N5  UNL     1      18.667  44.894  75.425  1.00  0.00    -0.273 N
ATOM      8  H5  UNL     1      19.683  44.977  75.415  1.00  0.00     0.189 HD
ENDROOT
BRANCH   1   9
HETATM    9  C4  UNL     1      18.166  47.386  75.772  1.00  0.00     0.197 C
BRANCH   9  10
HETATM   10  N1  UNL     1      19.472  47.578  75.270  1.00  0.00    -0.392 N
ATOM     11  H1  UNL     1      20.029  46.779  74.967  1.00  0.00     0.159 HD
BRANCH  10  12
HETATM   12  C3  UNL     1      19.998  48.878  75.191  1.00  0.00     0.082 C
BRANCH  12  13
HETATM   13  C2  UNL     1      20.998  49.186  74.188  1.00  0.00     0.006 C
HETATM   14  C1  UNL     1      22.310  49.160  74.318  1.00  0.00     0.012 C
ENDBRANCH  12  13
ENDBRANCH  10  12
ENDBRANCH   9  10
ENDBRANCH   1   9
BRANCH   4  15
HETATM   15  N3  UNL     1      15.767  43.188  75.252  1.00  0.00    -0.233 N
ATOM     16  H32 UNL     1      14.904  43.375  74.742  1.00  0.00     0.174 HD
ATOM     17  H31 UNL     1      15.740  42.239  75.625  1.00  0.00     0.174 HD
ENDBRANCH   4  15
TORSDOF 5
ENDMDL