MODEL 4
REMARK VINA RESULT: -4.270775850      1.287      1.599
REMARK  4 active torsions:
REMARK  status: ('A' for Active; 'I' for Inactive)
REMARK    1  A    between atoms: C2_2  and  C3_3
REMARK    2  A    between atoms: C3_3  and  N1_4
REMARK    3  A    between atoms: N1_4  and  C4_7
REMARK    4  A    between atoms: C4_7  and  C5_8
ROOT
HETATM    1  C5  UNL     1      17.771  46.236  75.705  1.00  0.00     0.235 C
HETATM    2  C6  UNL     1      17.279  45.922  74.315  1.00  0.00     0.202 C
HETATM    3  O1  UNL     1      16.529  44.753  74.398  1.00  0.00    -0.387 OA
HETATM    4  C7  UNL     1      17.236  43.682  74.896  1.00  0.00     0.195 C
HETATM    5  C8  UNL     1      18.061  43.975  76.096  1.00  0.00     0.259 C
HETATM    6  N2  UNL     1      18.777  45.237  76.020  1.00  0.00    -0.065 N
ATOM      7  H21 UNL     1      19.320  45.452  76.857  1.00  0.00     0.277 HD
ATOM      8  H22 UNL     1      19.561  45.226  75.369  1.00  0.00     0.277 HD
ENDROOT
BRANCH   1   9
HETATM    9  C4  UNL     1      18.299  47.638  75.836  1.00  0.00     0.267 C
BRANCH   9  10
HETATM   10  N1  UNL     1      19.610  47.700  75.246  1.00  0.00    -0.073 N
ATOM     11  H12 UNL     1      19.617  47.285  74.314  1.00  0.00     0.277 HD
ATOM     12  H11 UNL     1      20.256  47.061  75.709  1.00  0.00     0.277 HD
BRANCH  10  13
HETATM   13  C3  UNL     1      20.130  49.058  75.227  1.00  0.00     0.232 C
BRANCH  13  14
HETATM   14  C2  UNL     1      21.130  49.235  74.108  1.00  0.00     0.023 C
HETATM   15  C1  UNL     1      22.520  49.134  74.694  1.00  0.00     0.007 C
ENDBRANCH  13  14
ENDBRANCH  10  13
ENDBRANCH   9  10
ENDBRANCH   1   9
TORSDOF 4
ENDMDL