MODEL 1
REMARK VINA RESULT: -7.357633610      0.000      0.000
REMARK  11 active torsions:
REMARK  status: ('A' for Active; 'I' for Inactive)
REMARK    1  A    between atoms: N1_2  and  C2_3
REMARK    2  A    between atoms: N1_2  and  C23_33
REMARK    3  A    between atoms: C2_3  and  C3_4
REMARK    4  A    between atoms: C3_4  and  C4_5
REMARK    5  A    between atoms: C4_5  and  N2_6
REMARK    6  A    between atoms: C6_11  and  C8_13
REMARK    7  A    between atoms: C11_17  and  O3_18
REMARK    8  A    between atoms: C12_20  and  O4_21
REMARK    9  A    between atoms: C14_24  and  C15_25
REMARK   10  A    between atoms: C16_26  and  C17_27
REMARK   11  A    between atoms: C23_33  and  C24_34
ROOT
HETATM    1  N2  UNL     1      -5.299  12.181  18.026  1.00  0.00    -0.320 N
HETATM    2  C5  UNL     1      -4.418  12.158  16.826  1.00  0.00     0.320 C
HETATM    3  O1  UNL     1      -4.860  12.019  15.667  1.00  0.00    -0.247 OA
HETATM    4  N3  UNL     1      -3.086  12.319  17.233  1.00  0.00    -0.325 N
ATOM      5  H3  UNL     1      -2.246  12.288  16.655  1.00  0.00     0.165 HD
HETATM    6  C6  UNL     1      -3.175  12.541  18.685  1.00  0.00     0.110 C
HETATM    7  C7  UNL     1      -3.382  14.045  18.833  1.00  0.00     0.049 C
HETATM    8  C9  UNL     1      -4.425  11.747  19.061  1.00  0.00     0.085 C
HETATM    9  C10 UNL     1      -4.798  12.278  20.447  1.00  0.00     0.070 C
HETATM   10  C11 UNL     1      -5.348  11.228  21.348  1.00  0.00     0.149 C
HETATM   11  C12 UNL     1      -4.358  10.138  21.568  1.00  0.00     0.148 C
HETATM   12  C13 UNL     1      -3.611   9.717  20.367  1.00  0.00     0.054 C
HETATM   13  C14 UNL     1      -4.085  10.327  19.056  1.00  0.00     0.099 C
ENDROOT
BRANCH   1  14
HETATM   14  C4  UNL     1      -6.653  12.607  17.803  1.00  0.00     0.130 C
BRANCH  14  15
HETATM   15  C3  UNL     1      -7.698  11.790  18.544  1.00  0.00     0.050 C
BRANCH  15  16
HETATM   16  C2  UNL     1      -8.531  12.651  19.460  1.00  0.00     0.273 C
BRANCH  16  17
HETATM   17  N1  UNL     1      -9.494  11.747  20.172  1.00  0.00     0.092 N
HETATM   18  C1  UNL     1     -10.639  11.535  19.247  1.00  0.00     0.310 C
BRANCH  17  19
HETATM   19  C23 UNL     1      -8.843  10.406  20.175  1.00  0.00     0.388 C
BRANCH  19  20
HETATM   20  C24 UNL     1      -8.753   9.706  21.466  1.00  0.00     0.413 C
HETATM   21  F1  UNL     1      -7.994   8.612  21.592  1.00  0.00    -0.169 F
HETATM   22  F2  UNL     1     -10.059   9.354  21.886  1.00  0.00    -0.169 F
HETATM   23  F3  UNL     1      -8.371  10.630  22.460  1.00  0.00    -0.169 F
ENDBRANCH  19  20
ENDBRANCH  17  19
ENDBRANCH  16  17
ENDBRANCH  15  16
ENDBRANCH  14  15
ENDBRANCH   1  14
BRANCH   6  24
HETATM   24  C8  UNL     1      -1.911  12.176  19.311  1.00  0.00     0.264 C
HETATM   25  O2  UNL     1      -0.943  11.793  18.692  1.00  0.00    -0.304 OA
ENDBRANCH   6  24
BRANCH  13  26
HETATM   26  C15 UNL     1      -5.087   9.444  18.486  1.00  0.00    -0.099 C
HETATM   27  C16 UNL     1      -5.899   8.677  18.116  1.00  0.00    -0.101 C
BRANCH  27  28
HETATM   28  C17 UNL     1      -6.934   7.649  17.740  1.00  0.00     0.065 C
HETATM   29  C18 UNL     1      -6.598   7.193  16.384  1.00  0.00     0.017 C
HETATM   30  C19 UNL     1      -6.739   5.729  16.136  1.00  0.00     0.001 C
HETATM   31  C20 UNL     1      -5.875   5.010  17.175  1.00  0.00     0.000 C
HETATM   32  C21 UNL     1      -6.636   5.220  18.463  1.00  0.00     0.001 C
HETATM   33  C22 UNL     1      -6.837   6.603  18.845  1.00  0.00     0.017 C
ENDBRANCH  27  28
ENDBRANCH  13  26
BRANCH  10  34
HETATM   34  O3  UNL     1      -5.556  11.839  22.611  1.00  0.00    -0.393 OA
ATOM     35  H3  UNL     1      -6.257  12.470  22.498  1.00  0.00     0.210 HD
ENDBRANCH  10  34
BRANCH  11  36
HETATM   36  O4  UNL     1      -3.420  10.578  22.528  1.00  0.00    -0.393 OA
ATOM     37  H4  UNL     1      -2.567  10.236  22.289  1.00  0.00     0.210 HD
ENDBRANCH  11  36
TORSDOF 11
ENDMDL