MODEL 5
REMARK VINA RESULT: -6.619727341      2.037      2.882
REMARK  9 active torsions:
REMARK  status: ('A' for Active; 'I' for Inactive)
REMARK    1  A    between atoms: C2_2  and  C3_5
REMARK    2  A    between atoms: C3_5  and  C6_8
REMARK    3  A    between atoms: C6_8  and  N1_9
REMARK    4  A    between atoms: C6_8  and  C7_13
REMARK       I    between atoms: C7_13  and  N2_15
REMARK    5  A    between atoms: N2_15  and  C8_17
REMARK    6  A    between atoms: C15_24  and  C16_25
REMARK       I    between atoms: C16_25  and  N3_27
REMARK    7  A    between atoms: N4_30  and  C19_31
REMARK    8  A    between atoms: C19_31  and  C20_32
REMARK    9  A    between atoms: C20_32  and  O3_33
ROOT
HETATM    1  C8  UNL     1      -6.803   9.112  17.463  1.00  0.00     0.092 C
HETATM    2  C9  UNL     1      -7.543   9.237  18.764  1.00  0.00     0.010 C
HETATM    3  C10 UNL     1      -7.485   8.028  19.622  1.00  0.00     0.011 C
HETATM    4  C11 UNL     1      -6.077   7.556  19.777  1.00  0.00    -0.013 C
HETATM    5  C12 UNL     1      -5.323   7.453  18.471  1.00  0.00     0.011 C
HETATM    6  C13 UNL     1      -5.367   8.784  17.804  1.00  0.00     0.010 C
HETATM    7  C14 UNL     1      -4.697   9.874  18.604  1.00  0.00     0.026 C
HETATM    8  C15 UNL     1      -5.498   9.992  19.928  1.00  0.00     0.042 C
HETATM    9  C23 UNL     1      -5.343   8.649  20.569  1.00  0.00     0.024 C
HETATM   10  C24 UNL     1      -6.868  10.383  19.516  1.00  0.00     0.026 C
ENDROOT
BRANCH   1  11
HETATM   11  N2  UNL     1      -7.310   8.165  16.540  1.00  0.00    -0.354 N
HETATM   12  C7  UNL     1      -7.408   8.361  15.132  1.00  0.00     0.249 C
HETATM   13  O1  UNL     1      -6.984   9.487  14.735  1.00  0.00    -0.271 OA
ATOM     14  H2  UNL     1      -7.631   7.271  16.913  1.00  0.00     0.162 HD
BRANCH  12  15
HETATM   15  C6  UNL     1      -7.928   7.413  14.158  1.00  0.00     0.288 C
BRANCH  15  16
HETATM   16  C3  UNL     1      -9.420   7.491  13.904  1.00  0.00     0.055 C
HETATM   17  C4  UNL     1      -9.999   8.656  14.665  1.00  0.00     0.023 C
HETATM   18  C5  UNL     1      -9.529   7.911  12.420  1.00  0.00     0.023 C
BRANCH  16  19
HETATM   19  C2  UNL     1     -10.169   6.224  14.027  1.00  0.00     0.249 C
HETATM   20  C1  UNL     1     -10.503   5.705  12.615  1.00  0.00     0.091 C
HETATM   21  F1  UNL     1     -11.430   6.380  14.610  1.00  0.00    -0.206 F
HETATM   22  F2  UNL     1      -9.413   5.255  14.603  1.00  0.00    -0.206 F
ENDBRANCH  16  19
ENDBRANCH  15  16
BRANCH  15  23
HETATM   23  N1  UNL     1      -7.352   7.803  12.839  1.00  0.00    -0.066 N
ATOM     24  H13 UNL     1      -6.916   7.040  12.320  1.00  0.00     0.275 HD
ATOM     25  H12 UNL     1      -8.040   8.031  12.122  1.00  0.00     0.275 HD
ATOM     26  H11 UNL     1      -6.723   8.566  13.088  1.00  0.00     0.275 HD
ENDBRANCH  15  23
ENDBRANCH  12  15
ENDBRANCH   1  11
BRANCH   8  27
HETATM   27  C16 UNL     1      -4.796  10.978  20.752  1.00  0.00     0.228 C
HETATM   28  O2  UNL     1      -5.533  11.768  21.446  1.00  0.00    -0.273 OA
HETATM   29  N3  UNL     1      -3.401  11.171  20.880  1.00  0.00    -0.348 N
HETATM   30  C17 UNL     1      -2.965  12.236  21.780  1.00  0.00     0.156 C
HETATM   31  C22 UNL     1      -2.364  10.418  20.226  1.00  0.00     0.156 C
HETATM   32  C18 UNL     1      -1.990  13.091  21.027  1.00  0.00     0.292 C
HETATM   33  N4  UNL     1      -0.828  12.318  20.604  1.00  0.00     0.093 N
HETATM   34  C21 UNL     1      -1.170  11.224  19.782  1.00  0.00     0.292 C
BRANCH  33  35
HETATM   35  C19 UNL     1       0.095  12.108  21.660  1.00  0.00     0.298 C
BRANCH  35  36
HETATM   36  C20 UNL     1       1.451  12.732  21.475  1.00  0.00     0.194 C
BRANCH  36  37
HETATM   37  O3  UNL     1       1.393  14.075  21.116  1.00  0.00    -0.399 OA
ATOM     38  H3  UNL     1       2.237  14.432  20.864  1.00  0.00     0.209 HD
ENDBRANCH  36  37
ENDBRANCH  35  36
ENDBRANCH  33  35
ENDBRANCH   8  27
TORSDOF 9
ENDMDL