MODEL 4
REMARK VINA RESULT: -6.388628043      2.499      2.972
REMARK  9 active torsions:
REMARK  status: ('A' for Active; 'I' for Inactive)
REMARK       I    between atoms: C2_4  and  N3_6
REMARK    1  A    between atoms: C3_8  and  C4_9
REMARK    2  A    between atoms: C3_8  and  N4_13
REMARK    3  A    between atoms: C4_9  and  C5_10
REMARK    4  A    between atoms: C5_10  and  O1_11
REMARK    5  A    between atoms: N4_13  and  N5_15
REMARK    6  A    between atoms: C7_17  and  C8_18
REMARK    7  A    between atoms: C10_20  and  C11_21
REMARK    8  A    between atoms: C11_21  and  N6_22
REMARK    9  A    between atoms: C12_26  and  O2_27
ROOT
HETATM    1  N5  UNL     1      -4.170   9.781  21.260  1.00  0.00    -0.310 N
ATOM      2  H5  UNL     1      -5.076   9.345  21.430  1.00  0.00     0.186 HD
HETATM    3  C7  UNL     1      -3.760   9.706  20.084  1.00  0.00     0.120 C
ENDROOT
BRANCH   1   4
HETATM    4  N4  UNL     1      -3.597  10.352  22.348  1.00  0.00    -0.289 N
ATOM      5  H4  UNL     1      -2.901   9.821  22.871  1.00  0.00     0.188 HD
BRANCH   4   6
HETATM    6  C3  UNL     1      -3.929  11.663  22.785  1.00  0.00     0.100 C
HETATM    7  N3  UNL     1      -4.776  11.852  23.708  1.00  0.00    -0.319 N
HETATM    8  C2  UNL     1      -5.307  12.950  24.360  1.00  0.00     0.189 C
ATOM      9  H3  UNL     1      -5.162  10.975  24.058  1.00  0.00     0.169 HD
HETATM   10  N1  UNL     1      -4.656  13.708  25.163  1.00  0.00    -0.369 N
HETATM   11  N2  UNL     1      -6.717  13.208  24.127  1.00  0.00    -0.064 NA
HETATM   12  C1  UNL     1      -5.348  14.803  25.807  1.00  0.00     0.148 C
ATOM     13  H1  UNL     1      -3.666  13.541  25.346  1.00  0.00     0.161 HD
BRANCH   6  14
HETATM   14  C4  UNL     1      -3.231  12.815  22.114  1.00  0.00     0.104 C
BRANCH  14  15
HETATM   15  C5  UNL     1      -4.151  13.415  21.097  1.00  0.00     0.174 C
BRANCH  15  16
HETATM   16  O1  UNL     1      -5.349  12.632  20.966  1.00  0.00    -0.396 OA
HETATM   17  C6  UNL     1      -6.334  13.552  20.529  1.00  0.00     0.201 C
ENDBRANCH  15  16
ENDBRANCH  14  15
ENDBRANCH   6  14
ENDBRANCH   4   6
ENDBRANCH   1   4
BRANCH   3  18
HETATM   18  C8  UNL     1      -4.623   9.029  19.080  1.00  0.00     0.000 A
HETATM   19  C9  UNL     1      -5.046   7.697  19.248  1.00  0.00     0.026 A
HETATM   20  C10 UNL     1      -5.950   7.167  18.380  1.00  0.00     0.003 A
HETATM   21  C12 UNL     1      -6.411   7.972  17.348  1.00  0.00     0.095 A
HETATM   22  C14 UNL     1      -6.009   9.261  17.151  1.00  0.00     0.063 A
HETATM   23 BR1  UNL     1      -6.692  10.298  15.695  1.00  0.00    -0.047 Br
HETATM   24  C15 UNL     1      -5.091   9.798  18.043  1.00  0.00     0.042 A
HETATM   25 BR2  UNL     1      -4.513  11.609  17.741  1.00  0.00    -0.049 Br
BRANCH  20  26
HETATM   26  C11 UNL     1      -6.615   5.825  18.588  1.00  0.00     0.271 C
BRANCH  26  27
HETATM   27  N6  UNL     1      -5.943   4.752  17.956  1.00  0.00    -0.075 N
ATOM     28  H63 UNL     1      -6.504   4.375  17.192  1.00  0.00     0.274 HD
ATOM     29  H62 UNL     1      -5.140   5.092  17.427  1.00  0.00     0.274 HD
ATOM     30  H61 UNL     1      -5.663   4.008  18.595  1.00  0.00     0.274 HD
ENDBRANCH  26  27
ENDBRANCH  20  26
BRANCH  21  31
HETATM   31  O2  UNL     1      -7.345   7.364  16.487  1.00  0.00    -0.354 OA
HETATM   32  C13 UNL     1      -6.860   6.865  15.228  1.00  0.00     0.210 C
ENDBRANCH  21  31
ENDBRANCH   3  18
TORSDOF 9
ENDMDL