MODEL 1
REMARK VINA RESULT: -8.887261881      0.000      0.000
REMARK  8 active torsions:
REMARK  status: ('A' for Active; 'I' for Inactive)
REMARK    1  A    between atoms: C6_6  and  N1_7
REMARK    2  A    between atoms: N1_7  and  C7_8
REMARK    3  A    between atoms: C11_15  and  N3_16
REMARK    4  A    between atoms: C12_18  and  C13_19
REMARK    5  A    between atoms: C13_19  and  C14_20
REMARK    6  A    between atoms: C14_20  and  N4_21
REMARK    7  A    between atoms: C19_29  and  C20_30
REMARK    8  A    between atoms: C20_30  and  O2_31
ROOT
HETATM    1  C7  UNL     1      -5.462  11.287  21.715  1.00  0.00     0.261 A
HETATM    2  N2  UNL     1      -6.363  12.310  21.607  1.00  0.00    -0.319 N
ATOM      3  H2  UNL     1      -7.159  12.190  20.981  1.00  0.00     0.170 HD
HETATM    4  C8  UNL     1      -6.254  13.445  22.274  1.00  0.00     0.030 A
HETATM    5  C9  UNL     1      -7.252  14.564  22.146  1.00  0.00     0.070 C
HETATM    6  C10 UNL     1      -5.180  13.609  23.119  1.00  0.00     0.077 A
HETATM    7 BR1  UNL     1      -5.040  15.276  24.084  1.00  0.00    -0.045 Br
HETATM    8  C11 UNL     1      -4.232  12.626  23.282  1.00  0.00     0.128 A
HETATM    9  N5  UNL     1      -4.434  11.487  22.548  1.00  0.00    -0.301 N
ATOM     10  H5  UNL     1      -3.750  10.737  22.643  1.00  0.00     0.171 HD
ENDROOT
BRANCH   1  11
HETATM   11  N1  UNL     1      -5.644  10.294  21.076  1.00  0.00    -0.370 NA
BRANCH  11  12
HETATM   12  C6  UNL     1      -5.816   9.210  20.387  1.00  0.00     0.125 A
HETATM   13  C4  UNL     1      -7.004   8.476  20.414  1.00  0.00    -0.020 A
HETATM   14  C3  UNL     1      -7.156   7.325  19.673  1.00  0.00     0.017 A
HETATM   15  C5  UNL     1      -8.082   9.002  21.278  1.00  0.00     0.052 C
HETATM   16  C2  UNL     1      -6.126   6.872  18.883  1.00  0.00    -0.061 A
HETATM   17  C1  UNL     1      -6.387   5.621  18.124  1.00  0.00     0.048 C
HETATM   18  C21 UNL     1      -4.957   7.554  18.827  1.00  0.00     0.019 A
HETATM   19  C19 UNL     1      -4.804   8.694  19.560  1.00  0.00     0.007 A
BRANCH  19  20
HETATM   20  C20 UNL     1      -3.539   9.435  19.504  1.00  0.00     0.206 C
BRANCH  20  21
HETATM   21  O2  UNL     1      -3.718  10.579  18.732  1.00  0.00    -0.396 OA
ATOM     22  H2  UNL     1      -3.262  10.469  17.906  1.00  0.00     0.209 HD
ENDBRANCH  20  21
ENDBRANCH  19  20
ENDBRANCH  11  12
ENDBRANCH   1  11
BRANCH   8  23
HETATM   23  N3  UNL     1      -3.260  12.736  24.028  1.00  0.00    -0.355 N
HETATM   24  C12 UNL     1      -2.508  12.271  25.057  1.00  0.00     0.064 C
ATOM     25  H3  UNL     1      -2.794  13.593  23.727  1.00  0.00     0.166 HD
BRANCH  24  26
HETATM   26  C13 UNL     1      -1.338  11.367  24.693  1.00  0.00     0.074 C
BRANCH  26  27
HETATM   27  C14 UNL     1      -1.508   9.956  25.171  1.00  0.00     0.277 C
BRANCH  27  28
HETATM   28  N4  UNL     1      -1.356   9.729  26.560  1.00  0.00     0.092 N
HETATM   29  C15 UNL     1      -2.543   9.357  27.279  1.00  0.00     0.298 C
HETATM   30  C16 UNL     1      -2.388   8.013  27.967  1.00  0.00     0.198 C
HETATM   31  O1  UNL     1      -1.941   7.117  27.006  1.00  0.00    -0.388 OA
HETATM   32  C17 UNL     1      -0.624   7.394  26.727  1.00  0.00     0.198 C
HETATM   33  C18 UNL     1      -0.244   8.840  26.827  1.00  0.00     0.298 C
ENDBRANCH  27  28
ENDBRANCH  26  27
ENDBRANCH  24  26
ENDBRANCH   8  23
TORSDOF 8
ENDMDL