MODEL 4
REMARK VINA RESULT: -6.387418355      2.426      4.715
REMARK  8 active torsions:
REMARK  status: ('A' for Active; 'I' for Inactive)
REMARK    1  A    between atoms: S1_2  and  C2_3
REMARK    2  A    between atoms: C2_3  and  C3_4
REMARK    3  A    between atoms: C3_4  and  C4_5
REMARK    4  A    between atoms: C4_5  and  C5_6
REMARK    5  A    between atoms: C6_10  and  O1_11
REMARK    6  A    between atoms: C12_22  and  O3_23
REMARK    7  A    between atoms: C13_25  and  C14_26
REMARK    8  A    between atoms: C17_31  and  O4_32
ROOT
HETATM    1  C5  UNL     1      -4.742  10.095  20.663  1.00  0.00     0.195 C
HETATM    2  F1  UNL     1      -4.451   9.023  21.586  1.00  0.00    -0.218 F
HETATM    3  N1  UNL     1      -5.182  11.064  21.685  1.00  0.00    -0.336 N
ATOM      4  H1  UNL     1      -6.026  10.787  22.188  1.00  0.00     0.164 HD
HETATM    5  C6  UNL     1      -4.663  12.268  22.080  1.00  0.00     0.132 C
HETATM    6  C7  UNL     1      -4.435  13.524  21.320  1.00  0.00     0.209 C
HETATM    7  N2  UNL     1      -4.716  14.688  22.182  1.00  0.00    -0.347 N
HETATM    8  C8  UNL     1      -3.915  15.869  21.929  1.00  0.00     0.153 C
HETATM    9  C9  UNL     1      -5.688  14.691  23.201  1.00  0.00     0.242 C
HETATM   10  O2  UNL     1      -5.387  15.275  24.295  1.00  0.00    -0.271 OA
HETATM   11  C10 UNL     1      -7.044  14.069  23.108  1.00  0.00     0.172 C
HETATM   12  C11 UNL     1      -7.961  14.909  24.024  1.00  0.00     0.042 C
HETATM   13  N3  UNL     1      -7.527  14.094  21.742  1.00  0.00    -0.356 N
ATOM     14  H3  UNL     1      -7.048  14.755  21.131  1.00  0.00     0.162 HD
HETATM   15  C12 UNL     1      -8.534  13.365  21.133  1.00  0.00     0.160 C
HETATM   16  C13 UNL     1      -8.705  11.887  20.985  1.00  0.00     0.065 C
HETATM   17  N4  UNL     1      -7.830  11.332  19.986  1.00  0.00    -0.339 N
ATOM     18  H4  UNL     1      -7.724  12.042  19.261  1.00  0.00     0.167 HD
HETATM   19  C17 UNL     1      -7.092  10.271  19.602  1.00  0.00     0.132 C
HETATM   20  C18 UNL     1      -5.742   9.662  19.712  1.00  0.00     0.110 A
HETATM   21  C19 UNL     1      -5.224   9.526  18.231  1.00  0.00     0.029 A
HETATM   22  C20 UNL     1      -5.285   8.054  18.282  1.00  0.00     0.040 A
HETATM   23  C21 UNL     1      -5.780   8.139  19.685  1.00  0.00     0.191 A
HETATM   24  F2  UNL     1      -7.041   7.587  19.923  1.00  0.00    -0.248 F
ENDROOT
BRANCH   1  25
HETATM   25  C4  UNL     1      -3.382  10.509  20.266  1.00  0.00     0.069 C
BRANCH  25  26
HETATM   26  C3  UNL     1      -2.167   9.828  20.676  1.00  0.00     0.015 C
BRANCH  26  27
HETATM   27  C2  UNL     1      -1.287  10.550  21.671  1.00  0.00     0.073 C
BRANCH  27  28
HETATM   28  S1  UNL     1      -1.574  10.079  23.368  1.00  0.00    -0.173 SA
HETATM   29  C1  UNL     1      -0.627  11.217  24.423  1.00  0.00     0.089 C
ENDBRANCH  27  28
ENDBRANCH  26  27
ENDBRANCH  25  26
ENDBRANCH   1  25
BRANCH   5  30
HETATM   30  O1  UNL     1      -4.288  12.400  23.320  1.00  0.00    -0.348 OA
ATOM     31  H1  UNL     1      -3.409  12.714  23.492  1.00  0.00     0.219 HD
ENDBRANCH   5  30
BRANCH  19  32
HETATM   32  O4  UNL     1      -7.795   9.434  18.827  1.00  0.00    -0.349 OA
ATOM     33  H4  UNL     1      -7.240   8.768  18.437  1.00  0.00     0.219 HD
ENDBRANCH  19  32
BRANCH  16  34
HETATM   34  C14 UNL     1      -8.983  11.158  22.231  1.00  0.00     0.032 C
HETATM   35  C15 UNL     1     -10.043  11.946  23.008  1.00  0.00     0.016 C
HETATM   36  C16 UNL     1      -9.684   9.847  21.859  1.00  0.00     0.016 C
ENDBRANCH  16  34
BRANCH  15  37
HETATM   37  O3  UNL     1      -9.463  14.116  20.618  1.00  0.00    -0.345 OA
ATOM     38  H3  UNL     1      -9.283  15.043  20.714  1.00  0.00     0.219 HD
ENDBRANCH  15  37
TORSDOF 8
ENDMDL