MODEL 5
REMARK VINA RESULT: -6.570881224      3.247      4.792
REMARK  7 active torsions:
REMARK  status: ('A' for Active; 'I' for Inactive)
REMARK    1  A    between atoms: N1_2  and  C2_3
REMARK    2  A    between atoms: N1_2  and  C8_11
REMARK    3  A    between atoms: C2_3  and  C3_4
REMARK    4  A    between atoms: C3_4  and  N2_5
REMARK    5  A    between atoms: C12_17  and  O2_18
REMARK    6  A    between atoms: C13_20  and  C14_21
REMARK    7  A    between atoms: N3_22  and  N4_24
ROOT
HETATM    1  C8  UNL     1      -3.845  12.296  22.821  1.00  0.00     0.045 A
HETATM    2  C9  UNL     1      -3.728  13.180  23.888  1.00  0.00     0.051 A
HETATM    3  C10 UNL     1      -4.803  13.874  24.402  1.00  0.00     0.033 A
HETATM    4 BR1  UNL     1      -4.625  15.079  25.865  1.00  0.00    -0.050 Br
HETATM    5  C11 UNL     1      -6.055  13.703  23.854  1.00  0.00     0.062 A
HETATM    6 BR2  UNL     1      -7.577  14.652  24.543  1.00  0.00    -0.047 Br
HETATM    7  C12 UNL     1      -6.185  12.832  22.797  1.00  0.00     0.098 A
HETATM    8  C13 UNL     1      -5.095  12.126  22.276  1.00  0.00     0.042 A
ENDROOT
BRANCH   1   9
HETATM    9  N1  UNL     1      -2.714  11.614  22.302  1.00  0.00    -0.383 N
HETATM   10  C1  UNL     1      -1.957  12.252  21.246  1.00  0.00     0.150 C
BRANCH   9  11
HETATM   11  C2  UNL     1      -2.269  10.316  22.761  1.00  0.00     0.141 C
BRANCH  11  12
HETATM   12  C3  UNL     1      -1.196  10.486  23.785  1.00  0.00     0.136 C
BRANCH  12  13
HETATM   13  N2  UNL     1      -1.398   9.750  24.984  1.00  0.00    -0.407 N
HETATM   14  C4  UNL     1      -0.412   8.795  25.341  1.00  0.00     0.143 C
HETATM   15  C5  UNL     1      -0.223   8.834  26.859  1.00  0.00     0.187 C
HETATM   16  O1  UNL     1      -1.464   8.534  27.410  1.00  0.00    -0.388 OA
HETATM   17  C6  UNL     1      -2.452   9.438  27.111  1.00  0.00     0.187 C
HETATM   18  C7  UNL     1      -2.038  10.439  26.049  1.00  0.00     0.143 C
ENDBRANCH  12  13
ENDBRANCH  11  12
ENDBRANCH   9  11
ENDBRANCH   1   9
BRANCH   8  19
HETATM   19  C14 UNL     1      -5.316  11.202  21.170  1.00  0.00     0.123 C
HETATM   20  N3  UNL     1      -6.052  10.139  21.273  1.00  0.00    -0.309 N
ATOM     21  H3  UNL     1      -6.501   9.930  22.165  1.00  0.00     0.186 HD
BRANCH  20  22
HETATM   22  N4  UNL     1      -6.246   9.271  20.193  1.00  0.00    -0.276 N
HETATM   23  C15 UNL     1      -7.032   8.265  20.223  1.00  0.00     0.215 C
HETATM   24  N5  UNL     1      -7.198   7.415  19.115  1.00  0.00    -0.065 NA
HETATM   25  N6  UNL     1      -7.759   8.004  21.414  1.00  0.00    -0.065 NA
ATOM     26  H4  UNL     1      -5.730   9.453  19.332  1.00  0.00     0.189 HD
ENDBRANCH  20  22
ENDBRANCH   8  19
BRANCH   7  27
HETATM   27  O2  UNL     1      -7.452  12.655  22.243  1.00  0.00    -0.358 OA
ATOM     28  H2  UNL     1      -7.767  11.768  22.119  1.00  0.00     0.217 HD
ENDBRANCH   7  27
TORSDOF 7
ENDMDL