MODEL 3
REMARK VINA RESULT: -8.297711670      2.393      3.769
REMARK  7 active torsions:
REMARK  status: ('A' for Active; 'I' for Inactive)
REMARK       I    between atoms: C2_2  and  N1_4
REMARK    1  A    between atoms: N1_4  and  C3_6
REMARK    2  A    between atoms: C3_6  and  C4_7
REMARK    3  A    between atoms: C3_6  and  C17_29
REMARK       I    between atoms: C4_7  and  N2_9
REMARK    4  A    between atoms: C11_16  and  O3_17
REMARK    5  A    between atoms: C12_19  and  C13_20
REMARK       I    between atoms: C13_20  and  N3_22
REMARK    6  A    between atoms: C14_24  and  C15_25
REMARK    7  A    between atoms: C15_25  and  C16_26
ROOT
HETATM    1  C4  UNL     1      -4.967  11.093  20.916  1.00  0.00     0.244 C
HETATM    2  O2  UNL     1      -3.949  10.758  20.266  1.00  0.00    -0.271 OA
HETATM    3  N2  UNL     1      -4.773  11.931  22.062  1.00  0.00    -0.329 N
HETATM    4  C5  UNL     1      -5.818  12.453  22.880  1.00  0.00     0.095 C
HETATM    5  C6  UNL     1      -6.453  13.700  22.275  1.00  0.00     0.026 C
HETATM    6  C7  UNL     1      -7.718  13.953  23.072  1.00  0.00     0.002 C
HETATM    7  C8  UNL     1      -7.306  14.291  24.474  1.00  0.00     0.001 C
HETATM    8  C9  UNL     1      -5.835  14.174  24.717  1.00  0.00     0.009 C
HETATM    9  C10 UNL     1      -5.213  12.928  24.193  1.00  0.00     0.040 C
HETATM   10  C11 UNL     1      -3.801  13.227  23.763  1.00  0.00     0.156 C
HETATM   11  C12 UNL     1      -3.506  12.391  22.584  1.00  0.00     0.209 C
ENDROOT
BRANCH   1  12
HETATM   12  C3  UNL     1      -6.271  10.631  20.488  1.00  0.00     0.180 C
BRANCH  12  13
HETATM   13  N1  UNL     1      -6.812  11.675  19.584  1.00  0.00    -0.348 N
HETATM   14  C2  UNL     1      -8.165  12.086  19.689  1.00  0.00     0.214 C
HETATM   15  C1  UNL     1      -8.715  13.129  18.790  1.00  0.00     0.117 C
HETATM   16  O1  UNL     1      -8.965  11.596  20.540  1.00  0.00    -0.274 OA
ATOM     17  H1  UNL     1      -6.206  12.101  18.881  1.00  0.00     0.163 HD
ENDBRANCH  12  13
BRANCH  12  18
HETATM   18  C17 UNL     1      -6.235   9.347  19.686  1.00  0.00     0.018 C
HETATM   19  C18 UNL     1      -7.221   8.321  20.149  1.00  0.00     0.013 C
HETATM   20  C19 UNL     1      -7.043   7.027  19.455  1.00  0.00     0.079 C
HETATM   21  C20 UNL     1      -6.056   6.997  18.353  1.00  0.00     0.243 C
HETATM   22  F1  UNL     1      -6.428   5.958  17.485  1.00  0.00    -0.206 F
HETATM   23  F2  UNL     1      -4.812   6.598  18.860  1.00  0.00    -0.206 F
HETATM   24  C21 UNL     1      -5.953   8.233  17.535  1.00  0.00     0.079 C
HETATM   25  C22 UNL     1      -6.339   9.502  18.214  1.00  0.00     0.013 C
ENDBRANCH  12  18
ENDBRANCH   1  12
BRANCH  11  26
HETATM   26  C13 UNL     1      -2.626  11.286  23.002  1.00  0.00     0.246 C
HETATM   27  O4  UNL     1      -3.095  10.126  23.069  1.00  0.00    -0.271 OA
HETATM   28  N3  UNL     1      -1.264  11.478  23.332  1.00  0.00    -0.338 N
HETATM   29  C14 UNL     1      -0.673  11.120  24.391  1.00  0.00     0.074 C
ATOM     30  H3  UNL     1      -0.694  11.959  22.636  1.00  0.00     0.167 HD
BRANCH  29  31
HETATM   31  C15 UNL     1      -1.257  10.410  25.548  1.00  0.00     0.157 C
BRANCH  31  32
HETATM   32  C16 UNL     1      -0.902   8.979  25.571  1.00  0.00     0.177 C
HETATM   33  O5  UNL     1      -0.060   8.537  24.761  1.00  0.00    -0.648 OA
HETATM   34  O6  UNL     1      -1.510   8.148  26.492  1.00  0.00    -0.648 OA
ENDBRANCH  31  32
ENDBRANCH  29  31
ENDBRANCH  11  26
BRANCH  10  35
HETATM   35  O3  UNL     1      -3.601  14.572  23.445  1.00  0.00    -0.393 OA
ATOM     36  H3  UNL     1      -3.828  15.159  24.155  1.00  0.00     0.210 HD
ENDBRANCH  10  35
TORSDOF 7
ENDMDL