MODEL 2
REMARK VINA RESULT: -8.754838168      0.761      1.203
REMARK  9 active torsions:
REMARK  status: ('A' for Active; 'I' for Inactive)
REMARK    1  A    between atoms: C4_5  and  N2_6
REMARK    2  A    between atoms: N2_6  and  C5_8
REMARK    3  A    between atoms: C7_12  and  N4_13
REMARK    4  A    between atoms: N4_13  and  C8_15
REMARK    5  A    between atoms: C8_15  and  O1_16
REMARK    6  A    between atoms: C9_18  and  N5_19
REMARK    7  A    between atoms: C15_26  and  C16_27
REMARK    8  A    between atoms: C16_27  and  C17_28
REMARK    9  A    between atoms: C17_28  and  C18_29
ROOT
HETATM    1  C5  UNL     1      -3.988  12.006  24.666  1.00  0.00     0.678 A
HETATM    2  N3  UNL     1      -3.528  11.518  23.501  1.00  0.00    -0.186 N
ATOM      3  H3  UNL     1      -4.016  11.716  22.628  1.00  0.00     0.184 HD
HETATM    4  C6  UNL     1      -2.390  10.748  23.505  1.00  0.00     0.124 A
HETATM    5  C7  UNL     1      -1.753  10.138  22.460  1.00  0.00     0.152 A
HETATM    6  N6  UNL     1      -0.677   9.480  23.010  1.00  0.00    -0.283 N
ATOM      7  H6  UNL     1       0.008   8.921  22.501  1.00  0.00     0.188 HD
HETATM    8  N7  UNL     1      -0.684   9.698  24.308  1.00  0.00    -0.295 N
ATOM      9  H7  UNL     1       0.008   9.325  24.958  1.00  0.00     0.187 HD
HETATM   10  C19 UNL     1      -1.718  10.473  24.668  1.00  0.00     0.095 A
HETATM   11  C20 UNL     1      -2.196  10.978  25.859  1.00  0.00     0.139 A
HETATM   12  N8  UNL     1      -3.302  11.715  25.790  1.00  0.00    -0.200 N
ATOM     13  H8  UNL     1      -3.663  12.095  26.666  1.00  0.00     0.183 HD
ENDROOT
BRANCH   5  14
HETATM   14  N4  UNL     1      -2.080  10.176  21.204  1.00  0.00    -0.320 N
ATOM     15  H4  UNL     1      -1.360  10.418  20.521  1.00  0.00     0.169 HD
BRANCH  14  16
HETATM   16  C8  UNL     1      -3.288   9.917  20.771  1.00  0.00     0.152 C
HETATM   17  C9  UNL     1      -4.572   9.643  20.310  1.00  0.00     0.116 C
BRANCH  16  18
HETATM   18  O1  UNL     1      -2.824  10.493  19.358  1.00  0.00    -0.345 OA
ATOM     19  H1  UNL     1      -2.889   9.605  19.025  1.00  0.00     0.219 HD
ENDBRANCH  16  18
BRANCH  17  20
HETATM   20  N5  UNL     1      -5.096   9.882  19.023  1.00  0.00    -0.284 NA
HETATM   21  C10 UNL     1      -5.859  11.116  18.867  1.00  0.00     0.097 C
HETATM   22  C11 UNL     1      -6.964  11.203  19.875  1.00  0.00     0.040 C
HETATM   23  C12 UNL     1      -7.943  10.107  19.555  1.00  0.00     0.036 C
HETATM   24  C13 UNL     1      -9.045  10.059  20.611  1.00  0.00     0.033 C
HETATM   25 CL1  UNL     1      -8.735  10.424  17.988  1.00  0.00    -0.119 Cl
HETATM   26  C14 UNL     1      -7.251   8.788  19.478  1.00  0.00     0.045 C
HETATM   27  C15 UNL     1      -6.036   8.808  18.647  1.00  0.00     0.064 C
BRANCH  27  28
HETATM   28  C16 UNL     1      -5.409   7.479  18.522  1.00  0.00     0.022 C
BRANCH  28  29
HETATM   29  C17 UNL     1      -6.515   6.410  18.499  1.00  0.00     0.033 C
BRANCH  29  30
HETATM   30  C18 UNL     1      -5.876   5.077  18.096  1.00  0.00     0.222 C
HETATM   31  F1  UNL     1      -6.762   4.084  18.425  1.00  0.00    -0.255 F
ENDBRANCH  29  30
ENDBRANCH  28  29
ENDBRANCH  27  28
ENDBRANCH  17  20
ENDBRANCH  14  16
ENDBRANCH   5  14
BRANCH   1  32
HETATM   32  N2  UNL     1      -5.077  12.699  24.743  1.00  0.00    -0.221 N
ATOM     33  H2  UNL     1      -5.750  12.409  25.453  1.00  0.00     0.178 HD
BRANCH  32  34
HETATM   34  C4  UNL     1      -5.444  13.829  23.941  1.00  0.00     0.102 C
HETATM   35  C3  UNL     1      -4.257  14.650  23.580  1.00  0.00     0.056 C
HETATM   36  C2  UNL     1      -4.152  15.983  24.232  1.00  0.00     0.274 C
HETATM   37  N1  UNL     1      -4.690  16.128  25.537  1.00  0.00     0.084 N
HETATM   38  C1  UNL     1      -5.153  17.498  25.704  1.00  0.00     0.309 C
HETATM   39  C22 UNL     1      -5.651  15.173  25.976  1.00  0.00     0.274 C
HETATM   40  C21 UNL     1      -6.426  14.641  24.791  1.00  0.00     0.056 C
ENDBRANCH  32  34
ENDBRANCH   1  32
TORSDOF 9
ENDMDL