MODEL 4
REMARK VINA RESULT: -7.600153594      2.761      3.277
REMARK  9 active torsions:
REMARK  status: ('A' for Active; 'I' for Inactive)
REMARK    1  A    between atoms: O1_2  and  C2_3
REMARK    2  A    between atoms: C2_3  and  C3_4
REMARK    3  A    between atoms: C2_3  and  C6_10
REMARK    4  A    between atoms: C3_4  and  N1_5
REMARK       I    between atoms: N1_5  and  C4_6
REMARK    5  A    between atoms: C4_6  and  C5_8
REMARK    6  A    between atoms: C6_10  and  N2_11
REMARK    7  A    between atoms: C16_21  and  C17_22
REMARK    8  A    between atoms: C19_25  and  O3_26
REMARK    9  A    between atoms: C20_28  and  O4_29
ROOT
HETATM    1  N2  UNL     1      -4.496  11.653  22.043  1.00  0.00    -0.385 N
HETATM    2  C7  UNL     1      -5.473  12.705  21.954  1.00  0.00     0.127 C
HETATM    3  C8  UNL     1      -6.737  12.282  21.194  1.00  0.00     0.011 C
HETATM    4  C9  UNL     1      -6.574  12.824  19.773  1.00  0.00     0.007 C
HETATM    5  C10 UNL     1      -5.715  11.832  19.063  1.00  0.00     0.013 C
HETATM    6  C11 UNL     1      -5.487  10.706  20.043  1.00  0.00    -0.009 C
HETATM    7  C12 UNL     1      -5.361   9.384  19.374  1.00  0.00     0.007 C
HETATM    8  C13 UNL     1      -3.885   9.058  19.560  1.00  0.00     0.008 C
HETATM    9  C14 UNL     1      -3.525   9.690  20.878  1.00  0.00     0.026 C
HETATM   10  C15 UNL     1      -4.223  11.011  20.806  1.00  0.00     0.093 C
HETATM   11  C16 UNL     1      -6.220   8.297  19.865  1.00  0.00     0.045 C
HETATM   12  C19 UNL     1      -7.498   8.585  20.550  1.00  0.00     0.155 C
HETATM   13  C20 UNL     1      -7.814  10.056  20.701  1.00  0.00     0.152 C
HETATM   14  C21 UNL     1      -6.592  10.767  21.077  1.00  0.00     0.033 C
ENDROOT
BRANCH   1  15
HETATM   15  C6  UNL     1      -3.481  11.963  22.941  1.00  0.00     0.093 C
BRANCH  15  16
HETATM   16  C2  UNL     1      -3.394  11.237  24.208  1.00  0.00     0.189 C
BRANCH  16  17
HETATM   17  O1  UNL     1      -2.578  10.168  24.309  1.00  0.00    -0.383 OA
HETATM   18  C1  UNL     1      -1.307  10.137  23.862  1.00  0.00     0.202 C
ENDBRANCH  16  17
BRANCH  16  19
HETATM   19  C3  UNL     1      -2.795  12.353  25.213  1.00  0.00     0.259 C
BRANCH  19  20
HETATM   20  N1  UNL     1      -3.710  13.368  25.413  1.00  0.00    -0.411 NA
HETATM   21  C4  UNL     1      -4.616  14.346  25.599  1.00  0.00     0.300 C
HETATM   22  O2  UNL     1      -5.839  14.355  25.227  1.00  0.00    -0.256 OA
BRANCH  21  23
HETATM   23  C5  UNL     1      -4.250  15.639  26.329  1.00  0.00     0.233 C
HETATM   24 CL1  UNL     1      -3.821  16.877  25.152  1.00  0.00    -0.119 Cl
ENDBRANCH  21  23
ENDBRANCH  19  20
ENDBRANCH  16  19
ENDBRANCH  15  16
ENDBRANCH   1  15
BRANCH  13  25
HETATM   25  O4  UNL     1      -8.508  10.538  19.613  1.00  0.00    -0.393 OA
ATOM     26  H4  UNL     1      -8.957   9.843  19.149  1.00  0.00     0.210 HD
ENDBRANCH  13  25
BRANCH  11  27
HETATM   27  C17 UNL     1      -6.555   7.448  18.660  1.00  0.00    -0.012 C
HETATM   28  C18 UNL     1      -5.990   6.297  18.419  1.00  0.00     0.052 C
HETATM   29 BR1  UNL     1      -6.401   5.217  16.912  1.00  0.00    -0.064 Br
ENDBRANCH  11  27
BRANCH  12  30
HETATM   30  O3  UNL     1      -7.516   8.023  21.829  1.00  0.00    -0.392 OA
ATOM     31  H3  UNL     1      -7.191   8.639  22.475  1.00  0.00     0.210 HD
ENDBRANCH  12  30
TORSDOF 9
ENDMDL