MODEL 3
REMARK VINA RESULT: -8.178552854      1.040      1.522
REMARK  8 active torsions:
REMARK  status: ('A' for Active; 'I' for Inactive)
REMARK    1  A    between atoms: C2_2  and  C5_5
REMARK    2  A    between atoms: C7_7  and  N1_8
REMARK    3  A    between atoms: N1_8  and  C8_10
REMARK    4  A    between atoms: C8_10  and  C10_15
REMARK    5  A    between atoms: C15_21  and  S1_22
REMARK    6  A    between atoms: S1_22  and  N4_25
REMARK    7  A    between atoms: N4_25  and  C16_27
REMARK    8  A    between atoms: N5_31  and  C20_32
ROOT
HETATM    1  C8  UNL     1      -1.944  11.465  24.205  1.00  0.00     0.116 C
HETATM    2  N2  UNL     1      -1.584  11.657  23.007  1.00  0.00    -0.281 N
ATOM      3  H2  UNL     1      -1.739  12.612  22.686  1.00  0.00     0.179 HD
HETATM    4  C9  UNL     1      -1.033  10.850  22.060  1.00  0.00     0.183 C
HETATM    5  N3  UNL     1      -0.570  10.188  21.238  1.00  0.00    -0.172 NA
ENDROOT
BRANCH   1   6
HETATM    6  N1  UNL     1      -2.508  12.619  24.910  1.00  0.00    -0.372 N
ATOM      7  H1  UNL     1      -2.120  12.953  25.792  1.00  0.00     0.161 HD
BRANCH   6   8
HETATM    8  C7  UNL     1      -3.623  13.246  24.299  1.00  0.00     0.084 C
HETATM    9  C6  UNL     1      -4.735  13.582  25.267  1.00  0.00     0.032 C
HETATM   10  C5  UNL     1      -5.982  13.745  24.382  1.00  0.00     0.015 C
HETATM   11  C15 UNL     1      -5.607  13.207  23.077  1.00  0.00     0.136 C
HETATM   12  C14 UNL     1      -4.400  12.282  23.387  1.00  0.00     0.047 C
BRANCH  10  13
HETATM   13  C2  UNL     1      -6.421  15.196  24.399  1.00  0.00    -0.046 C
HETATM   14  C1  UNL     1      -6.007  15.969  23.172  1.00  0.00     0.015 C
HETATM   15  C3  UNL     1      -7.938  15.307  24.485  1.00  0.00     0.015 C
HETATM   16  C4  UNL     1      -5.875  15.921  25.609  1.00  0.00     0.015 C
ENDBRANCH  10  13
BRANCH  11  17
HETATM   17  S1  UNL     1      -6.672  12.318  22.062  1.00  0.00     0.231 S
HETATM   18  O2  UNL     1      -7.616  13.384  21.420  1.00  0.00    -0.206 OA
HETATM   19  O3  UNL     1      -7.670  11.472  22.851  1.00  0.00    -0.206 OA
BRANCH  17  20
HETATM   20  N4  UNL     1      -6.120  11.392  20.795  1.00  0.00    -0.309 N
ATOM     21  H4  UNL     1      -5.940  11.808  19.881  1.00  0.00     0.172 HD
BRANCH  20  22
HETATM   22  C16 UNL     1      -5.907  10.011  21.019  1.00  0.00     0.133 C
HETATM   23  C17 UNL     1      -4.467   9.690  20.799  1.00  0.00    -0.002 C
HETATM   24  C18 UNL     1      -3.996   9.434  19.592  1.00  0.00    -0.009 C
HETATM   25  C19 UNL     1      -5.000   9.489  18.480  1.00  0.00     0.149 C
HETATM   26  N5  UNL     1      -6.163   8.771  18.881  1.00  0.00    -0.354 N
HETATM   27  C21 UNL     1      -6.780   9.148  20.096  1.00  0.00     0.152 C
BRANCH  26  28
HETATM   28  C20 UNL     1      -6.149   7.373  18.589  1.00  0.00     0.456 C
HETATM   29  F1  UNL     1      -4.957   6.750  18.864  1.00  0.00    -0.191 F
HETATM   30  F2  UNL     1      -7.111   6.776  19.414  1.00  0.00    -0.191 F
ENDBRANCH  26  28
ENDBRANCH  20  22
ENDBRANCH  17  20
ENDBRANCH  11  17
ENDBRANCH   6   8
ENDBRANCH   1   6
BRANCH   1  31
HETATM   31  C10 UNL     1      -1.865  10.225  24.972  1.00  0.00     0.189 C
HETATM   32  C11 UNL     1      -0.491   9.752  25.341  1.00  0.00     0.042 C
HETATM   33  C12 UNL     1      -0.874   8.617  26.320  1.00  0.00     0.029 C
HETATM   34  C13 UNL     1      -2.119   9.210  26.939  1.00  0.00     0.168 C
HETATM   35  O1  UNL     1      -2.457  10.349  26.229  1.00  0.00    -0.378 OA
ENDBRANCH   1  31
TORSDOF 8
ENDMDL