MODEL 4
REMARK VINA RESULT: -8.281452880      1.184      1.517
REMARK  7 active torsions:
REMARK  status: ('A' for Active; 'I' for Inactive)
REMARK    1  A    between atoms: O1_2  and  C2_3
REMARK    2  A    between atoms: C6_10  and  N2_11
REMARK    3  A    between atoms: C7_16  and  O3_17
REMARK    4  A    between atoms: O3_17  and  C8_18
REMARK    5  A    between atoms: C8_18  and  C9_19
REMARK    6  A    between atoms: C11_21  and  C12_22
REMARK    7  A    between atoms: C19_33  and  O6_34
ROOT
HETATM    1  C2  UNL     1      -0.961   8.717  26.665  1.00  0.00     0.104 A
HETATM    2  C3  UNL     1      -0.434   8.997  25.421  1.00  0.00     0.078 A
HETATM    3  C4  UNL     1      -1.096   9.796  24.505  1.00  0.00     0.095 A
HETATM    4  O2  UNL     1      -0.594  10.063  23.319  1.00  0.00    -0.291 OA
HETATM    5  C5  UNL     1      -1.175  10.809  22.424  1.00  0.00     0.181 A
HETATM    6  N1  UNL     1      -0.632  11.063  21.213  1.00  0.00    -0.169 N
ATOM      7  H1  UNL     1       0.275  10.652  20.991  1.00  0.00     0.186 HD
HETATM    8  C6  UNL     1      -1.230  11.834  20.286  1.00  0.00     0.679 A
HETATM    9  N3  UNL     1      -2.425  12.366  20.597  1.00  0.00    -0.170 N
ATOM     10  H3  UNL     1      -2.899  12.954  19.910  1.00  0.00     0.186 HD
HETATM   11  C7  UNL     1      -3.007  12.149  21.774  1.00  0.00     0.176 A
HETATM   12  C15 UNL     1      -2.401  11.358  22.735  1.00  0.00     0.118 A
HETATM   13  C16 UNL     1      -2.969  11.108  23.968  1.00  0.00     0.203 A
HETATM   14  O5  UNL     1      -4.085  11.610  24.248  1.00  0.00    -0.286 OA
HETATM   15  C17 UNL     1      -2.317  10.308  24.895  1.00  0.00     0.052 A
HETATM   16  C18 UNL     1      -2.842  10.027  26.140  1.00  0.00     0.058 A
HETATM   17  C19 UNL     1      -2.183   9.228  27.053  1.00  0.00     0.102 A
ENDROOT
BRANCH  11  18
HETATM   18  O3  UNL     1      -4.249  12.683  22.138  1.00  0.00    -0.332 OA
BRANCH  18  19
HETATM   19  C8  UNL     1      -5.104  13.046  21.073  1.00  0.00     0.209 C
BRANCH  19  20
HETATM   20  C9  UNL     1      -5.588  11.862  20.287  1.00  0.00     0.146 C
HETATM   21  C10 UNL     1      -6.440  10.928  21.127  1.00  0.00     0.041 C
HETATM   22  C11 UNL     1      -6.700   9.661  20.350  1.00  0.00     0.022 C
HETATM   23  C13 UNL     1      -6.741   9.899  18.865  1.00  0.00     0.111 C
HETATM   24 CL2  UNL     1      -7.890   8.843  18.037  1.00  0.00    -0.122 Cl
HETATM   25  C14 UNL     1      -7.163  11.354  18.666  1.00  0.00     0.188 C
HETATM   26  O4  UNL     1      -6.219  12.245  19.114  1.00  0.00    -0.382 OA
BRANCH  22  27
HETATM   27  C12 UNL     1      -5.622   8.655  20.637  1.00  0.00     0.121 C
HETATM   28 CL1  UNL     1      -4.742   8.185  19.163  1.00  0.00    -0.130 Cl
ENDBRANCH  22  27
ENDBRANCH  19  20
ENDBRANCH  18  19
ENDBRANCH  11  18
BRANCH   8  29
HETATM   29  N2  UNL     1      -0.670  12.057  19.122  1.00  0.00    -0.234 N
ATOM     30  H22 UNL     1      -0.207  11.308  18.606  1.00  0.00     0.174 HD
ATOM     31  H21 UNL     1      -0.681  12.984  18.698  1.00  0.00     0.174 HD
ENDBRANCH   8  29
BRANCH  17  32
HETATM   32  O6  UNL     1      -2.712   8.945  28.308  1.00  0.00    -0.353 OA
HETATM   33  C20 UNL     1      -3.634   7.873  28.405  1.00  0.00     0.210 C
ENDBRANCH  17  32
BRANCH   1  34
HETATM   34  O1  UNL     1      -0.295   7.915  27.579  1.00  0.00    -0.353 OA
HETATM   35  C1  UNL     1      -0.452   6.500  27.602  1.00  0.00     0.210 C
ENDBRANCH   1  34
TORSDOF 7
ENDMDL