MODEL 3
REMARK VINA RESULT: -7.514961138      0.879      1.795
REMARK  9 active torsions:
REMARK  status: ('A' for Active; 'I' for Inactive)
REMARK    1  A    between atoms: C2_2  and  C3_3
REMARK    2  A    between atoms: C3_3  and  S1_4
REMARK    3  A    between atoms: S1_4  and  C4_5
REMARK    4  A    between atoms: N4_16  and  C9_17
REMARK    5  A    between atoms: C11_19  and  N5_20
REMARK       I    between atoms: N5_20  and  C12_22
REMARK    6  A    between atoms: C12_22  and  C13_24
REMARK    7  A    between atoms: C13_24  and  C14_27
REMARK    8  A    between atoms: C18_31  and  C19_32
REMARK    9  A    between atoms: C19_32  and  O2_33
ROOT
HETATM    1  C9  UNL     1      -2.756  11.619  21.939  1.00  0.00     0.233 C
HETATM    2  C10 UNL     1      -3.834  10.793  21.307  1.00  0.00     0.082 C
HETATM    3  C11 UNL     1      -4.218  11.728  20.148  1.00  0.00     0.119 C
HETATM    4  C18 UNL     1      -2.952  12.476  19.919  1.00  0.00     0.170 C
HETATM    5  O3  UNL     1      -2.003  11.986  20.824  1.00  0.00    -0.357 OA
ENDROOT
BRANCH   1   6
HETATM    6  N4  UNL     1      -1.980  10.900  22.899  1.00  0.00    -0.300 N
HETATM    7  C6  UNL     1      -2.330  10.647  24.174  1.00  0.00     0.141 A
HETATM    8  N2  UNL     1      -3.424  10.960  24.886  1.00  0.00    -0.336 N
HETATM    9  C7  UNL     1      -1.333   9.924  24.814  1.00  0.00     0.112 A
HETATM   10  C5  UNL     1      -3.544  10.587  26.170  1.00  0.00     0.183 A
ATOM     11  H2  UNL     1      -4.176  11.491  24.444  1.00  0.00     0.168 HD
HETATM   12  N1  UNL     1      -2.554   9.875  26.789  1.00  0.00    -0.345 N
HETATM   13  C4  UNL     1      -1.437   9.532  26.128  1.00  0.00     0.101 A
ATOM     14  H1  UNL     1      -2.666   9.601  27.765  1.00  0.00     0.167 HD
HETATM   15  N3  UNL     1      -0.371   9.752  23.884  1.00  0.00    -0.347 N
HETATM   16  C8  UNL     1      -0.778  10.347  22.733  1.00  0.00     0.188 A
ATOM     17  H3  UNL     1       0.511   9.259  24.022  1.00  0.00     0.167 HD
BRANCH  13  18
HETATM   18  S1  UNL     1      -0.147   8.609  26.925  1.00  0.00    -0.110 SA
BRANCH  18  19
HETATM   19  C3  UNL     1      -0.208   6.849  26.517  1.00  0.00     0.080 C
BRANCH  19  20
HETATM   20  C2  UNL     1      -0.453   6.099  27.820  1.00  0.00     0.006 C
HETATM   21  C1  UNL     1      -1.504   6.905  28.590  1.00  0.00     0.006 C
ENDBRANCH  19  20
ENDBRANCH  18  19
ENDBRANCH  13  18
ENDBRANCH   1   6
BRANCH   3  22
HETATM   22  N5  UNL     1      -4.728  10.998  19.033  1.00  0.00    -0.351 N
HETATM   23  C12 UNL     1      -5.922  10.249  19.175  1.00  0.00     0.258 C
HETATM   24  O1  UNL     1      -6.492  10.263  20.304  1.00  0.00    -0.270 OA
ATOM     25  H5  UNL     1      -4.236  11.015  18.140  1.00  0.00     0.163 HD
BRANCH  23  26
HETATM   26  C13 UNL     1      -6.508   9.462  18.052  1.00  0.00     0.199 C
HETATM   27 CL1  UNL     1      -5.652   9.918  16.569  1.00  0.00    -0.090 Cl
HETATM   28 CL2  UNL     1      -8.265   9.683  17.909  1.00  0.00    -0.090 Cl
BRANCH  26  29
HETATM   29  C14 UNL     1      -6.265   7.981  18.273  1.00  0.00    -0.007 C
HETATM   30  C15 UNL     1      -7.407   7.368  19.040  1.00  0.00     0.018 C
HETATM   31  C16 UNL     1      -4.921   7.702  18.886  1.00  0.00     0.018 C
HETATM   32  C17 UNL     1      -6.280   7.346  16.876  1.00  0.00     0.018 C
ENDBRANCH  26  29
ENDBRANCH  23  26
ENDBRANCH   3  22
BRANCH   4  33
HETATM   33  C19 UNL     1      -2.373  12.282  18.533  1.00  0.00     0.198 C
BRANCH  33  34
HETATM   34  O2  UNL     1      -0.991  12.167  18.678  1.00  0.00    -0.398 OA
ATOM     35  H2  UNL     1      -0.822  11.326  19.084  1.00  0.00     0.209 HD
ENDBRANCH  33  34
ENDBRANCH   4  33
TORSDOF 9
ENDMDL