MODEL 2
REMARK VINA RESULT: -9.564042366      0.042      1.411
REMARK  8 active torsions:
REMARK  status: ('A' for Active; 'I' for Inactive)
REMARK    1  A    between atoms: O1_2  and  C2_3
REMARK    2  A    between atoms: C4_5  and  C5_6
REMARK    3  A    between atoms: C5_6  and  N1_7
REMARK    4  A    between atoms: N1_7  and  N2_9
REMARK    5  A    between atoms: N2_9  and  C6_11
REMARK    6  A    between atoms: N6_23  and  C11_25
REMARK    7  A    between atoms: C14_29  and  O3_30
REMARK    8  A    between atoms: C20_37  and  O4_38
ROOT
HETATM    1  C6  UNL     1      -6.184  13.009  23.271  1.00  0.00     0.140 A
HETATM    2  N3  UNL     1      -6.399  14.284  23.657  1.00  0.00    -0.330 N
ATOM      3  H3  UNL     1      -6.187  14.535  24.622  1.00  0.00     0.168 HD
HETATM    4  C7  UNL     1      -6.875  15.236  22.846  1.00  0.00     0.080 A
HETATM    5  C8  UNL     1      -7.083  16.629  23.358  1.00  0.00     0.089 C
HETATM    6  N4  UNL     1      -7.154  14.909  21.575  1.00  0.00    -0.324 N
ATOM      7  H4  UNL     1      -7.516  15.617  20.936  1.00  0.00     0.169 HD
HETATM    8  C9  UNL     1      -6.955  13.633  21.134  1.00  0.00     0.189 A
HETATM    9  O2  UNL     1      -7.143  13.059  19.964  1.00  0.00    -0.217 OA
HETATM   10  N5  UNL     1      -6.818  11.804  19.980  1.00  0.00    -0.242 N
ATOM     11  H5  UNL     1      -6.879  11.160  19.192  1.00  0.00     0.196 HD
HETATM   12  C10 UNL     1      -6.386  11.497  21.218  1.00  0.00     0.144 A
HETATM   13  N6  UNL     1      -5.963  10.357  21.676  1.00  0.00    -0.335 N
ATOM     14  H6  UNL     1      -5.659  10.248  22.643  1.00  0.00     0.168 HD
HETATM   15  C18 UNL     1      -6.467  12.648  21.962  1.00  0.00     0.108 A
ENDROOT
BRANCH   1  16
HETATM   16  N2  UNL     1      -5.733  12.104  24.043  1.00  0.00    -0.285 N
ATOM     17  H2  UNL     1      -6.380  11.389  24.374  1.00  0.00     0.188 HD
BRANCH  16  18
HETATM   18  N1  UNL     1      -4.398  12.034  24.463  1.00  0.00    -0.309 N
ATOM     19  H1  UNL     1      -3.690  12.524  23.916  1.00  0.00     0.186 HD
BRANCH  18  20
HETATM   20  C5  UNL     1      -4.028  11.388  25.496  1.00  0.00     0.118 C
BRANCH  20  21
HETATM   21  C4  UNL     1      -2.800  10.614  25.483  1.00  0.00    -0.014 A
HETATM   22  C3  UNL     1      -1.992  10.628  24.343  1.00  0.00     0.049 A
HETATM   23  C2  UNL     1      -0.828   9.907  24.309  1.00  0.00     0.071 A
HETATM   24  C22 UNL     1      -0.461   9.171  25.397  1.00  0.00     0.073 A
HETATM   25  C20 UNL     1      -1.233   9.122  26.562  1.00  0.00     0.071 A
HETATM   26  C19 UNL     1      -2.400   9.857  26.572  1.00  0.00     0.049 A
BRANCH  23  27
HETATM   27  O1  UNL     1      -0.055   9.945  23.166  1.00  0.00    -0.356 OA
HETATM   28  C1  UNL     1      -0.522  10.668  22.046  1.00  0.00     0.210 C
ENDBRANCH  23  27
BRANCH  25  29
HETATM   29  O4  UNL     1      -0.835   8.363  27.658  1.00  0.00    -0.356 OA
HETATM   30  C21 UNL     1      -1.807   7.591  28.327  1.00  0.00     0.210 C
ENDBRANCH  25  29
ENDBRANCH  20  21
ENDBRANCH  18  20
ENDBRANCH  16  18
ENDBRANCH   1  16
BRANCH  13  31
HETATM   31  C11 UNL     1      -5.946   9.252  20.749  1.00  0.00     0.112 A
HETATM   32  C12 UNL     1      -7.053   8.438  20.628  1.00  0.00     0.148 A
HETATM   33  F1  UNL     1      -8.144   8.676  21.376  1.00  0.00    -0.203 F
HETATM   34  C13 UNL     1      -7.026   7.369  19.726  1.00  0.00     0.081 A
HETATM   35  C14 UNL     1      -5.897   7.143  18.971  1.00  0.00     0.074 A
HETATM   36  C16 UNL     1      -4.770   7.951  19.075  1.00  0.00     0.081 A
HETATM   37  C17 UNL     1      -4.829   8.995  19.973  1.00  0.00     0.148 A
HETATM   38  F2  UNL     1      -3.744   9.816  20.110  1.00  0.00    -0.203 F
BRANCH  35  39
HETATM   39  O3  UNL     1      -5.873   6.088  18.080  1.00  0.00    -0.356 OA
HETATM   40  C15 UNL     1      -6.622   4.924  18.363  1.00  0.00     0.210 C
ENDBRANCH  35  39
ENDBRANCH  13  31
TORSDOF 8
ENDMDL