MODEL 1
REMARK VINA RESULT: -8.731881196      0.000      0.000
REMARK  8 active torsions:
REMARK  status: ('A' for Active; 'I' for Inactive)
REMARK    1  A    between atoms: C14_17  and  C15_18
REMARK    2  A    between atoms: C15_18  and  C16_19
REMARK    3  A    between atoms: C16_19  and  N1_20
REMARK       I    between atoms: N1_20  and  C17_22
REMARK    4  A    between atoms: C17_22  and  O5_24
REMARK    5  A    between atoms: O5_24  and  C18_25
REMARK    6  A    between atoms: C18_25  and  C19_26
REMARK    7  A    between atoms: C21_31  and  O7_33
REMARK    8  A    between atoms: O7_33  and  O8_34
ROOT
HETATM    1  C1  UNL     1      -8.092  10.035  18.165  1.00  0.00     0.011 C
HETATM    2  C2  UNL     1      -7.523   9.667  19.503  1.00  0.00    -0.007 C
HETATM    3  C3  UNL     1      -7.391  10.851  20.442  1.00  0.00     0.006 C
HETATM    4  C4  UNL     1      -6.357  11.837  20.058  1.00  0.00     0.017 C
HETATM    5  C5  UNL     1      -4.944  11.417  20.314  1.00  0.00     0.034 C
HETATM    6  C6  UNL     1      -4.894  10.239  21.215  1.00  0.00     0.094 C
HETATM    7  C7  UNL     1      -5.581   9.030  20.760  1.00  0.00     0.132 C
HETATM    8  O1  UNL     1      -5.530   8.113  21.560  1.00  0.00    -0.298 OA
HETATM    9  C8  UNL     1      -6.300   8.838  19.471  1.00  0.00     0.059 C
HETATM   10  C9  UNL     1      -5.351   9.043  18.379  1.00  0.00     0.015 C
HETATM   11  C10 UNL     1      -4.912  10.377  18.014  1.00  0.00     0.039 C
HETATM   12  C11 UNL     1      -4.197  11.206  19.026  1.00  0.00     0.071 C
HETATM   13  C12 UNL     1      -3.962  12.534  18.294  1.00  0.00     0.047 C
HETATM   14  O2  UNL     1      -2.960  10.676  19.357  1.00  0.00    -0.347 OA
HETATM   15  C13 UNL     1      -2.133  11.504  20.050  1.00  0.00     0.296 C
HETATM   16  O3  UNL     1      -1.184  10.706  20.736  1.00  0.00    -0.329 OA
HETATM   17  C14 UNL     1      -1.016  11.274  21.974  1.00  0.00     0.265 C
HETATM   18  O6  UNL     1      -2.319  11.680  22.343  1.00  0.00    -0.348 OA
HETATM   19  C20 UNL     1      -2.736  12.285  21.156  1.00  0.00     0.218 C
HETATM   20  C21 UNL     1      -4.194  12.525  21.074  1.00  0.00     0.134 C
HETATM   21  C22 UNL     1      -4.711  12.586  22.522  1.00  0.00     0.053 C
ENDROOT
BRANCH  17  22
HETATM   22  C15 UNL     1      -0.643  10.178  22.980  1.00  0.00     0.080 C
BRANCH  22  23
HETATM   23  C16 UNL     1      -1.114  10.622  24.338  1.00  0.00     0.129 C
BRANCH  23  24
HETATM   24  N1  UNL     1      -0.472   9.871  25.384  1.00  0.00    -0.337 N
HETATM   25  C17 UNL     1      -1.263   9.291  26.407  1.00  0.00     0.360 C
HETATM   26  O4  UNL     1      -2.510   9.424  26.410  1.00  0.00    -0.239 OA
ATOM     27  H1  UNL     1       0.542   9.758  25.390  1.00  0.00     0.164 HD
BRANCH  25  28
HETATM   28  O5  UNL     1      -0.688   8.561  27.435  1.00  0.00    -0.299 OA
BRANCH  28  29
HETATM   29  C18 UNL     1      -1.325   7.440  28.023  1.00  0.00     0.251 C
BRANCH  29  30
HETATM   30  C19 UNL     1      -0.654   6.164  27.560  1.00  0.00     0.377 C
HETATM   31  F1  UNL     1       0.369   5.807  28.412  1.00  0.00    -0.212 F
HETATM   32  F2  UNL     1      -0.218   6.348  26.263  1.00  0.00    -0.212 F
ENDBRANCH  29  30
ENDBRANCH  28  29
ENDBRANCH  25  28
ENDBRANCH  23  24
ENDBRANCH  22  23
ENDBRANCH  17  22
BRANCH  20  33
HETATM   33  O7  UNL     1      -4.550  13.773  20.537  1.00  0.00    -0.229 OA
BRANCH  33  34
HETATM   34  O8  UNL     1      -4.670  14.669  21.457  1.00  0.00    -0.250 OA
ATOM     35  H8  UNL     1      -5.565  14.728  21.773  1.00  0.00     0.253 HD
ENDBRANCH  33  34
ENDBRANCH  20  33
TORSDOF 8
ENDMDL