MODEL 4
REMARK VINA RESULT: -8.544810362      2.375      3.035
REMARK  7 active torsions:
REMARK  status: ('A' for Active; 'I' for Inactive)
REMARK    1  A    between atoms: C2_2  and  C4_4
REMARK    2  A    between atoms: C6_6  and  N1_7
REMARK    3  A    between atoms: C8_9  and  N2_10
REMARK    4  A    between atoms: C10_12  and  C11_13
REMARK    5  A    between atoms: C12_16  and  N4_17
REMARK    6  A    between atoms: C14_19  and  N5_20
REMARK    7  A    between atoms: C20_33  and  C21_34
ROOT
HETATM    1  N2  UNL     1      -4.919   9.612  19.711  1.00  0.00    -0.294 N
HETATM    2  C9  UNL     1      -4.942   8.302  19.442  1.00  0.00     0.131 A
HETATM    3  C10 UNL     1      -5.718   8.049  18.291  1.00  0.00     0.091 A
HETATM    4  C12 UNL     1      -6.141   9.289  17.908  1.00  0.00     0.135 A
HETATM    5  N6  UNL     1      -5.635  10.200  18.795  1.00  0.00    -0.282 N
ATOM      6  H6  UNL     1      -5.797  11.207  18.745  1.00  0.00     0.189 HD
ENDROOT
BRANCH   1   7
HETATM    7  C8  UNL     1      -4.199  10.178  20.839  1.00  0.00     0.125 C
HETATM    8  C7  UNL     1      -2.736   9.847  20.750  1.00  0.00     0.152 C
HETATM    9  N1  UNL     1      -2.032  10.774  21.590  1.00  0.00    -0.353 N
HETATM   10  C20 UNL     1      -1.995  12.150  21.183  1.00  0.00     0.090 C
HETATM   11  C19 UNL     1      -3.225  12.452  20.321  1.00  0.00     0.028 C
HETATM   12  C18 UNL     1      -4.361  11.665  20.953  1.00  0.00     0.031 C
BRANCH   9  13
HETATM   13  C6  UNL     1      -1.414  10.328  22.770  1.00  0.00     0.170 A
HETATM   14  C5  UNL     1      -1.951  10.284  24.060  1.00  0.00     0.085 A
HETATM   15  C4  UNL     1      -0.988   9.776  24.899  1.00  0.00     0.040 A
HETATM   16  N7  UNL     1       0.068   9.531  24.141  1.00  0.00    -0.263 N
HETATM   17  O2  UNL     1      -0.190   9.849  22.938  1.00  0.00    -0.220 OA
ATOM     18  H7  UNL     1       0.954   9.147  24.472  1.00  0.00     0.194 HD
BRANCH  15  19
HETATM   19  C2  UNL     1      -1.143   9.563  26.349  1.00  0.00     0.029 C
HETATM   20  C1  UNL     1      -0.804   8.148  26.761  1.00  0.00     0.016 C
HETATM   21  C3  UNL     1      -2.568   9.823  26.816  1.00  0.00     0.016 C
ENDBRANCH  15  19
ENDBRANCH   9  13
BRANCH  10  22
HETATM   22  C21 UNL     1      -0.777  12.592  20.465  1.00  0.00     0.000 C
HETATM   23  C22 UNL     1       0.403  12.886  21.334  1.00  0.00     0.011 C
HETATM   24  C23 UNL     1      -0.968  13.742  19.509  1.00  0.00     0.011 C
ENDBRANCH  10  22
ENDBRANCH   1   7
BRANCH   3  25
HETATM   25  C11 UNL     1      -5.966   6.737  17.726  1.00  0.00     0.270 C
HETATM   26  N3  UNL     1      -5.865   5.595  18.556  1.00  0.00    -0.057 NA
HETATM   27  O1  UNL     1      -6.263   6.598  16.534  1.00  0.00    -0.271 OA
ENDBRANCH   3  25
BRANCH   4  28
HETATM   28  N4  UNL     1      -6.941   9.624  16.767  1.00  0.00    -0.358 N
HETATM   29  C13 UNL     1      -6.253  10.040  15.582  1.00  0.00     0.157 C
HETATM   30  C14 UNL     1      -7.042   9.984  14.335  1.00  0.00     0.207 C
HETATM   31  C15 UNL     1      -8.530   9.994  14.536  1.00  0.00     0.115 C
HETATM   32  C16 UNL     1      -9.009   9.142  15.652  1.00  0.00     0.261 C
HETATM   33  F1  UNL     1     -10.378   9.440  15.807  1.00  0.00    -0.204 F
HETATM   34  F2  UNL     1      -8.978   7.797  15.349  1.00  0.00    -0.204 F
HETATM   35  C17 UNL     1      -8.357   9.521  16.928  1.00  0.00     0.203 C
BRANCH  30  36
HETATM   36  N5  UNL     1      -6.649   8.904  13.467  1.00  0.00    -0.073 N
ATOM     37  H53 UNL     1      -6.481   8.051  14.000  1.00  0.00     0.274 HD
ATOM     38  H52 UNL     1      -7.435   8.592  12.896  1.00  0.00     0.274 HD
ATOM     39  H51 UNL     1      -5.845   9.134  12.884  1.00  0.00     0.274 HD
ENDBRANCH  30  36
ENDBRANCH   4  28
TORSDOF 7
ENDMDL