MODEL 4
REMARK VINA RESULT: -8.430725246      3.776      8.034
REMARK  7 active torsions:
REMARK  status: ('A' for Active; 'I' for Inactive)
REMARK    1  A    between atoms: O1_2  and  C2_3
REMARK    2  A    between atoms: C4_5  and  C5_6
REMARK    3  A    between atoms: C6_9  and  C7_10
REMARK    4  A    between atoms: C7_10  and  N2_12
REMARK    5  A    between atoms: C15_26  and  N6_27
REMARK    6  A    between atoms: C18_32  and  C19_33
REMARK    7  A    between atoms: C22_37  and  O2_38
ROOT
HETATM    1  C19 UNL     1      -1.148  10.589  24.119  1.00  0.00     0.031 C
HETATM    2  C20 UNL     1      -0.124   9.491  24.011  1.00  0.00     0.061 C
HETATM    3  C21 UNL     1      -1.900  10.585  25.332  1.00  0.00     0.095 C
HETATM    4  N7  UNL     1      -2.484  10.622  26.368  1.00  0.00    -0.192 NA
ENDROOT
BRANCH   1   5
HETATM    5  C18 UNL     1      -1.619  11.207  22.895  1.00  0.00     0.017 A
HETATM    6  C17 UNL     1      -2.898  10.866  22.405  1.00  0.00     0.029 A
HETATM    7  C4  UNL     1      -3.371  11.158  21.183  1.00  0.00    -0.003 A
HETATM    8  C3  UNL     1      -2.503  11.878  20.354  1.00  0.00     0.053 A
HETATM    9  C2  UNL     1      -1.249  12.281  20.708  1.00  0.00     0.103 A
HETATM   10  C22 UNL     1      -0.830  11.916  22.020  1.00  0.00     0.113 A
BRANCH   7  11
HETATM   11  C5  UNL     1      -4.629  10.771  20.577  1.00  0.00     0.077 A
HETATM   12  N1  UNL     1      -4.715  10.036  19.425  1.00  0.00    -0.340 N
HETATM   13  C6  UNL     1      -6.002   9.862  19.017  1.00  0.00     0.138 A
ATOM     14  H1  UNL     1      -3.907   9.662  18.929  1.00  0.00     0.167 HD
HETATM   15  N3  UNL     1      -6.794  10.489  19.886  1.00  0.00    -0.235 N
HETATM   16  N4  UNL     1      -8.088  10.671  19.962  1.00  0.00    -0.288 N
HETATM   17  C16 UNL     1      -5.967  11.040  20.851  1.00  0.00     0.129 A
HETATM   18  C14 UNL     1      -8.651  11.368  20.940  1.00  0.00     0.199 A
ATOM     19  H4  UNL     1      -8.685  10.263  19.244  1.00  0.00     0.188 HD
HETATM   20  N5  UNL     1      -7.915  11.913  21.895  1.00  0.00    -0.336 N
HETATM   21  C15 UNL     1      -6.560  11.745  21.858  1.00  0.00     0.131 A
ATOM     22  H5  UNL     1      -8.351  12.449  22.645  1.00  0.00     0.168 HD
BRANCH  13  23
HETATM   23  C7  UNL     1      -6.350   9.035  17.828  1.00  0.00     0.287 C
HETATM   24  C8  UNL     1      -5.452   9.584  16.674  1.00  0.00     0.051 C
BRANCH  23  25
HETATM   25  N2  UNL     1      -6.043   7.608  17.931  1.00  0.00     0.100 N
HETATM   26  C9  UNL     1      -6.548   7.036  16.674  1.00  0.00     0.279 C
HETATM   27  C10 UNL     1      -6.421   5.562  16.568  1.00  0.00     0.109 C
HETATM   28  C11 UNL     1      -6.282   4.834  17.866  1.00  0.00     0.246 C
HETATM   29  F1  UNL     1      -6.914   3.579  17.722  1.00  0.00    -0.206 F
HETATM   30  F2  UNL     1      -4.991   4.602  18.244  1.00  0.00    -0.206 F
HETATM   31  C12 UNL     1      -7.090   5.549  18.915  1.00  0.00     0.109 C
HETATM   32  C13 UNL     1      -6.762   7.032  19.016  1.00  0.00     0.279 C
ENDBRANCH  23  25
ENDBRANCH  13  23
BRANCH  21  33
HETATM   33  N6  UNL     1      -5.902  12.171  22.859  1.00  0.00    -0.383 N
ATOM     34  H62 UNL     1      -6.299  12.839  23.521  1.00  0.00     0.157 HD
ATOM     35  H61 UNL     1      -4.924  11.890  22.920  1.00  0.00     0.157 HD
ENDBRANCH  21  33
ENDBRANCH   7  11
BRANCH   9  36
HETATM   36  O1  UNL     1      -0.361  13.030  19.948  1.00  0.00    -0.353 OA
HETATM   37  C1  UNL     1      -0.574  14.288  19.423  1.00  0.00     0.210 C
ENDBRANCH   9  36
BRANCH  10  38
HETATM   38  O2  UNL     1       0.423  12.355  22.354  1.00  0.00    -0.352 OA
HETATM   39  C23 UNL     1       0.975  13.573  22.530  1.00  0.00     0.210 C
ENDBRANCH  10  38
ENDBRANCH   1   5
TORSDOF 7
ENDMDL