MODEL 1
REMARK VINA RESULT: -8.612506694      0.000      0.000
REMARK  6 active torsions:
REMARK  status: ('A' for Active; 'I' for Inactive)
REMARK    1  A    between atoms: N1_2  and  C2_3
REMARK    2  A    between atoms: N1_2  and  C12_25
REMARK    3  A    between atoms: N4_10  and  C5_12
REMARK    4  A    between atoms: C7_14  and  C8_15
REMARK    5  A    between atoms: C14_27  and  N8_28
REMARK    6  A    between atoms: N8_28  and  C15_31
ROOT
HETATM    1  C2  UNL     1      -2.841  10.838  21.271  1.00  0.00     0.695 A
HETATM    2  N2  UNL     1      -2.290  10.344  22.384  1.00  0.00    -0.187 N
ATOM      3  H2  UNL     1      -2.770   9.585  22.868  1.00  0.00     0.185 HD
HETATM    4  C3  UNL     1      -1.131  10.801  22.898  1.00  0.00     0.215 A
HETATM    5  N3  UNL     1      -0.460  11.811  22.283  1.00  0.00    -0.186 N
ATOM      6  H3  UNL     1       0.418  12.165  22.663  1.00  0.00     0.185 HD
HETATM    7  C4  UNL     1      -0.984  12.329  21.164  1.00  0.00     0.699 A
HETATM    8  N4  UNL     1      -0.417  13.314  20.569  1.00  0.00    -0.176 N
ATOM      9  H4  UNL     1      -0.878  13.648  19.723  1.00  0.00     0.186 HD
HETATM   10  N7  UNL     1      -2.149  11.845  20.678  1.00  0.00    -0.022 N
ATOM     11  H7  UNL     1      -2.526  12.256  19.823  1.00  0.00     0.203 HD
ENDROOT
BRANCH   1  12
HETATM   12  N1  UNL     1      -4.078  10.418  20.717  1.00  0.00    -0.217 N
HETATM   13  C1  UNL     1      -5.262  10.718  21.511  1.00  0.00     0.169 C
BRANCH  12  14
HETATM   14  C12 UNL     1      -4.193   9.756  19.454  1.00  0.00     0.105 C
HETATM   15  C13 UNL     1      -5.411  10.031  18.625  1.00  0.00     0.059 C
HETATM   16  C14 UNL     1      -5.682   8.559  18.533  1.00  0.00     0.190 C
HETATM   17  C22 UNL     1      -4.688   8.305  19.607  1.00  0.00     0.059 C
BRANCH  16  18
HETATM   18  N8  UNL     1      -7.071   8.205  18.812  1.00  0.00    -0.065 N
ATOM     19  H82 UNL     1      -7.179   7.700  19.692  1.00  0.00     0.278 HD
ATOM     20  H81 UNL     1      -7.643   9.016  19.047  1.00  0.00     0.278 HD
BRANCH  18  21
HETATM   21  C15 UNL     1      -7.598   7.455  17.661  1.00  0.00     0.213 C
HETATM   22  C16 UNL     1      -7.955   8.364  16.546  1.00  0.00     0.065 C
HETATM   23  C17 UNL     1      -7.485   7.910  15.209  1.00  0.00     0.025 C
HETATM   24  C18 UNL     1      -8.404   8.509  14.164  1.00  0.00     0.038 C
HETATM   25  C19 UNL     1      -6.084   8.390  14.897  1.00  0.00     0.038 C
HETATM   26  N9  UNL     1      -7.581   6.457  15.067  1.00  0.00    -0.372 N
HETATM   27  C20 UNL     1      -7.208   5.700  16.033  1.00  0.00     0.110 C
ATOM     28  H9  UNL     1      -7.943   6.048  14.206  1.00  0.00     0.161 HD
HETATM   29  N10 UNL     1      -7.289   4.312  15.931  1.00  0.00    -0.086 NA
HETATM   30  C21 UNL     1      -6.686   6.351  17.243  1.00  0.00     0.177 C
HETATM   31 CL1  UNL     1      -6.442   5.167  18.562  1.00  0.00    -0.115 Cl
ENDBRANCH  18  21
ENDBRANCH  16  18
ENDBRANCH  12  14
ENDBRANCH   1  12
BRANCH   8  32
HETATM   32  C5  UNL     1       0.749  13.987  20.933  1.00  0.00     0.123 A
HETATM   33  C6  UNL     1       1.041  15.305  20.730  1.00  0.00     0.074 A
HETATM   34  C7  UNL     1       2.247  15.802  21.178  1.00  0.00     0.017 A
HETATM   35  N5  UNL     1       3.113  14.985  21.806  1.00  0.00    -0.355 N
HETATM   36  C11 UNL     1       2.838  13.697  22.010  1.00  0.00     0.182 A
ATOM     37  H5  UNL     1       4.002  15.361  22.135  1.00  0.00     0.166 HD
HETATM   38  N6  UNL     1       1.686  13.219  21.580  1.00  0.00    -0.338 N
ATOM     39  H6  UNL     1       1.480  12.232  21.737  1.00  0.00     0.168 HD
BRANCH  34  40
HETATM   40  C8  UNL     1       2.638  17.224  20.993  1.00  0.00     0.036 A
HETATM   41  C9  UNL     1       2.220  18.023  19.837  1.00  0.00     0.011 A
HETATM   42  C10 UNL     1       3.586  17.421  19.836  1.00  0.00     0.011 A
ENDBRANCH  34  40
ENDBRANCH   8  32
TORSDOF 6
ENDMDL