MODEL 3
REMARK VINA RESULT: -7.505873495      3.458      6.653
REMARK  9 active torsions:
REMARK  status: ('A' for Active; 'I' for Inactive)
REMARK    1  A    between atoms: O1_2  and  C2_3
REMARK    2  A    between atoms: C2_3  and  O2_4
REMARK    3  A    between atoms: O2_4  and  C3_5
REMARK    4  A    between atoms: C3_5  and  C4_7
REMARK    5  A    between atoms: C12_17  and  C13_18
REMARK    6  A    between atoms: C15_21  and  C16_22
REMARK    7  A    between atoms: C20_28  and  O7_29
REMARK    8  A    between atoms: C21_31  and  C22_32
REMARK    9  A    between atoms: C22_32  and  O8_33
ROOT
HETATM    1  C4  UNL     1      -5.629  10.097  17.993  1.00  0.00     0.198 C
HETATM    2  F1  UNL     1      -4.760   9.080  17.507  1.00  0.00    -0.231 F
HETATM    3  C5  UNL     1      -5.613  11.118  16.861  1.00  0.00     0.058 C
HETATM    4  C6  UNL     1      -5.509  12.475  17.461  1.00  0.00     0.048 C
HETATM    5  C7  UNL     1      -5.383  12.301  18.959  1.00  0.00     0.111 C
HETATM    6  F2  UNL     1      -6.648  12.590  19.471  1.00  0.00    -0.242 F
HETATM    7  C8  UNL     1      -4.443  13.267  19.569  1.00  0.00     0.045 C
HETATM    8  C9  UNL     1      -3.167  12.745  20.149  1.00  0.00     0.019 C
HETATM    9  C10 UNL     1      -3.270  11.952  21.378  1.00  0.00     0.026 C
HETATM   10  C11 UNL     1      -4.267  12.501  22.380  1.00  0.00     0.022 C
HETATM   11  C12 UNL     1      -2.032  11.703  22.166  1.00  0.00     0.102 C
HETATM   12  C15 UNL     1      -2.370  10.331  22.790  1.00  0.00     0.172 C
HETATM   13  O6  UNL     1      -3.701  10.075  22.462  1.00  0.00    -0.343 OA
HETATM   14  C20 UNL     1      -3.676  10.506  21.108  1.00  0.00     0.177 C
HETATM   15  C21 UNL     1      -5.028  10.406  20.471  1.00  0.00     0.083 C
HETATM   16  C23 UNL     1      -5.004  10.857  19.082  1.00  0.00     0.086 C
ENDROOT
BRANCH   1  17
HETATM   17  C3  UNL     1      -6.983   9.599  18.112  1.00  0.00     0.301 C
HETATM   18  O3  UNL     1      -7.933  10.303  17.684  1.00  0.00    -0.261 OA
BRANCH  17  19
HETATM   19  O2  UNL     1      -7.373   8.401  18.657  1.00  0.00    -0.293 OA
BRANCH  19  20
HETATM   20  C2  UNL     1      -7.267   7.153  18.004  1.00  0.00     0.347 C
BRANCH  20  21
HETATM   21  O1  UNL     1      -7.039   6.187  18.976  1.00  0.00    -0.371 OA
HETATM   22  C1  UNL     1      -6.374   5.074  18.459  1.00  0.00     0.204 C
ENDBRANCH  20  21
ENDBRANCH  19  20
ENDBRANCH  17  19
ENDBRANCH   1  17
BRANCH  15  23
HETATM   23  C22 UNL     1      -5.522   9.024  20.768  1.00  0.00     0.174 C
BRANCH  23  24
HETATM   24  O8  UNL     1      -6.652   8.992  21.569  1.00  0.00    -0.400 OA
ATOM     25  H8  UNL     1      -7.377   8.506  21.192  1.00  0.00     0.209 HD
ENDBRANCH  23  24
ENDBRANCH  15  23
BRANCH  14  26
HETATM   26  O7  UNL     1      -2.706   9.759  20.522  1.00  0.00    -0.364 OA
ATOM     27  H7  UNL     1      -2.362  10.133  19.719  1.00  0.00     0.213 HD
ENDBRANCH  14  26
BRANCH  11  28
HETATM   28  C13 UNL     1      -0.752  11.687  21.495  1.00  0.00     0.131 C
HETATM   29  C14 UNL     1      -0.003  12.896  21.127  1.00  0.00     0.091 C
HETATM   30  O4  UNL     1      -0.236  10.622  21.203  1.00  0.00    -0.298 OA
ENDBRANCH  11  28
BRANCH  12  31
HETATM   31  C16 UNL     1      -2.120  10.288  24.230  1.00  0.00    -0.004 A
HETATM   32  C17 UNL     1      -3.035  10.634  25.196  1.00  0.00     0.036 A
HETATM   33  C18 UNL     1      -2.402  10.449  26.414  1.00  0.00     0.142 A
HETATM   34  O5  UNL     1      -1.193  10.023  26.156  1.00  0.00    -0.334 OA
HETATM   35  C19 UNL     1      -0.983   9.913  24.868  1.00  0.00     0.151 A
ENDBRANCH  12  31
TORSDOF 9
ENDMDL