MODEL 4
REMARK VINA RESULT: -7.755413077      2.711      3.824
REMARK  6 active torsions:
REMARK  status: ('A' for Active; 'I' for Inactive)
REMARK    1  A    between atoms: S1_2  and  C2_3
REMARK    2  A    between atoms: C3_8  and  C4_9
REMARK    3  A    between atoms: C4_9  and  N3_11
REMARK    4  A    between atoms: C8_14  and  C9_15
REMARK    5  A    between atoms: C9_15  and  C10_16
REMARK       I    between atoms: N6_22  and  C12_24
REMARK    6  A    between atoms: C12_24  and  C13_26
ROOT
HETATM    1  N3  UNL     1      -6.986   3.834  16.651  1.00  0.00     0.100 N
HETATM    2  C6  UNL     1      -6.957   5.108  16.008  1.00  0.00     0.273 C
HETATM    3  C7  UNL     1      -7.351   6.267  16.904  1.00  0.00     0.035 C
HETATM    4  C8  UNL     1      -6.596   6.301  18.199  1.00  0.00    -0.005 C
HETATM    5  C15 UNL     1      -5.803   5.029  18.329  1.00  0.00     0.035 C
HETATM    6  C16 UNL     1      -6.782   3.881  18.065  1.00  0.00     0.273 C
ENDROOT
BRANCH   4   7
HETATM    7  C9  UNL     1      -5.737   7.520  18.332  1.00  0.00     0.071 C
BRANCH   7   8
HETATM    8  C10 UNL     1      -6.257   8.330  19.495  1.00  0.00     0.070 A
HETATM    9  N4  UNL     1      -6.936   7.916  20.552  1.00  0.00    -0.296 N
HETATM   10  N5  UNL     1      -7.300   8.743  21.444  1.00  0.00    -0.279 N
ATOM     11  H4  UNL     1      -7.169   6.928  20.651  1.00  0.00     0.187 HD
HETATM   12  C11 UNL     1      -6.982  10.031  21.288  1.00  0.00     0.167 A
ATOM     13  H5  UNL     1      -7.822   8.430  22.263  1.00  0.00     0.189 HD
HETATM   14  N6  UNL     1      -7.266  11.031  22.095  1.00  0.00    -0.303 N
HETATM   15  S2  UNL     1      -6.138  10.007  19.804  1.00  0.00    -0.038 SA
HETATM   16  C12 UNL     1      -6.864  12.340  21.796  1.00  0.00     0.262 C
ATOM     17  H6  UNL     1      -7.789  10.850  22.952  1.00  0.00     0.171 HD
HETATM   18  O1  UNL     1      -7.460  12.989  20.873  1.00  0.00    -0.270 OA
BRANCH  16  19
HETATM   19  C13 UNL     1      -5.752  12.991  22.534  1.00  0.00     0.190 C
HETATM   20  C14 UNL     1      -6.184  13.126  23.983  1.00  0.00     0.061 C
HETATM   21 CL1  UNL     1      -5.509  14.647  21.882  1.00  0.00    -0.091 Cl
HETATM   22 CL2  UNL     1      -4.238  12.101  22.375  1.00  0.00    -0.091 Cl
ENDBRANCH  16  19
ENDBRANCH   7   8
ENDBRANCH   4   7
BRANCH   1  23
HETATM   23  C4  UNL     1      -8.200   3.139  16.266  1.00  0.00     0.294 C
HETATM   24  C5  UNL     1      -8.870   3.977  15.172  1.00  0.00     0.052 C
BRANCH  23  25
HETATM   25  C3  UNL     1      -7.845   1.795  15.709  1.00  0.00     0.174 A
HETATM   26  N2  UNL     1      -7.008   0.881  16.236  1.00  0.00    -0.279 N
HETATM   27  N1  UNL     1      -6.960  -0.180  15.440  1.00  0.00    -0.272 N
ATOM     28  H2  UNL     1      -6.492   0.987  17.110  1.00  0.00     0.189 HD
HETATM   29  C2  UNL     1      -7.786   0.076  14.394  1.00  0.00     0.203 A
ATOM     30  H1  UNL     1      -6.409  -1.026  15.586  1.00  0.00     0.189 HD
HETATM   31  O2  UNL     1      -8.283   1.255  14.600  1.00  0.00    -0.270 OA
BRANCH  29  32
HETATM   32  S1  UNL     1      -8.065  -1.071  13.031  1.00  0.00    -0.089 SA
HETATM   33  C1  UNL     1      -9.148  -0.235  11.845  1.00  0.00     0.099 C
ENDBRANCH  29  32
ENDBRANCH  23  25
ENDBRANCH   1  23
TORSDOF 6
ENDMDL