MODEL 5
REMARK VINA RESULT: -8.343000131      1.483      1.961
REMARK  8 active torsions:
REMARK  status: ('A' for Active; 'I' for Inactive)
REMARK    1  A    between atoms: C3_3  and  N1_4
REMARK    2  A    between atoms: C6_9  and  C7_10
REMARK    3  A    between atoms: C7_10  and  O3_12
REMARK    4  A    between atoms: C9_16  and  N3_17
REMARK    5  A    between atoms: N3_17  and  C10_19
REMARK    6  A    between atoms: C10_19  and  C12_21
REMARK    7  A    between atoms: C15_30  and  O4_31
REMARK    8  A    between atoms: O4_31  and  C16_32
ROOT
HETATM    1  C1  UNL     1      -5.702  10.473  16.352  1.00  0.00     0.057 C
HETATM    2  C2  UNL     1      -4.946  10.419  17.603  1.00  0.00     0.035 A
HETATM    3  C3  UNL     1      -4.010  11.386  17.864  1.00  0.00     0.138 A
HETATM    4  N2  UNL     1      -3.365  11.230  19.068  1.00  0.00    -0.176 N
ATOM      5  H2  UNL     1      -2.655  11.918  19.319  1.00  0.00     0.186 HD
HETATM    6  C9  UNL     1      -3.601  10.246  19.927  1.00  0.00     0.682 A
HETATM    7  N5  UNL     1      -4.522   9.328  19.628  1.00  0.00    -0.170 N
ATOM      8  H5  UNL     1      -4.696   8.575  20.294  1.00  0.00     0.186 HD
HETATM    9  C15 UNL     1      -5.240   9.356  18.471  1.00  0.00     0.167 A
ENDROOT
BRANCH   6  10
HETATM   10  N3  UNL     1      -2.979  10.121  21.056  1.00  0.00    -0.216 N
ATOM     11  H3  UNL     1      -2.492   9.249  21.262  1.00  0.00     0.178 HD
BRANCH  10  12
HETATM   12  C10 UNL     1      -2.958  11.181  22.025  1.00  0.00     0.145 C
HETATM   13  C11 UNL     1      -4.326  11.691  22.351  1.00  0.00     0.039 C
BRANCH  12  14
HETATM   14  C12 UNL     1      -2.301  10.699  23.307  1.00  0.00     0.041 A
HETATM   15  C13 UNL     1      -0.992  10.281  23.296  1.00  0.00     0.081 A
HETATM   16  S1  UNL     1      -0.757   9.856  24.935  1.00  0.00    -0.051 SA
HETATM   17  C14 UNL     1      -2.314  10.231  25.526  1.00  0.00     0.231 A
HETATM   18  F1  UNL     1      -2.830  10.125  26.801  1.00  0.00    -0.178 F
HETATM   19  N4  UNL     1      -2.930  10.661  24.435  1.00  0.00    -0.328 N
ATOM     20  H4  UNL     1      -3.903  10.963  24.487  1.00  0.00     0.168 HD
ENDBRANCH  12  14
ENDBRANCH  10  12
ENDBRANCH   6  10
BRANCH   3  21
HETATM   21  N1  UNL     1      -3.700  12.472  17.025  1.00  0.00    -0.269 N
HETATM   22  C4  UNL     1      -4.615  13.609  16.935  1.00  0.00     0.369 C
HETATM   23  O1  UNL     1      -5.439  13.948  17.829  1.00  0.00    -0.238 OA
HETATM   24  O2  UNL     1      -4.432  14.250  15.719  1.00  0.00    -0.301 OA
HETATM   25  C5  UNL     1      -3.573  13.430  14.971  1.00  0.00     0.209 C
HETATM   26  C6  UNL     1      -2.677  12.874  16.127  1.00  0.00     0.149 C
BRANCH  26  27
HETATM   27  C7  UNL     1      -1.858  14.063  16.526  1.00  0.00     0.139 C
HETATM   28  C8  UNL     1      -0.929  14.629  15.531  1.00  0.00     0.041 C
BRANCH  27  29
HETATM   29  O3  UNL     1      -1.154  13.904  17.716  1.00  0.00    -0.394 OA
ATOM     30  H3  UNL     1      -0.428  14.507  17.827  1.00  0.00     0.210 HD
ENDBRANCH  27  29
ENDBRANCH  26  27
ENDBRANCH   3  21
BRANCH   9  31
HETATM   31  O4  UNL     1      -6.119   8.457  18.219  1.00  0.00    -0.327 OA
BRANCH  31  32
HETATM   32  C16 UNL     1      -7.045   7.568  18.009  1.00  0.00     0.164 C
HETATM   33  C17 UNL     1      -6.956   6.482  19.109  1.00  0.00     0.035 C
HETATM   34  C18 UNL     1      -5.877   5.596  18.531  1.00  0.00     0.006 C
HETATM   35  C19 UNL     1      -6.404   5.381  17.130  1.00  0.00     0.040 C
HETATM   36  C20 UNL     1      -6.931   6.721  16.750  1.00  0.00     0.199 C
HETATM   37  F2  UNL     1      -6.191   7.356  15.776  1.00  0.00    -0.247 F
ENDBRANCH  31  32
ENDBRANCH   9  31
TORSDOF 8
ENDMDL