MODEL 2
REMARK VINA RESULT: -7.127280123      1.041      1.409
REMARK  6 active torsions:
REMARK  status: ('A' for Active; 'I' for Inactive)
REMARK    1  A    between atoms: N1_1  and  C1_5
REMARK    2  A    between atoms: C1_5  and  C2_6
REMARK    3  A    between atoms: C2_6  and  C3_7
REMARK    4  A    between atoms: C3_7  and  N2_8
REMARK    5  A    between atoms: C4_10  and  C5_11
REMARK    6  A    between atoms: N6_21  and  C9_23
ROOT
HETATM    1  C5  UNL     1      -5.072  77.346  23.384  1.00  0.00     0.074 C
HETATM    2  C6  UNL     1      -4.382  76.771  24.431  1.00  0.00     0.136 C
HETATM    3  N3  UNL     1      -4.570  77.435  25.664  1.00  0.00    -0.082 NA
HETATM    4  N4  UNL     1      -3.589  75.687  24.380  1.00  0.00    -0.296 N
ATOM      5  H4  UNL     1      -3.226  75.375  25.281  1.00  0.00     0.171 HD
HETATM    6  C7  UNL     1      -3.194  74.942  23.309  1.00  0.00     0.327 C
HETATM    7  O1  UNL     1      -2.140  74.280  23.446  1.00  0.00    -0.247 OA
HETATM    8  N5  UNL     1      -3.826  74.842  22.112  1.00  0.00    -0.291 N
ATOM      9  H5  UNL     1      -3.513  74.081  21.510  1.00  0.00     0.172 HD
HETATM   10  C8  UNL     1      -4.834  75.631  21.599  1.00  0.00     0.157 C
HETATM   11  N6  UNL     1      -5.516  75.158  20.663  1.00  0.00    -0.365 N
ATOM     12  H6  UNL     1      -5.268  74.219  20.351  1.00  0.00     0.161 HD
HETATM   13  C12 UNL     1      -5.123  76.892  22.060  1.00  0.00     0.230 C
HETATM   14  O2  UNL     1      -5.471  77.716  21.184  1.00  0.00    -0.283 OA
ENDROOT
BRANCH   1  15
HETATM   15  C4  UNL     1      -5.829  78.546  23.642  1.00  0.00     0.102 C
HETATM   16  N2  UNL     1      -5.279  79.690  23.483  1.00  0.00    -0.398 N
ATOM     17  H2  UNL     1      -4.309  79.750  23.174  1.00  0.00     0.158 HD
BRANCH  16  18
HETATM   18  C3  UNL     1      -6.027  80.886  23.739  1.00  0.00     0.120 C
BRANCH  18  19
HETATM   19  C2  UNL     1      -5.868  81.861  22.609  1.00  0.00     0.047 C
BRANCH  19  20
HETATM   20  C1  UNL     1      -4.547  81.559  21.886  1.00  0.00     0.231 C
BRANCH  20  21
HETATM   21  N1  UNL     1      -4.705  81.701  20.459  1.00  0.00    -0.079 N
ATOM     22  H13 UNL     1      -5.268  80.948  20.063  1.00  0.00     0.274 HD
ATOM     23  H12 UNL     1      -5.313  82.486  20.222  1.00  0.00     0.274 HD
ATOM     24  H11 UNL     1      -3.796  81.775  20.003  1.00  0.00     0.274 HD
ENDBRANCH  20  21
ENDBRANCH  19  20
ENDBRANCH  18  19
ENDBRANCH  16  18
ENDBRANCH   1  15
BRANCH  11  25
HETATM   25  C9  UNL     1      -6.588  75.778  19.993  1.00  0.00     0.134 C
HETATM   26  C10 UNL     1      -7.796  74.803  20.001  1.00  0.00     0.259 C
HETATM   27  N7  UNL     1      -7.170  74.168  18.857  1.00  0.00    -0.071 N
HETATM   28  C11 UNL     1      -6.713  75.520  18.491  1.00  0.00     0.259 C
ATOM     29  H72 UNL     1      -6.519  73.391  18.963  1.00  0.00     0.277 HD
ATOM     30  H71 UNL     1      -7.700  73.587  18.208  1.00  0.00     0.277 HD
ENDBRANCH  11  25
TORSDOF 6
ENDMDL