MODEL 5
REMARK VINA RESULT: -6.836071395      4.884      7.397
REMARK  9 active torsions:
REMARK  status: ('A' for Active; 'I' for Inactive)
REMARK    1  A    between atoms: O1_3  and  C2_4
REMARK    2  A    between atoms: C2_4  and  C3_5
REMARK    3  A    between atoms: C3_5  and  N2_6
REMARK    4  A    between atoms: N2_6  and  C4_8
REMARK    5  A    between atoms: C5_11  and  N4_12
REMARK    6  A    between atoms: C6_17  and  N6_18
REMARK    7  A    between atoms: N6_18  and  C7_20
REMARK    8  A    between atoms: C10_26  and  C11_27
REMARK    9  A    between atoms: C11_27  and  O2_28
ROOT
HETATM    1  N1  UNL     1      -3.581  75.230  23.113  1.00  0.00    -0.164 NA
HETATM    2  C1  UNL     1      -3.002  75.570  24.058  1.00  0.00     0.228 C
HETATM    3  O1  UNL     1      -2.333  75.968  25.198  1.00  0.00    -0.282 OA
ENDROOT
BRANCH   3   4
HETATM    4  C2  UNL     1      -2.474  77.290  25.640  1.00  0.00     0.210 C
BRANCH   4   5
HETATM    5  C3  UNL     1      -1.942  78.245  24.584  1.00  0.00     0.165 C
BRANCH   5   6
HETATM    6  N2  UNL     1      -0.532  78.475  24.717  1.00  0.00    -0.223 N
ATOM      7  H2  UNL     1      -0.149  78.520  25.661  1.00  0.00     0.177 HD
BRANCH   6   8
HETATM    8  C4  UNL     1       0.279  78.629  23.743  1.00  0.00     0.707 A
HETATM    9  N3  UNL     1       1.490  78.052  23.814  1.00  0.00    -0.022 N
HETATM   10  C5  UNL     1       2.331  78.231  22.765  1.00  0.00     0.705 A
ATOM     11  H3  UNL     1       1.767  77.500  24.626  1.00  0.00     0.203 HD
HETATM   12  N5  UNL     1       1.952  78.959  21.708  1.00  0.00    -0.022 N
HETATM   13  C6  UNL     1       0.742  79.533  21.641  1.00  0.00     0.707 A
ATOM     14  H5  UNL     1       2.601  79.080  20.932  1.00  0.00     0.203 HD
HETATM   15  N8  UNL     1      -0.092  79.365  22.662  1.00  0.00    -0.022 N
ATOM     16  H8  UNL     1      -1.017  79.792  22.634  1.00  0.00     0.203 HD
BRANCH  10  17
HETATM   17  N4  UNL     1       3.500  77.669  22.847  1.00  0.00    -0.234 N
ATOM     18  H42 UNL     1       4.253  78.044  23.424  1.00  0.00     0.174 HD
ATOM     19  H41 UNL     1       3.640  76.819  22.301  1.00  0.00     0.174 HD
ENDBRANCH  10  17
BRANCH  13  20
HETATM   20  N6  UNL     1       0.356  80.238  20.631  1.00  0.00    -0.218 N
ATOM     21  H6  UNL     1      -0.058  79.741  19.841  1.00  0.00     0.178 HD
BRANCH  20  22
HETATM   22  C7  UNL     1       0.461  81.658  20.531  1.00  0.00     0.132 C
HETATM   23  C8  UNL     1      -0.870  82.359  20.742  1.00  0.00     0.258 C
HETATM   24  N7  UNL     1      -0.961  83.405  19.770  1.00  0.00    -0.073 N
HETATM   25  C9  UNL     1       0.319  83.487  19.091  1.00  0.00     0.241 C
ATOM     26  H72 UNL     1      -1.744  83.283  19.128  1.00  0.00     0.277 HD
ATOM     27  H71 UNL     1      -1.254  84.295  20.172  1.00  0.00     0.277 HD
HETATM   28  C10 UNL     1       0.743  82.032  19.072  1.00  0.00     0.060 C
BRANCH  28  29
HETATM   29  C11 UNL     1       2.207  81.881  18.747  1.00  0.00     0.172 C
BRANCH  29  30
HETATM   30  O2  UNL     1       2.869  81.620  19.945  1.00  0.00    -0.400 OA
ATOM     31  H2  UNL     1       3.456  82.349  20.105  1.00  0.00     0.209 HD
ENDBRANCH  29  30
ENDBRANCH  28  29
ENDBRANCH  20  22
ENDBRANCH  13  20
ENDBRANCH   6   8
ENDBRANCH   5   6
ENDBRANCH   4   5
ENDBRANCH   3   4
TORSDOF 9
ENDMDL