MODEL 3
REMARK VINA RESULT: -7.475486288      5.534      6.947
REMARK  7 active torsions:
REMARK  status: ('A' for Active; 'I' for Inactive)
REMARK    1  A    between atoms: N3_4  and  C2_6
REMARK    2  A    between atoms: C2_6  and  C3_7
REMARK    3  A    between atoms: C3_7  and  O1_8
REMARK    4  A    between atoms: O1_8  and  C4_9
REMARK    5  A    between atoms: C5_12  and  N5_13
REMARK    6  A    between atoms: N5_13  and  O2_15
REMARK    7  A    between atoms: C7_21  and  C8_22
ROOT
HETATM    1  C4  UNL     1      -5.503  76.523  23.341  1.00  0.00     0.177 A
HETATM    2  N4  UNL     1      -4.691  76.768  24.385  1.00  0.00    -0.167 N
ATOM      3  H4  UNL     1      -4.995  77.413  25.114  1.00  0.00     0.186 HD
HETATM    4  C5  UNL     1      -3.482  76.178  24.485  1.00  0.00     0.706 A
HETATM    5  N6  UNL     1      -3.074  75.331  23.531  1.00  0.00    -0.153 N
ATOM      6  H6  UNL     1      -2.159  74.886  23.609  1.00  0.00     0.187 HD
HETATM    7  C6  UNL     1      -3.846  75.065  22.486  1.00  0.00     0.278 A
HETATM    8  O3  UNL     1      -3.449  74.260  21.587  1.00  0.00    -0.266 OA
HETATM    9  C7  UNL     1      -5.097  75.643  22.333  1.00  0.00     0.127 A
ENDROOT
BRANCH   1  10
HETATM   10  O1  UNL     1      -6.720  77.091  23.200  1.00  0.00    -0.333 OA
BRANCH  10  11
HETATM   11  C3  UNL     1      -7.181  78.342  22.899  1.00  0.00     0.197 C
BRANCH  11  12
HETATM   12  C2  UNL     1      -6.224  79.488  23.062  1.00  0.00     0.148 C
BRANCH  12  13
HETATM   13  N3  UNL     1      -6.658  80.388  24.137  1.00  0.00    -0.365 N
HETATM   14  C1  UNL     1      -6.188  80.312  25.332  1.00  0.00     0.197 C
HETATM   15  N1  UNL     1      -6.690  81.238  26.279  1.00  0.00    -0.067 NA
HETATM   16  N2  UNL     1      -5.213  79.331  25.640  1.00  0.00    -0.067 NA
ATOM     17  H3  UNL     1      -7.359  81.099  23.930  1.00  0.00     0.161 HD
ENDBRANCH  12  13
ENDBRANCH  11  12
ENDBRANCH  10  11
ENDBRANCH   1  10
BRANCH   9  18
HETATM   18  C8  UNL     1      -5.929  75.339  21.165  1.00  0.00     0.117 C
HETATM   19  N7  UNL     1      -7.228  75.210  21.160  1.00  0.00    -0.374 N
HETATM   20  C9  UNL     1      -7.701  74.912  19.833  1.00  0.00     0.141 C
ATOM     21  H7  UNL     1      -7.825  75.308  21.982  1.00  0.00     0.161 HD
HETATM   22  C10 UNL     1      -6.569  75.435  18.959  1.00  0.00     0.141 C
HETATM   23  N8  UNL     1      -5.439  75.125  19.855  1.00  0.00    -0.374 N
ATOM     24  H8  UNL     1      -4.502  74.821  19.587  1.00  0.00     0.161 HD
ENDBRANCH   9  18
BRANCH   4  25
HETATM   25  N5  UNL     1      -2.726  76.446  25.518  1.00  0.00    -0.098 N
ATOM     26  H5  UNL     1      -1.736  76.199  25.520  1.00  0.00     0.213 HD
BRANCH  25  27
HETATM   27  O2  UNL     1      -3.295  77.067  26.597  1.00  0.00    -0.276 OA
ATOM     28  H2  UNL     1      -3.912  77.772  26.440  1.00  0.00     0.245 HD
ENDBRANCH  25  27
ENDBRANCH   4  25
TORSDOF 7
ENDMDL