MODEL 2
REMARK VINA RESULT: -7.262917512      3.335      4.787
REMARK  8 active torsions:
REMARK  status: ('A' for Active; 'I' for Inactive)
REMARK    1  A    between atoms: N1_1  and  C1_5
REMARK    2  A    between atoms: C1_5  and  C2_6
REMARK    3  A    between atoms: C2_6  and  S1_7
REMARK    4  A    between atoms: S1_7  and  C3_9
REMARK    5  A    between atoms: C7_15  and  N3_16
REMARK    6  A    between atoms: N3_16  and  N4_18
REMARK    7  A    between atoms: N4_18  and  N5_19
REMARK    8  A    between atoms: N4_18  and  N6_22
ROOT
HETATM    1  C3  UNL     1       1.273  80.248  20.859  1.00  0.00     0.032 A
HETATM    2  C4  UNL     1       2.115  79.317  21.431  1.00  0.00     0.023 A
HETATM    3  C5  UNL     1       1.781  78.623  22.579  1.00  0.00     0.032 A
HETATM    4  C6  UNL     1       0.561  78.849  23.197  1.00  0.00     0.065 A
HETATM    5  N2  UNL     1       0.196  78.193  24.317  1.00  0.00    -0.190 N
ATOM      6  H2  UNL     1       0.835  77.509  24.724  1.00  0.00     0.184 HD
HETATM    7  C7  UNL     1      -0.981  78.417  24.907  1.00  0.00     0.699 A
HETATM    8  N7  UNL     1      -1.817  79.325  24.358  1.00  0.00    -0.154 N
ATOM      9  H7  UNL     1      -2.717  79.500  24.803  1.00  0.00     0.187 HD
HETATM   10  C8  UNL     1      -1.497  80.008  23.237  1.00  0.00     0.272 A
HETATM   11  O2  UNL     1      -2.288  80.851  22.737  1.00  0.00    -0.267 OA
HETATM   12  C9  UNL     1      -0.282  79.771  22.635  1.00  0.00     0.061 A
HETATM   13  C10 UNL     1       0.064  80.458  21.489  1.00  0.00     0.040 A
ENDROOT
BRANCH   7  14
HETATM   14  N3  UNL     1      -1.379  77.729  26.091  1.00  0.00    -0.115 N
ATOM     15  H3  UNL     1      -0.856  77.874  26.955  1.00  0.00     0.203 HD
BRANCH  14  16
HETATM   16  N4  UNL     1      -2.459  76.872  26.086  1.00  0.00    -0.039 NA
BRANCH  16  17
HETATM   17  N5  UNL     1      -3.669  77.487  26.395  1.00  0.00    -0.327 NA
ATOM     18  H52 UNL     1      -4.165  76.897  27.063  1.00  0.00     0.174 HD
ATOM     19  H51 UNL     1      -4.216  77.755  25.578  1.00  0.00     0.174 HD
ENDBRANCH  16  17
BRANCH  16  20
HETATM   20  N6  UNL     1      -2.623  76.161  24.912  1.00  0.00    -0.327 NA
ATOM     21  H62 UNL     1      -2.567  75.166  25.132  1.00  0.00     0.174 HD
ATOM     22  H61 UNL     1      -3.448  76.419  24.372  1.00  0.00     0.174 HD
ENDBRANCH  16  20
ENDBRANCH  14  16
ENDBRANCH   7  14
BRANCH   1  23
HETATM   23  S1  UNL     1       1.634  81.146  19.429  1.00  0.00     0.051 S
HETATM   24  O1  UNL     1       3.002  82.077  19.550  1.00  0.00    -0.253 OA
BRANCH  23  25
HETATM   25  C2  UNL     1       0.243  82.059  18.823  1.00  0.00     0.141 C
BRANCH  25  26
HETATM   26  C1  UNL     1      -0.310  81.463  17.556  1.00  0.00     0.242 C
BRANCH  26  27
HETATM   27  N1  UNL     1      -0.110  80.030  17.595  1.00  0.00    -0.079 N
ATOM     28  H13 UNL     1      -0.615  79.545  16.853  1.00  0.00     0.274 HD
ATOM     29  H12 UNL     1       0.835  79.760  17.321  1.00  0.00     0.274 HD
ATOM     30  H11 UNL     1      -0.359  79.691  18.524  1.00  0.00     0.274 HD
ENDBRANCH  26  27
ENDBRANCH  25  26
ENDBRANCH  23  25
ENDBRANCH   1  23
TORSDOF 8
ENDMDL