MODEL 1
REMARK VINA RESULT: -7.603120624      0.000      0.000
REMARK  7 active torsions:
REMARK  status: ('A' for Active; 'I' for Inactive)
REMARK    1  A    between atoms: C2_5  and  C3_7
REMARK    2  A    between atoms: C5_12  and  N6_13
REMARK    3  A    between atoms: N8_19  and  C7_21
REMARK    4  A    between atoms: C7_21  and  C8_22
REMARK    5  A    between atoms: C8_22  and  C9_23
REMARK    6  A    between atoms: C9_23  and  O1_24
REMARK    7  A    between atoms: O1_24  and  C10_25
ROOT
HETATM    1  N1  UNL     1       0.085  78.821  25.156  1.00  0.00    -0.172 NA
HETATM    2  C1  UNL     1      -0.815  78.320  24.617  1.00  0.00     0.183 C
HETATM    3  N2  UNL     1      -1.905  77.726  23.987  1.00  0.00    -0.281 N
ATOM      4  H2  UNL     1      -2.008  77.808  22.975  1.00  0.00     0.179 HD
HETATM    5  C2  UNL     1      -2.807  77.061  24.679  1.00  0.00     0.142 C
HETATM    6  N3  UNL     1      -2.576  76.999  26.078  1.00  0.00    -0.081 NA
ENDROOT
BRANCH   5   7
HETATM    7  C3  UNL     1      -3.967  76.502  24.019  1.00  0.00     0.092 A
HETATM    8  C4  UNL     1      -3.817  75.283  23.396  1.00  0.00     0.149 A
HETATM    9  N4  UNL     1      -2.601  74.552  23.426  1.00  0.00    -0.081 NA
HETATM   10  N5  UNL     1      -4.890  74.792  22.758  1.00  0.00    -0.178 N
HETATM   11  C5  UNL     1      -6.054  75.462  22.731  1.00  0.00     0.678 A
ATOM     12  H5  UNL     1      -4.821  73.893  22.283  1.00  0.00     0.185 HD
HETATM   13  N7  UNL     1      -6.196  76.652  23.344  1.00  0.00    -0.176 N
HETATM   14  C6  UNL     1      -5.149  77.226  24.018  1.00  0.00     0.134 A
ATOM     15  H7  UNL     1      -7.094  77.134  23.306  1.00  0.00     0.186 HD
HETATM   16  N8  UNL     1      -5.210  78.306  24.586  1.00  0.00    -0.375 N
ATOM     17  H8  UNL     1      -4.292  78.485  24.993  1.00  0.00     0.161 HD
BRANCH  11  18
HETATM   18  N6  UNL     1      -7.049  74.927  22.093  1.00  0.00    -0.234 N
ATOM     19  H62 UNL     1      -7.607  75.481  21.444  1.00  0.00     0.174 HD
ATOM     20  H61 UNL     1      -7.250  73.941  22.262  1.00  0.00     0.174 HD
ENDBRANCH  11  18
BRANCH  16  21
HETATM   21  C7  UNL     1      -6.009  79.376  24.900  1.00  0.00     0.123 C
BRANCH  21  22
HETATM   22  C8  UNL     1      -5.929  80.470  23.829  1.00  0.00     0.046 C
BRANCH  22  23
HETATM   23  C9  UNL     1      -7.211  80.584  23.067  1.00  0.00     0.182 C
BRANCH  23  24
HETATM   24  O1  UNL     1      -7.868  79.369  22.958  1.00  0.00    -0.306 OA
BRANCH  24  25
HETATM   25  C10 UNL     1      -9.154  79.124  22.565  1.00  0.00     0.372 C
HETATM   26  N9  UNL     1     -10.272  79.758  23.165  1.00  0.00    -0.032 NA
HETATM   27  O2  UNL     1      -9.378  78.306  21.634  1.00  0.00    -0.242 OA
ENDBRANCH  24  25
ENDBRANCH  23  24
ENDBRANCH  22  23
ENDBRANCH  21  22
ENDBRANCH  16  21
ENDBRANCH   5   7
TORSDOF 7
ENDMDL