MODEL 1
REMARK VINA RESULT: -7.964109616      0.000      0.000
REMARK  8 active torsions:
REMARK  status: ('A' for Active; 'I' for Inactive)
REMARK    1  A    between atoms: N1_1  and  C1_4
REMARK    2  A    between atoms: C4_12  and  C5_13
REMARK    3  A    between atoms: C5_13  and  N4_14
REMARK    4  A    between atoms: C8_20  and  N7_21
REMARK    5  A    between atoms: N7_21  and  C9_23
REMARK    6  A    between atoms: C9_23  and  C10_24
REMARK    7  A    between atoms: C10_24  and  C11_25
REMARK    8  A    between atoms: C11_25  and  O2_26
ROOT
HETATM    1  N4  UNL     1      -6.228  76.700  22.921  1.00  0.00    -0.250 N
HETATM    2  N5  UNL     1      -6.871  77.841  22.812  1.00  0.00    -0.282 N
ATOM      3  H5  UNL     1      -7.568  77.929  22.073  1.00  0.00     0.188 HD
HETATM    4  C6  UNL     1      -6.666  78.905  23.619  1.00  0.00     0.133 A
HETATM    5  N6  UNL     1      -7.381  80.124  23.471  1.00  0.00    -0.081 NA
HETATM    6  C7  UNL     1      -5.706  78.762  24.628  1.00  0.00     0.081 A
HETATM    7  C8  UNL     1      -5.008  77.582  24.777  1.00  0.00     0.101 A
HETATM    8  C12 UNL     1      -5.292  76.556  23.901  1.00  0.00     0.288 A
HETATM    9  O3  UNL     1      -4.687  75.454  23.989  1.00  0.00    -0.264 OA
ENDROOT
BRANCH   1  10
HETATM   10  C5  UNL     1      -6.474  75.600  22.048  1.00  0.00     0.196 C
BRANCH  10  11
HETATM   11  C4  UNL     1      -6.062  75.810  20.666  1.00  0.00     0.021 A
HETATM   12  C1  UNL     1      -6.751  75.204  19.643  1.00  0.00     0.112 A
HETATM   13  N2  UNL     1      -6.409  75.368  18.347  1.00  0.00    -0.294 N
HETATM   14  C2  UNL     1      -5.368  76.142  18.046  1.00  0.00     0.325 A
ATOM     15  H2  UNL     1      -6.940  74.905  17.609  1.00  0.00     0.172 HD
HETATM   16  O1  UNL     1      -5.050  76.293  16.835  1.00  0.00    -0.247 OA
HETATM   17  N3  UNL     1      -4.660  76.759  19.024  1.00  0.00    -0.318 N
HETATM   18  C3  UNL     1      -4.991  76.606  20.339  1.00  0.00     0.105 A
ATOM     19  H3  UNL     1      -3.867  77.348  18.773  1.00  0.00     0.170 HD
BRANCH  12  20
HETATM   20  N1  UNL     1      -7.760  74.450  19.884  1.00  0.00    -0.385 N
ATOM     21  H12 UNL     1      -8.688  74.848  20.027  1.00  0.00     0.157 HD
ATOM     22  H11 UNL     1      -7.585  73.446  19.924  1.00  0.00     0.157 HD
ENDBRANCH  12  20
ENDBRANCH  10  11
ENDBRANCH   1  10
BRANCH   7  23
HETATM   23  N7  UNL     1      -4.133  77.451  25.696  1.00  0.00    -0.385 N
ATOM     24  H7  UNL     1      -4.456  77.539  26.659  1.00  0.00     0.159 HD
BRANCH  23  25
HETATM   25  C9  UNL     1      -2.745  77.191  25.496  1.00  0.00     0.122 C
BRANCH  25  26
HETATM   26  C10 UNL     1      -2.173  78.269  24.581  1.00  0.00     0.045 C
BRANCH  26  27
HETATM   27  C11 UNL     1      -0.696  78.501  24.909  1.00  0.00     0.165 C
BRANCH  27  28
HETATM   28  O2  UNL     1      -0.351  77.710  25.978  1.00  0.00    -0.401 OA
ATOM     29  H2  UNL     1       0.545  77.416  25.865  1.00  0.00     0.209 HD
ENDBRANCH  27  28
ENDBRANCH  26  27
ENDBRANCH  25  26
ENDBRANCH  23  25
ENDBRANCH   7  23
TORSDOF 8
ENDMDL