MODEL 5
REMARK VINA RESULT: -8.321956796      1.179      1.545
REMARK  5 active torsions:
REMARK  status: ('A' for Active; 'I' for Inactive)
REMARK    1  A    between atoms: C2_3  and  C3_4
REMARK    2  A    between atoms: C3_4  and  N2_5
REMARK    3  A    between atoms: N2_5  and  N3_6
REMARK       I    between atoms: N3_6  and  C4_8
REMARK    4  A    between atoms: C4_8  and  C5_10
REMARK    5  A    between atoms: C5_10  and  N4_11
ROOT
HETATM    1  N1  UNL     1      -0.356  82.385  24.757  1.00  0.00    -0.197 NA
HETATM    2  C1  UNL     1       0.186  81.361  24.759  1.00  0.00     0.060 C
HETATM    3  C2  UNL     1       0.861  80.047  24.782  1.00  0.00     0.141 C
ENDROOT
BRANCH   3   4
HETATM    4  C3  UNL     1       0.094  79.182  23.780  1.00  0.00     0.149 C
BRANCH   4   5
HETATM    5  N2  UNL     1      -0.429  77.965  24.417  1.00  0.00    -0.138 NA
BRANCH   5   6
HETATM    6  N3  UNL     1      -1.727  78.281  24.816  1.00  0.00    -0.273 N
HETATM    7  C4  UNL     1      -2.521  77.401  25.602  1.00  0.00     0.251 C
HETATM    8  O1  UNL     1      -2.035  76.295  25.956  1.00  0.00    -0.270 OA
ATOM      9  H3  UNL     1      -2.123  79.177  24.532  1.00  0.00     0.185 HD
BRANCH   7  10
HETATM   10  C5  UNL     1      -3.891  77.784  25.993  1.00  0.00     0.239 C
BRANCH  10  11
HETATM   11  N4  UNL     1      -4.832  77.727  24.894  1.00  0.00    -0.274 N
HETATM   12  C6  UNL     1      -5.811  78.606  24.626  1.00  0.00     0.329 A
HETATM   13  O2  UNL     1      -6.135  79.645  25.253  1.00  0.00    -0.246 OA
HETATM   14  N5  UNL     1      -6.466  78.218  23.516  1.00  0.00    -0.300 N
HETATM   15  C7  UNL     1      -5.910  77.066  23.046  1.00  0.00     0.150 A
ATOM     16  H5  UNL     1      -7.255  78.709  23.092  1.00  0.00     0.171 HD
HETATM   17  C8  UNL     1      -6.188  76.260  21.956  1.00  0.00     0.290 A
HETATM   18  C10 UNL     1      -4.890  76.781  23.927  1.00  0.00     0.160 A
HETATM   19  O3  UNL     1      -7.131  76.559  21.174  1.00  0.00    -0.265 OA
HETATM   20  N6  UNL     1      -5.451  75.156  21.730  1.00  0.00    -0.154 N
HETATM   21  C9  UNL     1      -4.453  74.892  22.607  1.00  0.00     0.680 A
ATOM     22  H6  UNL     1      -5.636  74.545  20.934  1.00  0.00     0.187 HD
HETATM   23  N7  UNL     1      -3.740  73.830  22.400  1.00  0.00    -0.234 N
HETATM   24  N8  UNL     1      -4.170  75.661  23.667  1.00  0.00    -0.174 N
ATOM     25  H72 UNL     1      -3.955  73.245  21.592  1.00  0.00     0.174 HD
ATOM     26  H71 UNL     1      -2.988  73.632  23.060  1.00  0.00     0.174 HD
ATOM     27  H8  UNL     1      -3.403  75.401  24.286  1.00  0.00     0.186 HD
ENDBRANCH  10  11
ENDBRANCH   7  10
ENDBRANCH   5   6
ENDBRANCH   4   5
ENDBRANCH   3   4
TORSDOF 5
ENDMDL