MODEL 3
REMARK VINA RESULT: -7.220849465      1.448      2.958
REMARK  7 active torsions:
REMARK  status: ('A' for Active; 'I' for Inactive)
REMARK    1  A    between atoms: S1_2  and  N1_5
REMARK    2  A    between atoms: N1_5  and  N2_7
REMARK    3  A    between atoms: N2_7  and  C2_9
REMARK    4  A    between atoms: C2_9  and  C3_10
REMARK    5  A    between atoms: C3_10  and  N3_11
REMARK    6  A    between atoms: N3_11  and  C4_13
REMARK    7  A    between atoms: C5_16  and  N5_17
ROOT
HETATM    1  C4  UNL     1      -5.321  76.416  20.709  1.00  0.00     0.147 A
HETATM    2  N4  UNL     1      -4.617  76.830  19.647  1.00  0.00    -0.175 N
ATOM      3  H4  UNL     1      -3.800  77.428  19.769  1.00  0.00     0.186 HD
HETATM    4  C5  UNL     1      -5.008  76.439  18.402  1.00  0.00     0.679 A
HETATM    5  N6  UNL     1      -6.088  75.647  18.247  1.00  0.00    -0.174 N
ATOM      6  H6  UNL     1      -6.362  75.366  17.305  1.00  0.00     0.186 HD
HETATM    7  C6  UNL     1      -6.819  75.213  19.294  1.00  0.00     0.152 A
HETATM    8  N7  UNL     1      -7.912  74.439  19.448  1.00  0.00    -0.336 N
ATOM      9  H7  UNL     1      -8.435  73.995  18.693  1.00  0.00     0.168 HD
HETATM   10  C7  UNL     1      -8.200  74.347  20.760  1.00  0.00     0.182 A
HETATM   11  N8  UNL     1      -7.300  75.056  21.454  1.00  0.00    -0.346 N
ATOM     12  H8  UNL     1      -7.267  75.167  22.467  1.00  0.00     0.167 HD
HETATM   13  C8  UNL     1      -6.443  75.594  20.563  1.00  0.00     0.123 A
ENDROOT
BRANCH   1  14
HETATM   14  N3  UNL     1      -4.966  76.776  21.887  1.00  0.00    -0.372 N
ATOM     15  H3  UNL     1      -4.379  76.148  22.437  1.00  0.00     0.161 HD
BRANCH  14  16
HETATM   16  C3  UNL     1      -5.361  78.022  22.456  1.00  0.00     0.142 C
BRANCH  16  17
HETATM   17  C2  UNL     1      -6.066  77.750  23.792  1.00  0.00     0.159 C
BRANCH  17  18
HETATM   18  N2  UNL     1      -5.285  76.787  24.488  1.00  0.00    -0.326 N
ATOM     19  H2  UNL     1      -5.363  75.789  24.292  1.00  0.00     0.180 HD
BRANCH  18  20
HETATM   20  N1  UNL     1      -4.423  77.271  25.431  1.00  0.00    -0.232 N
ATOM     21  H1  UNL     1      -4.743  77.783  26.253  1.00  0.00     0.199 HD
BRANCH  20  22
HETATM   22  S1  UNL     1      -2.772  76.959  25.136  1.00  0.00     0.239 S
HETATM   23  C1  UNL     1      -1.920  78.386  24.488  1.00  0.00     0.187 C
HETATM   24  O1  UNL     1      -2.054  76.382  26.314  1.00  0.00    -0.205 OA
HETATM   25  O2  UNL     1      -2.705  75.903  24.040  1.00  0.00    -0.205 OA
ENDBRANCH  20  22
ENDBRANCH  18  20
ENDBRANCH  17  18
ENDBRANCH  16  17
ENDBRANCH  14  16
ENDBRANCH   1  14
BRANCH   4  26
HETATM   26  N5  UNL     1      -4.298  76.862  17.402  1.00  0.00    -0.234 N
ATOM     27  H52 UNL     1      -4.028  77.840  17.292  1.00  0.00     0.174 HD
ATOM     28  H51 UNL     1      -4.011  76.168  16.713  1.00  0.00     0.174 HD
ENDBRANCH   4  26
TORSDOF 7
ENDMDL