MODEL 4
REMARK VINA RESULT: -6.781789297      4.311      6.132
REMARK  9 active torsions:
REMARK  status: ('A' for Active; 'I' for Inactive)
REMARK    1  A    between atoms: N1_1  and  C1_4
REMARK    2  A    between atoms: C2_7  and  N3_8
REMARK    3  A    between atoms: N3_8  and  C3_10
REMARK    4  A    between atoms: C3_10  and  C4_11
REMARK    5  A    between atoms: C4_11  and  O1_12
REMARK    6  A    between atoms: C5_16  and  N5_17
REMARK    7  A    between atoms: N5_17  and  C6_19
REMARK    8  A    between atoms: C6_19  and  C7_20
REMARK    9  A    between atoms: C7_20  and  N6_21
ROOT
HETATM    1  C1  UNL     1      -6.247  74.714  22.876  1.00  0.00     0.705 A
HETATM    2  N2  UNL     1      -6.062  75.134  21.622  1.00  0.00    -0.022 N
ATOM      3  H2  UNL     1      -6.808  75.007  20.938  1.00  0.00     0.203 HD
HETATM    4  C2  UNL     1      -4.900  75.728  21.236  1.00  0.00     0.707 A
HETATM    5  N4  UNL     1      -3.920  75.891  22.148  1.00  0.00    -0.022 N
ATOM      6  H4  UNL     1      -3.044  76.334  21.872  1.00  0.00     0.203 HD
HETATM    7  C5  UNL     1      -4.082  75.481  23.404  1.00  0.00     0.707 A
HETATM    8  N8  UNL     1      -5.249  74.893  23.759  1.00  0.00    -0.022 N
ATOM      9  H8  UNL     1      -5.374  74.579  24.721  1.00  0.00     0.203 HD
ENDROOT
BRANCH   7  10
HETATM   10  N5  UNL     1      -3.178  75.619  24.277  1.00  0.00    -0.223 N
ATOM     11  H5  UNL     1      -2.802  74.782  24.724  1.00  0.00     0.177 HD
BRANCH  10  12
HETATM   12  C6  UNL     1      -2.659  76.891  24.666  1.00  0.00     0.168 C
BRANCH  12  13
HETATM   13  C7  UNL     1      -3.566  77.540  25.657  1.00  0.00     0.292 C
BRANCH  13  14
HETATM   14  N6  UNL     1      -4.076  78.794  25.125  1.00  0.00     0.093 N
HETATM   15  C8  UNL     1      -5.469  78.485  24.727  1.00  0.00     0.300 C
HETATM   16  C9  UNL     1      -6.076  79.847  24.371  1.00  0.00     0.262 C
HETATM   17  N7  UNL     1      -5.397  80.284  23.168  1.00  0.00    -0.072 N
HETATM   18  C10 UNL     1      -3.993  80.491  23.450  1.00  0.00     0.262 C
ATOM     19  H72 UNL     1      -5.542  79.641  22.389  1.00  0.00     0.277 HD
ATOM     20  H71 UNL     1      -5.833  81.111  22.759  1.00  0.00     0.277 HD
HETATM   21  C11 UNL     1      -3.413  79.152  23.882  1.00  0.00     0.300 C
ENDBRANCH  13  14
ENDBRANCH  12  13
ENDBRANCH  10  12
ENDBRANCH   7  10
BRANCH   4  22
HETATM   22  N3  UNL     1      -4.759  76.119  20.032  1.00  0.00    -0.223 N
ATOM     23  H3  UNL     1      -3.911  76.638  19.805  1.00  0.00     0.177 HD
BRANCH  22  24
HETATM   24  C3  UNL     1      -5.691  75.891  18.973  1.00  0.00     0.164 C
BRANCH  24  25
HETATM   25  C4  UNL     1      -5.022  76.003  17.603  1.00  0.00     0.184 C
BRANCH  25  26
HETATM   26  O1  UNL     1      -4.392  77.248  17.475  1.00  0.00    -0.399 OA
ATOM     27  H1  UNL     1      -4.504  77.581  16.592  1.00  0.00     0.209 HD
ENDBRANCH  25  26
ENDBRANCH  24  25
ENDBRANCH  22  24
ENDBRANCH   4  22
BRANCH   1  28
HETATM   28  N1  UNL     1      -7.376  74.159  23.168  1.00  0.00    -0.234 N
ATOM     29  H12 UNL     1      -7.653  73.899  24.115  1.00  0.00     0.174 HD
ATOM     30  H11 UNL     1      -8.027  73.969  22.406  1.00  0.00     0.174 HD
ENDBRANCH   1  28
TORSDOF 9
ENDMDL