MODEL 3
REMARK VINA RESULT: -7.577601302      1.933      7.588
REMARK  8 active torsions:
REMARK  status: ('A' for Active; 'I' for Inactive)
REMARK    1  A    between atoms: N1_2  and  C2_4
REMARK    2  A    between atoms: C3_7  and  N3_8
REMARK    3  A    between atoms: C4_13  and  N5_14
REMARK    4  A    between atoms: N5_14  and  C5_16
REMARK    5  A    between atoms: C5_16  and  C6_17
REMARK    6  A    between atoms: C6_17  and  C7_18
REMARK    7  A    between atoms: C7_18  and  C8_19
REMARK    8  A    between atoms: C10_23  and  N7_24
ROOT
HETATM    1  N7  UNL     1      -6.725  75.187  22.248  1.00  0.00    -0.265 N
ATOM      2  H7  UNL     1      -7.545  74.924  22.794  1.00  0.00     0.181 HD
HETATM    3  C11 UNL     1      -6.857  75.688  20.952  1.00  0.00     0.184 C
HETATM    4  N8  UNL     1      -6.979  76.101  19.862  1.00  0.00    -0.172 NA
ENDROOT
BRANCH   1   5
HETATM    5  C10 UNL     1      -5.411  75.051  22.787  1.00  0.00     0.184 C
HETATM    6  N6  UNL     1      -4.413  74.329  22.343  1.00  0.00    -0.360 N
HETATM    7  C9  UNL     1      -3.256  74.510  23.234  1.00  0.00     0.147 C
ATOM      8  H6  UNL     1      -4.433  73.736  21.513  1.00  0.00     0.162 HD
HETATM    9  C8  UNL     1      -3.549  75.969  23.705  1.00  0.00     0.102 C
HETATM   10  N9  UNL     1      -4.979  75.735  23.971  1.00  0.00    -0.355 N
ATOM     11  H9  UNL     1      -5.526  75.995  24.793  1.00  0.00     0.163 HD
BRANCH   9  12
HETATM   12  C7  UNL     1      -2.756  76.289  24.913  1.00  0.00     0.028 C
BRANCH  12  13
HETATM   13  C6  UNL     1      -2.517  77.734  25.086  1.00  0.00     0.022 C
BRANCH  13  14
HETATM   14  C5  UNL     1      -1.103  78.217  25.101  1.00  0.00     0.138 C
BRANCH  14  15
HETATM   15  N5  UNL     1      -0.782  78.765  23.772  1.00  0.00    -0.225 N
ATOM     16  H5  UNL     1      -1.535  79.201  23.239  1.00  0.00     0.177 HD
BRANCH  15  17
HETATM   17  C4  UNL     1       0.376  78.727  23.250  1.00  0.00     0.707 A
HETATM   18  N4  UNL     1       1.330  77.959  23.778  1.00  0.00    -0.022 N
HETATM   19  C3  UNL     1       2.551  77.930  23.214  1.00  0.00     0.705 A
ATOM     20  H4  UNL     1       1.134  77.396  24.607  1.00  0.00     0.203 HD
HETATM   21  N2  UNL     1       2.823  78.656  22.136  1.00  0.00    -0.022 N
HETATM   22  C2  UNL     1       1.889  79.449  21.567  1.00  0.00     0.706 A
ATOM     23  H2  UNL     1       3.757  78.614  21.729  1.00  0.00     0.203 HD
HETATM   24  N10 UNL     1       0.690  79.457  22.147  1.00  0.00    -0.022 N
ATOM     25  H10 UNL     1      -0.035  80.046  21.740  1.00  0.00     0.203 HD
BRANCH  19  26
HETATM   26  N3  UNL     1       3.514  77.199  23.688  1.00  0.00    -0.234 N
ATOM     27  H32 UNL     1       4.428  77.145  23.236  1.00  0.00     0.174 HD
ATOM     28  H31 UNL     1       3.319  76.675  24.540  1.00  0.00     0.174 HD
ENDBRANCH  19  26
BRANCH  22  29
HETATM   29  N1  UNL     1       2.207  80.122  20.537  1.00  0.00    -0.229 N
HETATM   30  C1  UNL     1       1.433  80.232  19.338  1.00  0.00     0.165 C
ATOM     31  H1  UNL     1       3.092  80.628  20.567  1.00  0.00     0.177 HD
ENDBRANCH  22  29
ENDBRANCH  15  17
ENDBRANCH  14  15
ENDBRANCH  13  14
ENDBRANCH  12  13
ENDBRANCH   9  12
ENDBRANCH   1   5
TORSDOF 8
ENDMDL