MODEL 3
REMARK VINA RESULT: -6.504805073      1.403      2.312
REMARK  4 active torsions:
REMARK  status: ('A' for Active; 'I' for Inactive)
REMARK    1  A    between atoms: C2_2  and  N1_4
REMARK    2  A    between atoms: N1_4  and  N2_6
REMARK    3  A    between atoms: C4_8  and  C5_9
REMARK    4  A    between atoms: C9_13  and  C10_14
ROOT
HETATM    1  C5  UNL     1      -5.465  76.974  23.191  1.00  0.00    -0.018 A
HETATM    2  C6  UNL     1      -6.180  78.142  23.357  1.00  0.00     0.013 A
HETATM    3  C7  UNL     1      -5.626  79.147  24.121  1.00  0.00     0.002 A
HETATM    4  C8  UNL     1      -4.386  78.972  24.697  1.00  0.00     0.015 A
HETATM    5  C9  UNL     1      -3.642  77.792  24.540  1.00  0.00     0.005 A
HETATM    6  C11 UNL     1      -4.201  76.797  23.779  1.00  0.00     0.027 A
ENDROOT
BRANCH   1   7
HETATM    7  C4  UNL     1      -6.052  75.916  22.386  1.00  0.00     0.118 C
HETATM    8  N2  UNL     1      -7.236  76.077  21.912  1.00  0.00    -0.315 N
ATOM      9  H2  UNL     1      -7.768  76.929  22.090  1.00  0.00     0.185 HD
BRANCH   8  10
HETATM   10  N1  UNL     1      -7.766  75.036  21.142  1.00  0.00    -0.333 N
ATOM     11  H1  UNL     1      -8.015  74.140  21.560  1.00  0.00     0.180 HD
BRANCH  10  12
HETATM   12  C2  UNL     1      -7.946  75.281  19.733  1.00  0.00     0.091 C
HETATM   13  C1  UNL     1      -8.095  76.735  19.437  1.00  0.00     0.033 C
HETATM   14  C3  UNL     1      -6.877  74.601  18.916  1.00  0.00     0.033 C
ENDBRANCH  10  12
ENDBRANCH   8  10
ENDBRANCH   1   7
BRANCH   5  15
HETATM   15  C10 UNL     1      -2.347  77.648  25.160  1.00  0.00     0.120 C
HETATM   16  N3  UNL     1      -1.415  78.478  24.950  1.00  0.00    -0.387 N
ATOM     17  H32 UNL     1      -1.580  79.270  24.329  1.00  0.00     0.157 HD
ATOM     18  H31 UNL     1      -0.499  78.377  25.387  1.00  0.00     0.157 HD
HETATM   19  N4  UNL     1      -2.116  76.545  26.024  1.00  0.00    -0.082 NA
ENDBRANCH   5  15
TORSDOF 4
ENDMDL