MODEL 1
REMARK VINA RESULT: -6.977047373      0.000      0.000
REMARK  5 active torsions:
REMARK  status: ('A' for Active; 'I' for Inactive)
REMARK    1  A    between atoms: C6_6  and  C7_7
REMARK    2  A    between atoms: N1_8  and  N2_10
REMARK       I    between atoms: N2_10  and  C8_12
REMARK    3  A    between atoms: C8_12  and  C9_14
REMARK    4  A    between atoms: C9_14  and  N3_15
REMARK    5  A    between atoms: C9_14  and  C10_19
ROOT
HETATM    1  N2  UNL     1      -3.746  77.081  23.495  1.00  0.00    -0.268 N
ATOM      2  H2  UNL     1      -4.580  77.457  23.042  1.00  0.00     0.190 HD
HETATM    3  C8  UNL     1      -3.582  75.681  23.620  1.00  0.00     0.271 C
HETATM    4  O1  UNL     1      -2.575  75.158  24.167  1.00  0.00    -0.269 OA
ENDROOT
BRANCH   1   5
HETATM    5  N1  UNL     1      -2.777  77.947  23.986  1.00  0.00    -0.308 N
HETATM    6  C7  UNL     1      -2.552  79.035  23.349  1.00  0.00     0.118 C
ATOM      7  H1  UNL     1      -2.258  77.722  24.834  1.00  0.00     0.186 HD
BRANCH   6   8
HETATM    8  C6  UNL     1      -1.537  79.942  23.864  1.00  0.00    -0.019 A
HETATM    9  C5  UNL     1      -0.405  79.464  24.487  1.00  0.00     0.013 A
HETATM   10  C4  UNL     1       0.553  80.313  24.973  1.00  0.00     0.001 A
HETATM   11  C3  UNL     1       0.392  81.693  24.842  1.00  0.00     0.007 A
HETATM   12  C2  UNL     1      -0.730  82.207  24.224  1.00  0.00    -0.061 A
HETATM   13  C1  UNL     1      -0.877  83.685  24.097  1.00  0.00     0.048 C
HETATM   14  C11 UNL     1      -1.656  81.317  23.756  1.00  0.00     0.019 A
ENDBRANCH   6   8
ENDBRANCH   1   5
BRANCH   3  15
HETATM   15  C9  UNL     1      -4.634  74.783  23.085  1.00  0.00     0.314 C
BRANCH  15  16
HETATM   16  N3  UNL     1      -4.157  74.099  21.913  1.00  0.00    -0.062 N
ATOM     17  H33 UNL     1      -3.155  74.229  21.778  1.00  0.00     0.275 HD
ATOM     18  H32 UNL     1      -4.163  73.087  22.034  1.00  0.00     0.275 HD
ATOM     19  H31 UNL     1      -4.692  74.388  21.093  1.00  0.00     0.275 HD
ENDBRANCH  15  16
BRANCH  15  20
HETATM   20  C10 UNL     1      -5.860  75.558  22.845  1.00  0.00     0.095 C
HETATM   21  N4  UNL     1      -7.004  75.016  23.019  1.00  0.00    -0.409 N
ATOM     22  H42 UNL     1      -7.049  74.044  23.324  1.00  0.00     0.155 HD
ATOM     23  H41 UNL     1      -7.854  75.553  22.852  1.00  0.00     0.155 HD
ENDBRANCH  15  20
ENDBRANCH   3  15
TORSDOF 5
ENDMDL