MODEL 3
REMARK VINA RESULT: -7.165804341      1.160      1.276
REMARK  5 active torsions:
REMARK  status: ('A' for Active; 'I' for Inactive)
REMARK    1  A    between atoms: C3_4  and  C4_5
REMARK    2  A    between atoms: C4_5  and  N2_6
REMARK    3  A    between atoms: C4_5  and  N3_10
REMARK    4  A    between atoms: N3_10  and  C5_12
REMARK    5  A    between atoms: C9_16  and  C10_17
ROOT
HETATM    1  N1  UNL     1      -1.318  77.503  25.640  1.00  0.00    -0.192 NA
HETATM    2  C1  UNL     1      -2.287  77.204  25.046  1.00  0.00     0.087 C
HETATM    3  C2  UNL     1      -3.456  76.827  24.317  1.00  0.00     0.093 C
HETATM    4  C3  UNL     1      -3.517  75.632  23.772  1.00  0.00     0.037 C
ENDROOT
BRANCH   4   5
HETATM    5  C4  UNL     1      -4.698  75.158  22.996  1.00  0.00     0.306 C
BRANCH   5   6
HETATM    6  N2  UNL     1      -5.053  73.797  23.406  1.00  0.00    -0.055 N
ATOM      7  H23 UNL     1      -6.051  73.615  23.304  1.00  0.00     0.277 HD
ATOM      8  H22 UNL     1      -4.705  73.097  22.751  1.00  0.00     0.277 HD
ATOM      9  H21 UNL     1      -4.728  73.625  24.358  1.00  0.00     0.277 HD
ENDBRANCH   5   6
BRANCH   5  10
HETATM   10  N3  UNL     1      -5.853  75.975  23.222  1.00  0.00    -0.360 N
ATOM     11  H3  UNL     1      -6.086  76.262  24.173  1.00  0.00     0.162 HD
BRANCH  10  12
HETATM   12  C5  UNL     1      -6.670  76.388  22.158  1.00  0.00     0.030 A
HETATM   13  C6  UNL     1      -6.872  75.668  21.007  1.00  0.00     0.029 A
HETATM   14  C7  UNL     1      -7.688  76.112  19.993  1.00  0.00     0.003 A
HETATM   15  C8  UNL     1      -8.333  77.312  20.107  1.00  0.00     0.015 A
HETATM   16  C9  UNL     1      -8.167  78.078  21.244  1.00  0.00     0.007 A
HETATM   17  C11 UNL     1      -7.353  77.611  22.232  1.00  0.00     0.044 A
BRANCH  16  18
HETATM   18  C10 UNL     1      -8.850  79.355  21.372  1.00  0.00     0.120 C
HETATM   19  N4  UNL     1      -8.259  80.344  21.943  1.00  0.00    -0.387 N
ATOM     20  H42 UNL     1      -7.311  80.199  22.293  1.00  0.00     0.157 HD
ATOM     21  H41 UNL     1      -8.738  81.240  22.034  1.00  0.00     0.157 HD
HETATM   22  N5  UNL     1     -10.163  79.557  20.887  1.00  0.00    -0.082 NA
ENDBRANCH  16  18
ENDBRANCH  10  12
ENDBRANCH   5  10
ENDBRANCH   4   5
TORSDOF 5
ENDMDL