MODEL 5
REMARK VINA RESULT: -5.953425768      1.409      1.458
REMARK  4 active torsions:
REMARK  status: ('A' for Active; 'I' for Inactive)
REMARK    1  A    between atoms: C2_2  and  C4_4
REMARK    2  A    between atoms: C6_8  and  C7_9
REMARK    3  A    between atoms: C7_9  and  N2_10
REMARK    4  A    between atoms: C7_9  and  C8_14
ROOT
HETATM    1  C4  UNL     1      -5.988  79.156  21.942  1.00  0.00     0.034 A
HETATM    2  N1  UNL     1      -6.297  78.518  20.815  1.00  0.00    -0.367 N
ATOM      3  H1  UNL     1      -6.495  78.976  19.925  1.00  0.00     0.165 HD
HETATM    4  C5  UNL     1      -6.311  77.201  21.005  1.00  0.00     0.099 A
HETATM    5  C6  UNL     1      -5.992  76.944  22.337  1.00  0.00     0.017 A
HETATM    6  C9  UNL     1      -5.794  78.178  22.912  1.00  0.00     0.077 A
HETATM    7  C10 UNL     1      -5.463  78.482  24.284  1.00  0.00     0.102 C
HETATM    8  N5  UNL     1      -5.205  78.709  25.391  1.00  0.00    -0.191 NA
ENDROOT
BRANCH   1   9
HETATM    9  C2  UNL     1      -5.874  80.614  22.138  1.00  0.00     0.029 C
HETATM   10  C1  UNL     1      -5.097  81.208  20.958  1.00  0.00     0.016 C
HETATM   11  C3  UNL     1      -7.227  81.299  22.122  1.00  0.00     0.016 C
ENDBRANCH   1   9
BRANCH   5  12
HETATM   12  C7  UNL     1      -5.869  75.628  22.979  1.00  0.00     0.283 C
BRANCH  12  13
HETATM   13  N2  UNL     1      -7.040  74.798  22.758  1.00  0.00    -0.064 N
ATOM     14  H23 UNL     1      -7.498  75.033  21.878  1.00  0.00     0.275 HD
ATOM     15  H22 UNL     1      -6.776  73.835  22.550  1.00  0.00     0.275 HD
ATOM     16  H21 UNL     1      -7.695  74.840  23.539  1.00  0.00     0.275 HD
ENDBRANCH  12  13
BRANCH  12  17
HETATM   17  C8  UNL     1      -4.635  74.888  22.678  1.00  0.00     0.122 C
HETATM   18  N3  UNL     1      -4.474  74.145  21.633  1.00  0.00    -0.389 N
ATOM     19  H32 UNL     1      -5.221  74.075  20.942  1.00  0.00     0.157 HD
ATOM     20  H31 UNL     1      -3.618  73.633  21.423  1.00  0.00     0.157 HD
HETATM   21  N4  UNL     1      -3.585  74.986  23.649  1.00  0.00    -0.086 NA
ENDBRANCH  12  17
ENDBRANCH   5  12
TORSDOF 4
ENDMDL