MODEL 5
REMARK VINA RESULT: -6.219844958      3.698      6.259
REMARK  6 active torsions:
REMARK  status: ('A' for Active; 'I' for Inactive)
REMARK    1  A    between atoms: C2_2  and  C3_3
REMARK    2  A    between atoms: C3_3  and  N2_7
REMARK    3  A    between atoms: N2_7  and  C4_9
REMARK    4  A    between atoms: C7_12  and  C8_13
REMARK    5  A    between atoms: C8_13  and  N4_17
REMARK    6  A    between atoms: N4_17  and  O1_19
ROOT
HETATM    1  C4  UNL     1      -5.850  76.085  21.587  1.00  0.00     0.033 A
HETATM    2  C5  UNL     1      -6.812  76.121  20.619  1.00  0.00     0.030 A
HETATM    3  C6  UNL     1      -7.753  77.151  20.636  1.00  0.00     0.017 A
HETATM    4  C7  UNL     1      -7.774  78.148  21.581  1.00  0.00     0.009 A
HETATM    5  C10 UNL     1      -6.777  78.088  22.561  1.00  0.00     0.017 A
HETATM    6  C11 UNL     1      -5.848  77.077  22.550  1.00  0.00     0.030 A
ENDROOT
BRANCH   1   7
HETATM    7  N2  UNL     1      -4.872  75.069  21.623  1.00  0.00    -0.343 N
ATOM      8  H2  UNL     1      -4.439  74.741  20.759  1.00  0.00     0.167 HD
BRANCH   7   9
HETATM    9  C3  UNL     1      -4.491  74.502  22.884  1.00  0.00     0.098 C
HETATM   10  N1  UNL     1      -5.353  73.800  23.488  1.00  0.00    -0.386 N
ATOM     11  H12 UNL     1      -5.082  73.397  24.385  1.00  0.00     0.157 HD
ATOM     12  H11 UNL     1      -6.287  73.629  23.117  1.00  0.00     0.157 HD
BRANCH   9  13
HETATM   13  C2  UNL     1      -3.173  74.743  23.408  1.00  0.00     0.038 C
HETATM   14  C1  UNL     1      -2.868  75.840  24.059  1.00  0.00     0.015 C
ENDBRANCH   9  13
ENDBRANCH   7   9
ENDBRANCH   1   7
BRANCH   4  15
HETATM   15  C8  UNL     1      -8.759  79.218  21.592  1.00  0.00     0.129 C
HETATM   16  N3  UNL     1      -8.425  80.429  21.380  1.00  0.00    -0.383 N
ATOM     17  H32 UNL     1      -7.440  80.626  21.202  1.00  0.00     0.157 HD
ATOM     18  H31 UNL     1      -9.116  81.180  21.388  1.00  0.00     0.157 HD
BRANCH  15  19
HETATM   19  N4  UNL     1     -10.143  78.943  21.843  1.00  0.00    -0.251 N
ATOM     20  H4  UNL     1     -10.575  78.139  21.390  1.00  0.00     0.196 HD
BRANCH  19  21
HETATM   21  O1  UNL     1     -10.897  79.712  22.659  1.00  0.00    -0.284 OA
HETATM   22  C9  UNL     1     -12.011  80.237  21.981  1.00  0.00     0.237 C
ENDBRANCH  19  21
ENDBRANCH  15  19
ENDBRANCH   4  15
TORSDOF 6
ENDMDL