MODEL 1
REMARK VINA RESULT: -6.800872594      0.000      0.000
REMARK  4 active torsions:
REMARK  status: ('A' for Active; 'I' for Inactive)
REMARK    1  A    between atoms: C2_2  and  O1_4
REMARK    2  A    between atoms: O1_4  and  C4_5
REMARK    3  A    between atoms: C9_10  and  N1_11
REMARK    4  A    between atoms: N1_11  and  N2_13
REMARK       I    between atoms: N2_13  and  C10_15
ROOT
HETATM    1  C4  UNL     1      -6.040  77.182  21.985  1.00  0.00     0.097 A
HETATM    2  C5  UNL     1      -5.914  78.484  21.415  1.00  0.00     0.039 A
HETATM    3  C6  UNL     1      -5.596  79.554  22.193  1.00  0.00     0.003 A
HETATM    4  C7  UNL     1      -5.382  79.418  23.553  1.00  0.00     0.002 A
HETATM    5  C8  UNL     1      -5.506  78.155  24.090  1.00  0.00     0.034 A
HETATM    6  C9  UNL     1      -5.831  77.028  23.332  1.00  0.00     0.081 A
ENDROOT
BRANCH   6   7
HETATM    7  N1  UNL     1      -5.914  75.777  23.979  1.00  0.00    -0.296 N
ATOM      8  H1  UNL     1      -6.303  75.734  24.921  1.00  0.00     0.187 HD
BRANCH   7   9
HETATM    9  N2  UNL     1      -5.480  74.590  23.369  1.00  0.00    -0.273 N
HETATM   10  C10 UNL     1      -4.126  74.428  22.940  1.00  0.00     0.200 C
HETATM   11  N3  UNL     1      -3.838  74.043  21.738  1.00  0.00    -0.372 N
HETATM   12  N4  UNL     1      -3.089  74.703  23.853  1.00  0.00    -0.062 NA
ATOM     13  H32 UNL     1      -4.589  73.844  21.077  1.00  0.00     0.158 HD
ATOM     14  H31 UNL     1      -2.872  73.928  21.432  1.00  0.00     0.158 HD
ATOM     15  H2  UNL     1      -6.143  73.828  23.230  1.00  0.00     0.189 HD
ENDBRANCH   7   9
ENDBRANCH   6   7
BRANCH   1  16
HETATM   16  O1  UNL     1      -6.356  76.187  21.155  1.00  0.00    -0.344 OA
BRANCH  16  17
HETATM   17  C2  UNL     1      -7.363  75.661  20.439  1.00  0.00     0.120 C
HETATM   18  C1  UNL     1      -8.359  76.689  19.903  1.00  0.00     0.040 C
HETATM   19  C3  UNL     1      -6.759  74.920  19.208  1.00  0.00     0.040 C
ENDBRANCH  16  17
ENDBRANCH   1  16
TORSDOF 4
ENDMDL