MODEL 4
REMARK VINA RESULT: -6.128761780      4.520      6.265
REMARK  3 active torsions:
REMARK  status: ('A' for Active; 'I' for Inactive)
REMARK    1  A    between atoms: O1_2  and  C2_3
REMARK    2  A    between atoms: C5_6  and  C6_7
REMARK    3  A    between atoms: C8_13  and  N3_14
REMARK       I    between atoms: N3_14  and  C9_16
ROOT
HETATM    1  C2  UNL     1      -6.086  79.178  23.433  1.00  0.00     0.095 A
HETATM    2  C3  UNL     1      -5.069  79.594  24.243  1.00  0.00     0.040 A
HETATM    3  C4  UNL     1      -4.081  78.669  24.569  1.00  0.00     0.018 A
HETATM    4  C5  UNL     1      -4.111  77.378  24.102  1.00  0.00     0.007 A
HETATM    5  C7  UNL     1      -5.188  77.024  23.273  1.00  0.00     0.047 A
HETATM    6  C8  UNL     1      -6.191  77.882  22.915  1.00  0.00     0.069 A
ENDROOT
BRANCH   4   7
HETATM    7  C6  UNL     1      -3.094  76.394  24.427  1.00  0.00     0.120 C
HETATM    8  N1  UNL     1      -2.897  75.386  23.681  1.00  0.00    -0.387 N
ATOM      9  H12 UNL     1      -3.460  75.261  22.839  1.00  0.00     0.157 HD
ATOM     10  H11 UNL     1      -2.183  74.696  23.910  1.00  0.00     0.157 HD
HETATM   11  N2  UNL     1      -2.315  76.568  25.594  1.00  0.00    -0.082 NA
ENDBRANCH   4   7
BRANCH   6  12
HETATM   12  N3  UNL     1      -7.262  77.532  22.092  1.00  0.00    -0.325 N
HETATM   13  C9  UNL     1      -7.322  77.449  20.704  1.00  0.00     0.218 C
HETATM   14  C10 UNL     1      -8.612  77.043  20.047  1.00  0.00     0.117 C
HETATM   15  O2  UNL     1      -6.389  77.682  19.899  1.00  0.00    -0.274 OA
ATOM     16  H3  UNL     1      -8.128  77.304  22.579  1.00  0.00     0.169 HD
ENDBRANCH   6  12
BRANCH   1  17
HETATM   17  O1  UNL     1      -7.068  80.082  23.103  1.00  0.00    -0.354 OA
HETATM   18  C1  UNL     1      -6.896  81.129  22.180  1.00  0.00     0.210 C
ENDBRANCH   1  17
TORSDOF 3
ENDMDL