MODEL 1
REMARK VINA RESULT: -7.207477835      0.000      0.000
REMARK  5 active torsions:
REMARK  status: ('A' for Active; 'I' for Inactive)
REMARK    1  A    between atoms: C2_2  and  N1_3
REMARK    2  A    between atoms: C2_2  and  C11_17
REMARK    3  A    between atoms: N1_3  and  C3_5
REMARK    4  A    between atoms: C3_5  and  C4_6
REMARK    5  A    between atoms: C3_5  and  C5_11
ROOT
HETATM    1  C3  UNL     1      -5.338  76.031  22.968  1.00  0.00     0.175 C
ENDROOT
BRANCH   1   2
HETATM    2  N1  UNL     1      -4.453  77.098  23.055  1.00  0.00    -0.396 N
ATOM      3  H1  UNL     1      -3.834  77.270  22.262  1.00  0.00     0.155 HD
BRANCH   2   4
HETATM    4  C2  UNL     1      -4.355  77.947  24.154  1.00  0.00     0.163 C
HETATM    5  C1  UNL     1      -4.074  79.376  23.903  1.00  0.00     0.041 C
BRANCH   4   6
HETATM    6  C11 UNL     1      -3.392  77.431  25.190  1.00  0.00     0.253 C
HETATM    7  N4  UNL     1      -2.168  76.810  24.867  1.00  0.00    -0.060 NA
HETATM    8  O1  UNL     1      -3.715  77.558  26.393  1.00  0.00    -0.275 OA
ENDBRANCH   4   6
ENDBRANCH   2   4
ENDBRANCH   1   2
BRANCH   1   9
HETATM    9  C4  UNL     1      -4.824  74.652  23.091  1.00  0.00     0.114 C
HETATM   10  N2  UNL     1      -5.562  73.659  23.500  1.00  0.00    -0.389 N
ATOM     11  H22 UNL     1      -6.528  73.866  23.753  1.00  0.00     0.157 HD
ATOM     12  H21 UNL     1      -5.207  72.706  23.585  1.00  0.00     0.157 HD
HETATM   13  N3  UNL     1      -3.489  74.366  22.741  1.00  0.00    -0.086 NA
ENDBRANCH   1   9
BRANCH   1  14
HETATM   14  C5  UNL     1      -6.043  76.047  21.630  1.00  0.00    -0.029 A
HETATM   15  C6  UNL     1      -7.189  76.808  21.420  1.00  0.00     0.009 A
HETATM   16  C7  UNL     1      -7.874  76.815  20.229  1.00  0.00     0.001 A
HETATM   17  C8  UNL     1      -7.402  76.027  19.177  1.00  0.00     0.000 A
HETATM   18  C9  UNL     1      -6.263  75.258  19.355  1.00  0.00     0.001 A
HETATM   19  C10 UNL     1      -5.618  75.288  20.568  1.00  0.00     0.009 A
ENDBRANCH   1  14
TORSDOF 5
ENDMDL