MODEL 3
REMARK VINA RESULT: -6.458122570      2.341      5.803
REMARK  4 active torsions:
REMARK  status: ('A' for Active; 'I' for Inactive)
REMARK    1  A    between atoms: N1_2  and  N2_3
REMARK    2  A    between atoms: N2_3  and  C2_5
REMARK    3  A    between atoms: C2_5  and  C4_7
REMARK       I    between atoms: C4_7  and  N3_9
REMARK    4  A    between atoms: N3_9  and  C5_11
ROOT
HETATM    1  C4  UNL     1      -4.988  77.732  24.265  1.00  0.00     0.245 C
HETATM    2  O1  UNL     1      -5.299  78.373  25.288  1.00  0.00    -0.271 OA
HETATM    3  N3  UNL     1      -3.731  77.747  23.644  1.00  0.00    -0.324 N
ATOM      4  H3  UNL     1      -3.646  77.163  22.812  1.00  0.00     0.169 HD
ENDROOT
BRANCH   3   5
HETATM    5  C5  UNL     1      -2.567  78.457  24.009  1.00  0.00     0.059 A
HETATM    6  C6  UNL     1      -2.187  79.632  23.419  1.00  0.00     0.031 A
HETATM    7  C7  UNL     1      -1.030  80.333  23.786  1.00  0.00     0.002 A
HETATM    8  C8  UNL     1      -0.271  79.777  24.792  1.00  0.00     0.002 A
HETATM    9  C9  UNL     1      -0.643  78.595  25.395  1.00  0.00     0.029 A
HETATM   10  C10 UNL     1      -1.773  77.916  25.032  1.00  0.00     0.073 A
HETATM   11  N4  UNL     1      -2.151  76.679  25.671  1.00  0.00    -0.100 NA
ENDBRANCH   3   5
BRANCH   1  12
HETATM   12  C2  UNL     1      -6.111  76.888  23.696  1.00  0.00     0.183 C
HETATM   13  C3  UNL     1      -6.311  77.391  22.265  1.00  0.00     0.043 C
BRANCH  12  14
HETATM   14  N2  UNL     1      -5.759  75.511  23.662  1.00  0.00    -0.327 N
ATOM     15  H2  UNL     1      -6.024  74.869  24.409  1.00  0.00     0.176 HD
BRANCH  14  16
HETATM   16  N1  UNL     1      -5.037  75.092  22.560  1.00  0.00    -0.150 NA
HETATM   17  C1  UNL     1      -3.934  74.257  22.986  1.00  0.00     0.158 C
ENDBRANCH  14  16
ENDBRANCH  12  14
ENDBRANCH   1  12
TORSDOF 4
ENDMDL