MODEL 4
REMARK VINA RESULT: -7.124542884      1.711      2.064
REMARK  2 active torsions:
REMARK  status: ('A' for Active; 'I' for Inactive)
REMARK    1  A    between atoms: C2_2  and  C4_4
REMARK    2  A    between atoms: C4_4  and  C5_5
ROOT
HETATM    1  C5  UNL     1      39.664  -9.679  37.937  1.00  0.00     0.277 C
HETATM    2  N1  UNL     1      40.979 -10.131  37.615  1.00  0.00    -0.062 N
ATOM      3  H11 UNL     1      41.237 -10.926  38.201  1.00  0.00     0.278 HD
ATOM      4  H12 UNL     1      41.676  -9.454  37.926  1.00  0.00     0.278 HD
HETATM    5  C6  UNL     1      41.172 -10.449  36.222  1.00  0.00     0.233 C
HETATM    6  C7  UNL     1      42.527 -11.113  36.094  1.00  0.00     0.027 C
HETATM    7  C8  UNL     1      42.525 -12.199  35.044  1.00  0.00     0.002 C
HETATM    8  C9  UNL     1      42.586 -11.642  33.656  1.00  0.00     0.000 C
HETATM    9  C10 UNL     1      43.617 -10.548  33.517  1.00  0.00     0.000 C
HETATM   10  C11 UNL     1      43.971 -10.434  32.055  1.00  0.00     0.000 C
HETATM   11  C12 UNL     1      45.087  -9.425  31.937  1.00  0.00     0.000 C
HETATM   12  C13 UNL     1      44.481  -8.040  31.989  1.00  0.00     0.002 C
HETATM   13  C14 UNL     1      45.086  -7.137  30.928  1.00  0.00     0.027 C
HETATM   14  C15 UNL     1      46.055  -6.147  31.543  1.00  0.00     0.232 C
HETATM   15  N2  UNL     1      45.611  -4.799  31.269  1.00  0.00    -0.074 N
ATOM     16  H21 UNL     1      45.656  -4.591  30.271  1.00  0.00     0.277 HD
ATOM     17  H22 UNL     1      46.285  -4.112  31.608  1.00  0.00     0.277 HD
HETATM   18  C16 UNL     1      44.287  -4.543  31.801  1.00  0.00     0.259 C
HETATM   19  C17 UNL     1      44.392  -3.672  33.034  1.00  0.00     0.259 C
HETATM   20  N3  UNL     1      43.296  -2.742  33.008  1.00  0.00    -0.073 N
ATOM     21  H31 UNL     1      42.820  -2.764  32.106  1.00  0.00     0.277 HD
ATOM     22  H32 UNL     1      43.635  -1.779  32.994  1.00  0.00     0.277 HD
HETATM   23  C18 UNL     1      42.356  -2.944  34.094  1.00  0.00     0.236 C
HETATM   24  C19 UNL     1      41.191  -3.813  33.646  1.00  0.00     0.054 C
HETATM   25  C20 UNL     1      40.050  -2.918  33.373  1.00  0.00    -0.023 C
HETATM   26  C21 UNL     1      39.377  -2.207  34.218  1.00  0.00     0.026 C
HETATM   27  C22 UNL     1      39.617  -2.139  35.689  1.00  0.00     0.038 A
HETATM   28  C23 UNL     1      39.472  -1.025  36.518  1.00  0.00     0.081 A
HETATM   29  S1  UNL     1      39.904  -1.667  38.041  1.00  0.00    -0.086 SA
HETATM   30  C24 UNL     1      40.236  -3.269  37.561  1.00  0.00     0.051 A
HETATM   31  N4  UNL     1      40.000  -3.229  36.270  1.00  0.00    -0.354 N
ATOM     32  H4  UNL     1      40.121  -4.075  35.714  1.00  0.00     0.166 HD
HETATM   33  C25 UNL     1      40.685  -4.540  38.244  1.00  0.00     0.066 C
HETATM   34  C26 UNL     1      39.607  -5.596  38.153  1.00  0.00     0.026 C
HETATM   35  C27 UNL     1      40.153  -6.731  37.295  1.00  0.00     0.123 C
HETATM   36  N5  UNL     1      39.088  -7.530  36.723  1.00  0.00    -0.359 N
ATOM     37  H5  UNL     1      38.320  -7.052  36.250  1.00  0.00     0.162 HD
HETATM   38  C28 UNL     1      39.065  -8.950  36.789  1.00  0.00     0.248 C
HETATM   39  O1  UNL     1      38.535  -9.628  35.872  1.00  0.00    -0.271 OA
ENDROOT
BRANCH   1  40
HETATM   40  C4  UNL     1      38.721 -10.766  38.330  1.00  0.00     0.046 C
BRANCH  40  41
HETATM   41  C2  UNL     1      38.182 -10.624  39.735  1.00  0.00    -0.020 C
HETATM   42  C1  UNL     1      36.779 -10.024  39.590  1.00  0.00     0.009 C
HETATM   43  C3  UNL     1      38.052 -11.922  40.460  1.00  0.00     0.009 C
ENDBRANCH  40  41
ENDBRANCH   1  40
TORSDOF 2
ENDMDL