MODEL 2
REMARK VINA RESULT: -9.796577121      1.486      1.697
REMARK  4 active torsions:
REMARK  status: ('A' for Active; 'I' for Inactive)
REMARK    1  A    between atoms: C6_6  and  N1_7
REMARK    2  A    between atoms: C10_14  and  N3_15
REMARK    3  A    between atoms: C11_18  and  C12_19
REMARK    4  A    between atoms: C15_22  and  C16_23
ROOT
HETATM    1  N1  UNL     1      39.876  -5.277  37.754  1.00  0.00    -0.249 N
HETATM    2  C7  UNL     1      40.089  -5.618  39.054  1.00  0.00     0.333 A
HETATM    3  O1  UNL     1      40.631  -4.774  39.814  1.00  0.00    -0.246 OA
HETATM    4  N2  UNL     1      39.717  -6.827  39.464  1.00  0.00    -0.307 N
ATOM      5  H2  UNL     1      39.872  -7.095  40.435  1.00  0.00     0.170 HD
HETATM    6  C8  UNL     1      39.138  -7.707  38.616  1.00  0.00     0.059 A
HETATM    7  C9  UNL     1      38.902  -7.410  37.300  1.00  0.00     0.028 A
HETATM    8  C10 UNL     1      39.301  -6.142  36.903  1.00  0.00     0.119 A
HETATM    9  C11 UNL     1      38.275  -8.541  36.647  1.00  0.00     0.108 A
HETATM   10  C27 UNL     1      38.141  -9.583  37.684  1.00  0.00     0.035 A
HETATM   11  N6  UNL     1      37.645 -10.826  37.685  1.00  0.00    -0.368 N
ATOM     12  H6  UNL     1      37.260 -11.210  36.822  1.00  0.00     0.165 HD
HETATM   13  C28 UNL     1      37.642 -11.576  38.791  1.00  0.00     0.088 A
HETATM   14  C29 UNL     1      38.143 -11.134  39.997  1.00  0.00     0.018 A
HETATM   15  C30 UNL     1      38.659  -9.849  40.007  1.00  0.00     0.017 A
HETATM   16  C31 UNL     1      38.658  -9.068  38.843  1.00  0.00     0.015 A
ENDROOT
BRANCH   9  17
HETATM   17  C12 UNL     1      38.989  -9.025  35.443  1.00  0.00    -0.043 A
HETATM   18  C13 UNL     1      40.352  -9.218  35.479  1.00  0.00     0.009 A
HETATM   19  C14 UNL     1      41.037  -9.684  34.359  1.00  0.00     0.012 A
HETATM   20  C15 UNL     1      40.410  -9.975  33.175  1.00  0.00    -0.035 A
HETATM   21  C25 UNL     1      39.020  -9.776  33.145  1.00  0.00     0.012 A
HETATM   22  C26 UNL     1      38.351  -9.315  34.259  1.00  0.00     0.009 A
BRANCH  20  23
HETATM   23  C16 UNL     1      41.102 -10.459  31.981  1.00  0.00     0.025 C
HETATM   24  C17 UNL     1      41.223 -11.724  31.713  1.00  0.00    -0.006 A
HETATM   25  C18 UNL     1      40.698 -12.788  32.561  1.00  0.00     0.119 A
HETATM   26  C24 UNL     1      41.885 -12.162  30.472  1.00  0.00     0.004 A
HETATM   27  N4  UNL     1      40.818 -14.038  32.223  1.00  0.00    -0.311 N
HETATM   28  N5  UNL     1      41.438 -14.454  31.058  1.00  0.00    -0.300 N
ATOM     29  H4  UNL     1      40.435 -14.747  32.849  1.00  0.00     0.186 HD
HETATM   30  C19 UNL     1      41.995 -13.495  30.144  1.00  0.00     0.059 A
ATOM     31  H5  UNL     1      41.501 -15.450  30.848  1.00  0.00     0.187 HD
HETATM   32  C20 UNL     1      42.609 -13.930  28.988  1.00  0.00     0.032 A
HETATM   33  C21 UNL     1      43.135 -13.029  28.118  1.00  0.00     0.002 A
HETATM   34  C22 UNL     1      43.053 -11.701  28.395  1.00  0.00     0.001 A
HETATM   35  C23 UNL     1      42.428 -11.275  29.572  1.00  0.00     0.014 A
ENDBRANCH  20  23
ENDBRANCH   9  17
BRANCH   8  36
HETATM   36  N3  UNL     1      39.094  -5.836  35.667  1.00  0.00    -0.384 N
ATOM     37  H32 UNL     1      39.922  -5.648  35.101  1.00  0.00     0.157 HD
ATOM     38  H31 UNL     1      38.151  -5.784  35.281  1.00  0.00     0.157 HD
ENDBRANCH   8  36
BRANCH   1  39
HETATM   39  C6  UNL     1      40.281  -3.975  37.329  1.00  0.00     0.046 A
HETATM   40  C5  UNL     1      41.562  -3.664  36.924  1.00  0.00     0.030 A
HETATM   41  C4  UNL     1      41.908  -2.385  36.518  1.00  0.00     0.003 A
HETATM   42  C3  UNL     1      40.977  -1.377  36.506  1.00  0.00     0.007 A
HETATM   43  C2  UNL     1      39.679  -1.671  36.912  1.00  0.00    -0.060 A
HETATM   44  C1  UNL     1      38.668  -0.565  36.892  1.00  0.00     0.048 C
HETATM   45  C32 UNL     1      39.360  -2.956  37.314  1.00  0.00     0.037 A
ENDBRANCH   1  39
TORSDOF 4
ENDMDL