MODEL 2
REMARK VINA RESULT: -9.703534546      1.870      7.420
REMARK  4 active torsions:
REMARK  status: ('A' for Active; 'I' for Inactive)
REMARK    1  A    between atoms: C5_7  and  C6_8
REMARK    2  A    between atoms: C9_15  and  N4_16
REMARK    3  A    between atoms: C10_21  and  N6_22
REMARK    4  A    between atoms: C19_34  and  C20_35
ROOT
HETATM    1  C6  UNL     1      39.523  -4.384  37.354  1.00  0.00     0.060 A
HETATM    2  C7  UNL     1      40.047  -3.600  38.380  1.00  0.00     0.120 A
HETATM    3  N2  UNL     1      40.651  -4.089  39.459  1.00  0.00    -0.348 N
ATOM      4  H2  UNL     1      41.017  -3.468  40.181  1.00  0.00     0.167 HD
HETATM    5  C8  UNL     1      40.764  -5.424  39.573  1.00  0.00     0.151 A
HETATM    6  N3  UNL     1      41.389  -5.947  40.646  1.00  0.00    -0.174 N
ATOM      7  H3  UNL     1      41.764  -5.346  41.380  1.00  0.00     0.186 HD
HETATM    8  C9  UNL     1      41.504  -7.276  40.721  1.00  0.00     0.679 A
HETATM    9  N5  UNL     1      41.029  -8.079  39.791  1.00  0.00    -0.174 N
ATOM     10  H5  UNL     1      41.149  -9.084  39.907  1.00  0.00     0.186 HD
HETATM   11  C10 UNL     1      40.375  -7.617  38.663  1.00  0.00     0.152 A
HETATM   12  C28 UNL     1      40.253  -6.259  38.570  1.00  0.00     0.123 A
HETATM   13  N9  UNL     1      39.655  -5.712  37.505  1.00  0.00    -0.348 N
ATOM     14  H9  UNL     1      39.286  -6.327  36.779  1.00  0.00     0.166 HD
ENDROOT
BRANCH  11  15
HETATM   15  N6  UNL     1      39.927  -8.591  37.771  1.00  0.00    -0.328 N
HETATM   16  C11 UNL     1      40.448  -9.753  36.966  1.00  0.00     0.166 A
HETATM   17  C12 UNL     1      41.440  -9.548  35.901  1.00  0.00    -0.005 A
HETATM   18  C19 UNL     1      39.113  -9.318  36.817  1.00  0.00     0.170 A
HETATM   19  C13 UNL     1      42.772  -9.962  36.141  1.00  0.00     0.012 A
HETATM   20  C17 UNL     1      41.111  -9.109  34.664  1.00  0.00     0.043 A
HETATM   21  C14 UNL     1      43.716  -9.930  35.145  1.00  0.00     0.001 A
HETATM   22  C15 UNL     1      43.364  -9.486  33.890  1.00  0.00     0.002 A
HETATM   23  C16 UNL     1      42.072  -9.076  33.640  1.00  0.00     0.030 A
HETATM   24  N7  UNL     1      39.834  -8.536  34.466  1.00  0.00    -0.324 N
HETATM   25  C18 UNL     1      38.966  -8.429  35.561  1.00  0.00     0.258 C
ATOM     26  H7  UNL     1      39.550  -8.206  33.543  1.00  0.00     0.169 HD
HETATM   27  O1  UNL     1      38.040  -7.555  35.504  1.00  0.00    -0.270 OA
BRANCH  18  28
HETATM   28  C20 UNL     1      37.885 -10.046  37.092  1.00  0.00    -0.006 A
HETATM   29  C21 UNL     1      37.009  -9.697  38.117  1.00  0.00     0.011 A
HETATM   30  C22 UNL     1      35.765 -10.291  38.319  1.00  0.00     0.003 A
HETATM   31  C23 UNL     1      35.379 -11.278  37.460  1.00  0.00     0.030 A
HETATM   32  C24 UNL     1      36.190 -11.684  36.421  1.00  0.00     0.043 A
HETATM   33  N8  UNL     1      36.019 -12.653  35.483  1.00  0.00    -0.365 N
HETATM   34  C27 UNL     1      37.432 -11.074  36.241  1.00  0.00     0.001 A
HETATM   35  C25 UNL     1      37.109 -12.669  34.731  1.00  0.00     0.089 A
ATOM     36  H8  UNL     1      35.203 -13.254  35.378  1.00  0.00     0.165 HD
HETATM   37  C26 UNL     1      38.013 -11.707  35.167  1.00  0.00     0.031 A
ENDBRANCH  18  28
ENDBRANCH  11  15
BRANCH   8  38
HETATM   38  N4  UNL     1      42.108  -7.820  41.753  1.00  0.00    -0.234 N
ATOM     39  H42 UNL     1      42.431  -7.202  42.497  1.00  0.00     0.174 HD
ATOM     40  H41 UNL     1      42.240  -8.831  41.787  1.00  0.00     0.174 HD
ENDBRANCH   8  38
BRANCH   1  41
HETATM   41  C5  UNL     1      38.926  -3.769  36.180  1.00  0.00     0.008 A
HETATM   42  C4  UNL     1      37.583  -3.525  36.103  1.00  0.00     0.101 A
HETATM   43  N1  UNL     1      37.020  -2.919  35.016  1.00  0.00    -0.374 N
HETATM   44  C3  UNL     1      37.774  -2.544  33.982  1.00  0.00     0.094 A
ATOM     45  H1  UNL     1      36.014  -2.752  34.994  1.00  0.00     0.164 HD
HETATM   46  C2  UNL     1      39.124  -2.759  33.996  1.00  0.00    -0.046 A
HETATM   47  C1  UNL     1      39.947  -2.340  32.850  1.00  0.00     0.049 C
HETATM   48  C29 UNL     1      39.691  -3.380  35.115  1.00  0.00     0.023 A
ENDBRANCH   1  41
TORSDOF 4
ENDMDL