MODEL 4
REMARK VINA RESULT: -9.494184328      3.089      5.577
REMARK  3 active torsions:
REMARK  status: ('A' for Active; 'I' for Inactive)
REMARK    1  A    between atoms: C4_8  and  N3_9
REMARK    2  A    between atoms: N3_9  and  N4_11
REMARK    3  A    between atoms: C6_16  and  C7_17
ROOT
HETATM    1  N4  UNL     1      39.853  -8.213  38.694  1.00  0.00    -0.285 N
ATOM      2  H4  UNL     1      39.671  -7.327  39.166  1.00  0.00     0.188 HD
HETATM    3  C5  UNL     1      40.797  -8.275  37.820  1.00  0.00     0.126 C
HETATM    4  N5  UNL     1      41.156  -9.406  37.102  1.00  0.00    -0.359 N
ATOM      5  H5  UNL     1      41.124 -10.345  37.498  1.00  0.00     0.162 HD
HETATM    6  C6  UNL     1      41.584  -9.141  35.738  1.00  0.00     0.180 C
HETATM    7  S1  UNL     1      42.531  -7.593  36.039  1.00  0.00    -0.106 SA
HETATM    8  C13 UNL     1      41.607  -7.067  37.516  1.00  0.00     0.180 A
HETATM    9  C14 UNL     1      42.469  -6.642  38.609  1.00  0.00     0.253 A
HETATM   10  O1  UNL     1      43.317  -7.339  39.217  1.00  0.00    -0.271 OA
HETATM   11  N6  UNL     1      42.168  -5.271  38.866  1.00  0.00    -0.325 N
ATOM     12  H6  UNL     1      42.610  -4.692  39.579  1.00  0.00     0.169 HD
HETATM   13  C15 UNL     1      41.143  -4.836  37.959  1.00  0.00     0.043 A
HETATM   14  C16 UNL     1      40.479  -3.651  37.751  1.00  0.00     0.030 A
HETATM   15  C17 UNL     1      39.505  -3.478  36.789  1.00  0.00     0.002 A
HETATM   16  C18 UNL     1      39.183  -4.560  35.993  1.00  0.00     0.001 A
HETATM   17  C19 UNL     1      39.822  -5.772  36.163  1.00  0.00     0.012 A
HETATM   18  C20 UNL     1      40.794  -5.905  37.139  1.00  0.00     0.004 A
ENDROOT
BRANCH   1  19
HETATM   19  N3  UNL     1      39.095  -9.292  39.003  1.00  0.00    -0.282 N
ATOM     20  H3  UNL     1      39.561  -9.956  39.622  1.00  0.00     0.188 HD
BRANCH  19  21
HETATM   21  C4  UNL     1      37.924  -9.640  38.674  1.00  0.00     0.150 A
HETATM   22  C3  UNL     1      37.656 -10.409  37.570  1.00  0.00     0.106 A
HETATM   23  N2  UNL     1      38.411 -10.973  36.608  1.00  0.00    -0.296 N
HETATM   24  C27 UNL     1      36.336 -10.756  37.268  1.00  0.00     0.032 A
HETATM   25  N1  UNL     1      37.654 -11.622  35.762  1.00  0.00    -0.304 N
ATOM     26  H2  UNL     1      39.426 -10.903  36.548  1.00  0.00     0.187 HD
HETATM   27  C2  UNL     1      36.353 -11.514  36.134  1.00  0.00     0.035 A
ATOM     28  H1  UNL     1      37.991 -12.133  34.946  1.00  0.00     0.186 HD
HETATM   29  C1  UNL     1      35.266 -12.154  35.355  1.00  0.00     0.070 C
HETATM   30  C26 UNL     1      35.306 -10.320  38.082  1.00  0.00     0.005 A
HETATM   31  C21 UNL     1      35.629  -9.541  39.192  1.00  0.00     0.045 A
HETATM   32  C25 UNL     1      34.013 -10.649  37.801  1.00  0.00     0.014 A
HETATM   33  N7  UNL     1      36.900  -9.237  39.439  1.00  0.00    -0.339 N
HETATM   34  C22 UNL     1      34.605  -9.106  40.005  1.00  0.00     0.030 A
ATOM     35  H7  UNL     1      37.107  -8.664  40.257  1.00  0.00     0.167 HD
HETATM   36  C23 UNL     1      33.304  -9.435  39.724  1.00  0.00     0.002 A
HETATM   37  C24 UNL     1      32.974 -10.200  38.637  1.00  0.00     0.001 A
ENDBRANCH  19  21
ENDBRANCH   1  19
BRANCH   6  38
HETATM   38  C7  UNL     1      42.463 -10.194  35.208  1.00  0.00    -0.026 A
HETATM   39  C8  UNL     1      43.567  -9.872  34.463  1.00  0.00     0.010 A
HETATM   40  C9  UNL     1      44.373 -10.902  33.980  1.00  0.00     0.001 A
HETATM   41  C10 UNL     1      44.081 -12.215  34.235  1.00  0.00     0.000 A
HETATM   42  C11 UNL     1      42.975 -12.543  34.981  1.00  0.00     0.001 A
HETATM   43  C12 UNL     1      42.169 -11.516  35.464  1.00  0.00     0.010 A
ENDBRANCH   6  38
TORSDOF 3
ENDMDL