MODEL 2
REMARK VINA RESULT: -8.959917604      0.751      1.064
REMARK  5 active torsions:
REMARK  status: ('A' for Active; 'I' for Inactive)
REMARK    1  A    between atoms: N1_2  and  C2_4
REMARK    2  A    between atoms: C4_9  and  C5_10
REMARK    3  A    between atoms: C7_14  and  N4_15
REMARK       I    between atoms: N4_15  and  C8_17
REMARK       I    between atoms: C8_17  and  N5_19
REMARK    4  A    between atoms: N5_19  and  C9_21
REMARK    5  A    between atoms: C16_31  and  C17_32
ROOT
HETATM    1  C5  UNL     1      37.864  -9.560  37.425  1.00  0.00    -0.004 A
HETATM    2  C6  UNL     1      37.910  -9.185  38.750  1.00  0.00     0.102 A
HETATM    3  N3  UNL     1      38.803  -8.338  39.276  1.00  0.00    -0.351 N
ATOM      4  H3  UNL     1      38.779  -8.103  40.268  1.00  0.00     0.166 HD
HETATM    5  C7  UNL     1      39.729  -7.805  38.468  1.00  0.00     0.122 A
HETATM    6  C16 UNL     1      39.743  -8.144  37.102  1.00  0.00     0.043 A
HETATM    7  C24 UNL     1      38.832  -9.004  36.586  1.00  0.00     0.032 A
ENDROOT
BRANCH   5   8
HETATM    8  N4  UNL     1      40.622  -6.992  38.865  1.00  0.00    -0.294 N
HETATM    9  C8  UNL     1      40.432  -5.694  39.382  1.00  0.00     0.327 C
HETATM   10  O2  UNL     1      39.639  -5.512  40.349  1.00  0.00    -0.247 OA
HETATM   11  N5  UNL     1      41.136  -4.613  38.809  1.00  0.00    -0.288 N
ATOM     12  H5  UNL     1      42.156  -4.592  38.823  1.00  0.00     0.172 HD
ATOM     13  H4  UNL     1      41.587  -7.316  38.804  1.00  0.00     0.172 HD
BRANCH  11  14
HETATM   14  C9  UNL     1      40.459  -3.637  38.261  1.00  0.00     0.153 A
HETATM   15  N6  UNL     1      39.448  -2.937  38.765  1.00  0.00    -0.335 N
HETATM   16  C10 UNL     1      38.903  -1.984  38.029  1.00  0.00     0.051 A
ATOM     17  H6  UNL     1      39.099  -3.132  39.703  1.00  0.00     0.168 HD
HETATM   18  C11 UNL     1      37.825  -1.150  38.412  1.00  0.00     0.031 A
HETATM   19  C15 UNL     1      39.423  -1.780  36.782  1.00  0.00     0.035 A
HETATM   20  C12 UNL     1      37.359  -0.204  37.554  1.00  0.00     0.002 A
HETATM   21  C13 UNL     1      37.864   0.027  36.285  1.00  0.00     0.002 A
HETATM   22  C14 UNL     1      38.920  -0.791  35.912  1.00  0.00     0.021 A
HETATM   23  S1  UNL     1      40.662  -2.947  36.706  1.00  0.00    -0.052 SA
ENDBRANCH  11  14
ENDBRANCH   5   8
BRANCH   6  24
HETATM   24  C17 UNL     1      40.770  -7.543  36.251  1.00  0.00     0.089 A
HETATM   25  N7  UNL     1      40.740  -6.452  35.508  1.00  0.00    -0.349 N
HETATM   26  C18 UNL     1      41.788  -6.101  34.821  1.00  0.00     0.050 A
ATOM     27  H7  UNL     1      39.894  -5.884  35.473  1.00  0.00     0.166 HD
HETATM   28  C19 UNL     1      41.894  -4.963  33.987  1.00  0.00     0.031 A
HETATM   29  C23 UNL     1      42.898  -6.897  34.902  1.00  0.00     0.033 A
HETATM   30  C20 UNL     1      43.056  -4.727  33.332  1.00  0.00     0.002 A
HETATM   31  C21 UNL     1      44.191  -5.507  33.391  1.00  0.00     0.002 A
HETATM   32  C22 UNL     1      44.089  -6.629  34.211  1.00  0.00     0.021 A
HETATM   33  S2  UNL     1      42.354  -8.120  35.979  1.00  0.00    -0.069 SA
ENDBRANCH   6  24
BRANCH   1  34
HETATM   34  C4  UNL     1      36.880 -10.481  36.897  1.00  0.00     0.045 A
HETATM   35  C2  UNL     1      35.540 -10.487  37.173  1.00  0.00     0.134 A
HETATM   36  N2  UNL     1      34.986 -11.517  36.467  1.00  0.00    -0.245 N
HETATM   37  O1  UNL     1      35.934 -12.127  35.781  1.00  0.00    -0.248 OA
ATOM     38  H2  UNL     1      33.999 -11.773  36.469  1.00  0.00     0.196 HD
HETATM   39  C3  UNL     1      37.094 -11.516  36.026  1.00  0.00     0.183 A
BRANCH  35  40
HETATM   40  N1  UNL     1      34.914  -9.677  37.951  1.00  0.00    -0.379 N
HETATM   41  C1  UNL     1      33.564  -9.972  38.389  1.00  0.00     0.147 C
ATOM     42  H1  UNL     1      35.371  -8.820  38.263  1.00  0.00     0.160 HD
ENDBRANCH  35  40
ENDBRANCH   1  34
TORSDOF 5
ENDMDL