MODEL 3
REMARK VINA RESULT: -9.446766331      0.729      1.328
REMARK  5 active torsions:
REMARK  status: ('A' for Active; 'I' for Inactive)
REMARK    1  A    between atoms: C5_8  and  N3_9
REMARK    2  A    between atoms: N3_9  and  C6_11
REMARK    3  A    between atoms: C6_11  and  N4_13
REMARK    4  A    between atoms: N4_13  and  C7_15
REMARK    5  A    between atoms: C22_34  and  C23_35
ROOT
HETATM    1  N1  UNL     1      36.905 -12.899  35.486  1.00  0.00    -0.062 NA
HETATM    2  C1  UNL     1      37.658 -11.700  35.188  1.00  0.00     0.206 A
HETATM    3  N2  UNL     1      38.724 -11.569  34.505  1.00  0.00    -0.337 N
ATOM      4  H2  UNL     1      39.310 -12.243  34.012  1.00  0.00     0.164 HD
HETATM    5  C2  UNL     1      38.815 -10.186  34.663  1.00  0.00     0.243 A
HETATM    6  C3  UNL     1      39.830  -9.555  35.517  1.00  0.00     0.010 A
HETATM    7  C4  UNL     1      39.488  -8.934  36.667  1.00  0.00     0.023 A
HETATM    8  C5  UNL     1      40.482  -8.298  37.445  1.00  0.00     0.117 A
HETATM    9  N6  UNL     1      41.758  -8.311  37.044  1.00  0.00    -0.341 N
ATOM     10  H6  UNL     1      42.468  -7.849  37.610  1.00  0.00     0.167 HD
HETATM   11  C16 UNL     1      42.114  -8.921  35.909  1.00  0.00     0.044 A
HETATM   12  C17 UNL     1      43.442  -8.908  35.532  1.00  0.00     0.030 A
HETATM   13  C18 UNL     1      43.800  -9.535  34.361  1.00  0.00     0.002 A
HETATM   14  C19 UNL     1      42.875 -10.169  33.563  1.00  0.00     0.001 A
HETATM   15  C20 UNL     1      41.563 -10.172  33.953  1.00  0.00     0.014 A
HETATM   16  C21 UNL     1      41.174  -9.552  35.123  1.00  0.00     0.001 A
HETATM   17  C22 UNL     1      38.122  -8.879  37.172  1.00  0.00     0.170 C
HETATM   18  N7  UNL     1      37.101  -9.254  36.177  1.00  0.00    -0.119 NA
HETATM   19  N8  UNL     1      37.623 -10.378  35.503  1.00  0.00    -0.239 N
ENDROOT
BRANCH   8  20
HETATM   20  N3  UNL     1      40.129  -7.695  38.546  1.00  0.00    -0.319 N
ATOM     21  H3  UNL     1      39.158  -7.440  38.729  1.00  0.00     0.170 HD
BRANCH  20  22
HETATM   22  C6  UNL     1      41.190  -7.403  39.503  1.00  0.00     0.178 C
HETATM   23  S1  UNL     1      41.772  -8.574  40.429  1.00  0.00    -0.040 SA
BRANCH  22  24
HETATM   24  N4  UNL     1      41.626  -6.075  39.531  1.00  0.00    -0.319 N
ATOM     25  H4  UNL     1      42.566  -5.943  39.905  1.00  0.00     0.169 HD
BRANCH  24  26
HETATM   26  C7  UNL     1      40.987  -4.899  39.131  1.00  0.00     0.107 A
HETATM   27  C8  UNL     1      40.007  -4.207  39.765  1.00  0.00     0.049 A
HETATM   28  C9  UNL     1      39.438  -3.031  39.262  1.00  0.00     0.017 A
HETATM   29  C10 UNL     1      39.891  -2.544  38.063  1.00  0.00    -0.009 A
HETATM   30  C11 UNL     1      39.368  -1.374  37.504  1.00  0.00     0.013 A
HETATM   31  C15 UNL     1      40.877  -3.236  37.421  1.00  0.00     0.043 A
HETATM   32  C12 UNL     1      39.858  -0.936  36.307  1.00  0.00     0.001 A
HETATM   33  C13 UNL     1      40.855  -1.642  35.662  1.00  0.00     0.002 A
HETATM   34  C14 UNL     1      41.371  -2.782  36.201  1.00  0.00     0.030 A
HETATM   35  N5  UNL     1      41.392  -4.351  37.930  1.00  0.00    -0.342 N
ATOM     36  H5  UNL     1      42.127  -4.827  37.406  1.00  0.00     0.167 HD
ENDBRANCH  24  26
ENDBRANCH  22  24
ENDBRANCH  20  22
ENDBRANCH   8  20
BRANCH  17  37
HETATM   37  C23 UNL     1      37.932  -9.835  38.271  1.00  0.00    -0.033 A
HETATM   38  C24 UNL     1      38.960 -10.578  38.767  1.00  0.00     0.009 A
HETATM   39  C25 UNL     1      38.773 -11.472  39.826  1.00  0.00     0.001 A
HETATM   40  C26 UNL     1      37.540 -11.613  40.381  1.00  0.00     0.000 A
HETATM   41  C27 UNL     1      36.481 -10.877  39.901  1.00  0.00     0.001 A
HETATM   42  C28 UNL     1      36.689  -9.992  38.847  1.00  0.00     0.009 A
ENDBRANCH  17  37
TORSDOF 5
ENDMDL