MODEL 3
REMARK VINA RESULT: -8.893528497      4.903      8.234
REMARK  5 active torsions:
REMARK  status: ('A' for Active; 'I' for Inactive)
REMARK    1  A    between atoms: C2_3  and  C3_4
REMARK    2  A    between atoms: C4_5  and  O2_6
REMARK    3  A    between atoms: C19_28  and  C20_29
REMARK    4  A    between atoms: C23_32  and  C24_33
REMARK    5  A    between atoms: N3_41  and  O5_42
ROOT
HETATM    1  O1  UNL     1      41.766 -10.833  38.836  1.00  0.00    -0.265 OA
HETATM    2  C1  UNL     1      41.638  -9.695  38.277  1.00  0.00     0.284 A
HETATM    3  C2  UNL     1      40.397  -9.086  37.835  1.00  0.00     0.062 A
HETATM    4  C11 UNL     1      40.687  -7.909  37.307  1.00  0.00     0.021 A
HETATM    5  C12 UNL     1      42.113  -7.636  37.350  1.00  0.00     0.079 A
HETATM    6  C13 UNL     1      42.352  -6.444  36.809  1.00  0.00     0.046 A
HETATM    7  C14 UNL     1      41.113  -5.821  36.361  1.00  0.00    -0.012 A
HETATM    8  C15 UNL     1      40.098  -6.712  36.663  1.00  0.00    -0.011 A
HETATM    9  C16 UNL     1      38.799  -6.386  36.352  1.00  0.00     0.013 A
HETATM   10  C17 UNL     1      38.509  -5.184  35.746  1.00  0.00     0.002 A
HETATM   11  C18 UNL     1      39.521  -4.289  35.442  1.00  0.00     0.013 A
HETATM   12  C19 UNL     1      40.821  -4.609  35.750  1.00  0.00    -0.015 A
HETATM   13  N3  UNL     1      42.680  -8.785  37.968  1.00  0.00    -0.186 N
ENDROOT
BRANCH   3  14
HETATM   14  C3  UNL     1      39.039  -9.625  37.869  1.00  0.00     0.032 A
HETATM   15  C4  UNL     1      38.215  -9.281  38.961  1.00  0.00     0.078 A
HETATM   16  C5  UNL     1      36.940  -9.789  38.999  1.00  0.00     0.040 A
HETATM   17  C6  UNL     1      36.451 -10.614  38.011  1.00  0.00     0.033 A
HETATM   18  C7  UNL     1      37.259 -10.950  36.945  1.00  0.00     0.053 A
HETATM   19  N1  UNL     1      36.769 -11.765  35.996  1.00  0.00    -0.308 N
HETATM   20  C10 UNL     1      38.566 -10.438  36.894  1.00  0.00     0.073 A
HETATM   21  C8  UNL     1      37.545 -12.111  34.959  1.00  0.00     0.327 A
ATOM     22  H1  UNL     1      35.815 -12.117  36.064  1.00  0.00     0.170 HD
HETATM   23  O3  UNL     1      37.094 -12.878  34.061  1.00  0.00    -0.247 OA
HETATM   24  N2  UNL     1      38.803 -11.649  34.867  1.00  0.00    -0.275 N
HETATM   25  C9  UNL     1      39.325 -10.822  35.814  1.00  0.00     0.262 A
ATOM     26  H2  UNL     1      39.380 -11.924  34.072  1.00  0.00     0.173 HD
HETATM   27  O4  UNL     1      40.497 -10.410  35.703  1.00  0.00    -0.267 OA
BRANCH  15  28
HETATM   28  O2  UNL     1      38.734  -8.459  39.924  1.00  0.00    -0.360 OA
ATOM     29  H2  UNL     1      38.153  -7.829  40.333  1.00  0.00     0.217 HD
ENDBRANCH  15  28
ENDBRANCH   3  14
BRANCH  13  30
HETATM   30  O5  UNL     1      44.015  -8.921  38.196  1.00  0.00    -0.279 OA
ATOM     31  H5  UNL     1      44.633  -8.263  38.494  1.00  0.00     0.245 HD
ENDBRANCH  13  30
BRANCH  12  32
HETATM   32  C20 UNL     1      41.914  -3.703  35.447  1.00  0.00    -0.025 A
HETATM   33  C21 UNL     1      42.797  -3.915  34.436  1.00  0.00     0.013 A
HETATM   34  C22 UNL     1      43.823  -3.013  34.222  1.00  0.00     0.013 A
HETATM   35  C23 UNL     1      43.920  -1.916  35.046  1.00  0.00    -0.026 A
HETATM   36  C30 UNL     1      43.032  -1.686  36.076  1.00  0.00     0.013 A
HETATM   37  C31 UNL     1      42.031  -2.584  36.271  1.00  0.00     0.013 A
BRANCH  35  38
HETATM   38  C24 UNL     1      44.990  -0.942  34.863  1.00  0.00    -0.026 A
HETATM   39  C25 UNL     1      45.593  -0.790  33.630  1.00  0.00     0.012 A
HETATM   40  C26 UNL     1      46.595   0.163  33.555  1.00  0.00     0.001 A
HETATM   41  C27 UNL     1      46.983   0.927  34.637  1.00  0.00     0.000 A
HETATM   42  C28 UNL     1      46.351   0.743  35.854  1.00  0.00     0.001 A
HETATM   43  C29 UNL     1      45.356  -0.192  35.962  1.00  0.00     0.012 A
ENDBRANCH  35  38
ENDBRANCH  12  32
TORSDOF 5
ENDMDL