MODEL 3
REMARK VINA RESULT: -9.150358659      1.157      1.289
REMARK  6 active torsions:
REMARK  status: ('A' for Active; 'I' for Inactive)
REMARK    1  A    between atoms: C6_6  and  O1_7
REMARK    2  A    between atoms: C7_9  and  C8_10
REMARK    3  A    between atoms: C13_15  and  C14_16
REMARK    4  A    between atoms: C22_25  and  O2_26
REMARK    5  A    between atoms: C24_29  and  O3_30
REMARK    6  A    between atoms: C31_40  and  O4_42
ROOT
HETATM    1  C8  UNL     1      41.292  -8.874  35.676  1.00  0.00    -0.007 C
HETATM    2  C9  UNL     1      42.514  -8.627  34.990  1.00  0.00     0.015 C
HETATM    3  C10 UNL     1      43.085  -9.407  34.009  1.00  0.00     0.031 C
HETATM    4  C11 UNL     1      42.452 -10.159  33.041  1.00  0.00     0.040 A
HETATM    5  C12 UNL     1      43.044 -10.420  31.832  1.00  0.00     0.043 A
HETATM    6  C13 UNL     1      42.105 -11.158  31.134  1.00  0.00    -0.008 A
HETATM    7  C20 UNL     1      40.980 -11.328  31.916  1.00  0.00     0.110 A
HETATM    8  N1  UNL     1      41.223 -10.706  33.078  1.00  0.00    -0.318 N
HETATM    9  C21 UNL     1      40.374 -10.634  34.137  1.00  0.00     0.085 A
HETATM   10  C22 UNL     1      39.232 -11.434  34.244  1.00  0.00     0.107 A
HETATM   11  C23 UNL     1      38.575 -11.089  35.426  1.00  0.00     0.044 A
HETATM   12  C24 UNL     1      37.404 -11.591  35.960  1.00  0.00     0.079 A
HETATM   13  C25 UNL     1      36.915 -11.077  37.181  1.00  0.00     0.037 A
HETATM   14  C26 UNL     1      37.602 -10.103  37.804  1.00  0.00     0.004 A
HETATM   15  C27 UNL     1      38.795  -9.573  37.286  1.00  0.00     0.013 A
HETATM   16  C28 UNL     1      39.264 -10.072  36.108  1.00  0.00    -0.007 A
HETATM   17  C29 UNL     1      40.364  -9.788  35.332  1.00  0.00     0.017 A
ENDROOT
BRANCH   1  18
HETATM   18  C7  UNL     1      41.242  -8.003  36.818  1.00  0.00     0.035 A
HETATM   19  C6  UNL     1      41.842  -8.324  38.011  1.00  0.00     0.079 A
HETATM   20  C5  UNL     1      41.848  -7.414  39.044  1.00  0.00     0.038 A
HETATM   21  C4  UNL     1      41.249  -6.182  38.874  1.00  0.00     0.017 A
HETATM   22  C3  UNL     1      40.639  -5.850  37.670  1.00  0.00    -0.002 A
HETATM   23  C2  UNL     1      40.025  -4.740  37.325  1.00  0.00    -0.017 A
HETATM   24  C30 UNL     1      40.643  -6.765  36.655  1.00  0.00     0.055 A
HETATM   25  C1  UNL     1      39.836  -3.551  38.168  1.00  0.00     0.049 C
HETATM   26  C31 UNL     1      39.559  -4.913  35.927  1.00  0.00     0.153 A
HETATM   27  N2  UNL     1      40.018  -6.246  35.621  1.00  0.00    -0.354 N
HETATM   28  C32 UNL     1      40.285  -3.936  35.010  1.00  0.00     0.076 C
ATOM     29  H2  UNL     1      39.876  -6.719  34.728  1.00  0.00     0.163 HD
BRANCH  19  30
HETATM   30  O1  UNL     1      42.459  -9.549  38.234  1.00  0.00    -0.360 OA
ATOM     31  H1  UNL     1      42.227 -10.267  37.658  1.00  0.00     0.217 HD
ENDBRANCH  19  30
BRANCH  26  32
HETATM   32  O4  UNL     1      38.177  -4.783  35.803  1.00  0.00    -0.367 OA
ATOM     33  H4  UNL     1      37.858  -3.950  36.128  1.00  0.00     0.213 HD
ENDBRANCH  26  32
ENDBRANCH   1  18
BRANCH  10  34
HETATM   34  O2  UNL     1      38.916 -12.348  33.318  1.00  0.00    -0.357 OA
ATOM     35  H2  UNL     1      38.015 -12.589  33.136  1.00  0.00     0.217 HD
ENDBRANCH  10  34
BRANCH  12  36
HETATM   36  O3  UNL     1      36.671 -12.574  35.375  1.00  0.00    -0.360 OA
ATOM     37  H3  UNL     1      35.792 -12.809  35.648  1.00  0.00     0.217 HD
ENDBRANCH  12  36
BRANCH   6  38
HETATM   38  C14 UNL     1      42.333 -11.647  29.780  1.00  0.00    -0.025 A
HETATM   39  C15 UNL     1      42.048 -10.816  28.722  1.00  0.00     0.012 A
HETATM   40  C16 UNL     1      42.272 -11.295  27.446  1.00  0.00     0.001 A
HETATM   41  C17 UNL     1      42.770 -12.578  27.253  1.00  0.00     0.000 A
HETATM   42  C18 UNL     1      43.047 -13.389  28.349  1.00  0.00     0.001 A
HETATM   43  C19 UNL     1      42.828 -12.924  29.613  1.00  0.00     0.012 A
ENDBRANCH   6  38
TORSDOF 6
ENDMDL