MODEL 2
REMARK VINA RESULT: -10.129404641      0.667      1.112
REMARK  3 active torsions:
REMARK  status: ('A' for Active; 'I' for Inactive)
REMARK    1  A    between atoms: N1_1  and  C1_4
REMARK    2  A    between atoms: C2_7  and  C3_8
REMARK    3  A    between atoms: C7_15  and  C8_16
ROOT
HETATM    1  C3  UNL     1      37.748  -8.647  36.602  1.00  0.00     0.048 C
HETATM    2  C4  UNL     1      38.714  -8.488  37.482  1.00  0.00     0.049 A
HETATM    3  C5  UNL     1      39.174  -9.408  38.508  1.00  0.00     0.257 A
HETATM    4  O1  UNL     1      38.729 -10.559  38.743  1.00  0.00    -0.267 OA
HETATM    5  N3  UNL     1      40.240  -8.760  39.209  1.00  0.00    -0.321 N
ATOM      6  H3  UNL     1      40.767  -9.153  39.989  1.00  0.00     0.169 HD
HETATM    7  C6  UNL     1      40.438  -7.478  38.636  1.00  0.00     0.059 A
HETATM    8  C7  UNL     1      41.386  -6.513  39.030  1.00  0.00     0.004 A
HETATM    9  C13 UNL     1      41.406  -5.329  38.343  1.00  0.00     0.031 A
HETATM   10  C14 UNL     1      40.533  -5.088  37.307  1.00  0.00     0.029 A
HETATM   11  C15 UNL     1      39.601  -6.062  36.934  1.00  0.00     0.059 A
HETATM   12  N5  UNL     1      38.925  -5.524  35.935  1.00  0.00    -0.352 N
ATOM     13  H5  UNL     1      38.166  -5.997  35.444  1.00  0.00     0.166 HD
HETATM   14  C16 UNL     1      39.355  -4.261  35.629  1.00  0.00     0.069 A
HETATM   15  C17 UNL     1      38.945  -3.346  34.680  1.00  0.00     0.051 A
HETATM   16  C18 UNL     1      39.579  -2.129  34.609  1.00  0.00     0.052 A
HETATM   17  C19 UNL     1      39.184  -1.132  33.641  1.00  0.00    -0.020 A
HETATM   18  C20 UNL     1      39.031   0.208  33.958  1.00  0.00     0.012 A
HETATM   19  C21 UNL     1      38.651   1.173  33.048  1.00  0.00     0.001 A
HETATM   20  C22 UNL     1      38.408   0.777  31.747  1.00  0.00     0.000 A
HETATM   21  C23 UNL     1      38.544  -0.548  31.373  1.00  0.00     0.001 A
HETATM   22  C24 UNL     1      38.923  -1.469  32.310  1.00  0.00     0.012 A
HETATM   23  C25 UNL     1      40.595  -1.898  35.501  1.00  0.00     0.299 A
HETATM   24  O2  UNL     1      41.209  -0.801  35.476  1.00  0.00    -0.259 OA
HETATM   25  O3  UNL     1      40.959  -2.802  36.397  1.00  0.00    -0.272 OA
HETATM   26  C26 UNL     1      40.377  -3.982  36.499  1.00  0.00     0.118 A
HETATM   27  C27 UNL     1      39.551  -7.287  37.615  1.00  0.00     0.035 A
ENDROOT
BRANCH   1  28
HETATM   28  C2  UNL     1      36.898  -9.840  36.477  1.00  0.00     0.051 A
HETATM   29  N2  UNL     1      35.790  -9.967  37.209  1.00  0.00    -0.192 N
HETATM   30  C1  UNL     1      35.033 -11.071  37.090  1.00  0.00     0.676 A
ATOM     31  H2  UNL     1      35.518  -9.227  37.857  1.00  0.00     0.184 HD
HETATM   32  N6  UNL     1      35.359 -12.060  36.251  1.00  0.00    -0.202 N
HETATM   33  C29 UNL     1      36.463 -11.962  35.506  1.00  0.00     0.108 A
ATOM     34  H6  UNL     1      34.767 -12.888  36.182  1.00  0.00     0.183 HD
HETATM   35  C28 UNL     1      37.253 -10.855  35.602  1.00  0.00     0.047 A
BRANCH  30  36
HETATM   36  N1  UNL     1      33.963 -11.194  37.796  1.00  0.00    -0.234 N
ATOM     37  H12 UNL     1      33.674 -10.410  38.381  1.00  0.00     0.174 HD
ATOM     38  H11 UNL     1      33.427 -12.062  37.759  1.00  0.00     0.174 HD
ENDBRANCH  30  36
ENDBRANCH   1  28
BRANCH   8  39
HETATM   39  C8  UNL     1      42.324  -6.761  40.107  1.00  0.00    -0.008 A
HETATM   40  C9  UNL     1      42.198  -6.178  41.352  1.00  0.00     0.015 A
HETATM   41  C10 UNL     1      43.124  -6.444  42.338  1.00  0.00     0.018 A
HETATM   42  C11 UNL     1      44.169  -7.300  42.045  1.00  0.00     0.087 A
HETATM   43  N4  UNL     1      44.293  -7.868  40.833  1.00  0.00    -0.374 N
HETATM   44  C12 UNL     1      43.390  -7.607  39.877  1.00  0.00     0.100 A
ATOM     45  H4  UNL     1      45.074  -8.496  40.641  1.00  0.00     0.164 HD
ENDBRANCH   8  39
TORSDOF 3
ENDMDL