MODEL 4
REMARK VINA RESULT: -8.079511848      2.027      2.390
REMARK  4 active torsions:
REMARK  status: ('A' for Active; 'I' for Inactive)
REMARK    1  A    between atoms: N1_4  and  C4_5
REMARK    2  A    between atoms: C4_5  and  C5_6
REMARK    3  A    between atoms: C16_27  and  N6_28
REMARK       I    between atoms: N6_28  and  C17_30
REMARK       I    between atoms: C17_30  and  N7_32
REMARK    4  A    between atoms: N8_35  and  C20_36
ROOT
HETATM    1  C1  UNL     1     -22.817  37.418 -12.590  1.00  0.00     0.021 C
HETATM    2  C2  UNL     1     -23.048  37.962 -11.390  1.00  0.00    -0.029 C
HETATM    3  C3  UNL     1     -23.834  39.214 -11.354  1.00  0.00     0.311 C
HETATM    4  N1  UNL     1     -23.810  39.934 -12.639  1.00  0.00     0.101 N
HETATM    5  C6  UNL     1     -25.185  40.331 -12.993  1.00  0.00     0.299 C
HETATM    6  C7  UNL     1     -25.912  39.325 -13.809  1.00  0.00     0.198 C
HETATM    7  O1  UNL     1     -26.586  38.360 -13.102  1.00  0.00    -0.386 OA
HETATM    8  C8  UNL     1     -27.744  38.901 -12.564  1.00  0.00     0.194 C
HETATM    9  C9  UNL     1     -28.705  37.884 -12.070  1.00  0.00    -0.003 C
HETATM   10  C10 UNL     1     -28.431  36.846 -11.327  1.00  0.00    -0.003 C
HETATM   11  C11 UNL     1     -27.106  36.454 -10.814  1.00  0.00     0.194 C
HETATM   12  O2  UNL     1     -26.671  37.205  -9.721  1.00  0.00    -0.387 OA
HETATM   13  C12 UNL     1     -25.505  36.599  -9.258  1.00  0.00     0.172 C
HETATM   14  C13 UNL     1     -24.485  37.552  -8.713  1.00  0.00     0.066 C
HETATM   15  C14 UNL     1     -23.082  37.065  -9.023  1.00  0.00    -0.043 A
HETATM   16  C15 UNL     1     -22.386  36.383  -8.051  1.00  0.00     0.037 A
HETATM   17  C16 UNL     1     -21.092  35.862  -8.202  1.00  0.00     0.036 A
HETATM   18  C28 UNL     1     -20.522  36.070  -9.425  1.00  0.00     0.030 A
HETATM   19  C29 UNL     1     -21.210  36.758 -10.421  1.00  0.00     0.015 A
HETATM   20  C30 UNL     1     -22.487  37.264 -10.247  1.00  0.00    -0.022 A
ENDROOT
BRANCH  17  21
HETATM   21  N6  UNL     1     -20.502  35.162  -7.124  1.00  0.00    -0.309 N
HETATM   22  C17 UNL     1     -19.139  35.057  -6.904  1.00  0.00     0.323 C
HETATM   23  O3  UNL     1     -18.273  35.602  -7.669  1.00  0.00    -0.247 OA
HETATM   24  N7  UNL     1     -18.664  34.308  -5.774  1.00  0.00    -0.331 N
HETATM   25  C18 UNL     1     -17.245  34.178  -5.526  1.00  0.00     0.147 C
HETATM   26  C27 UNL     1     -19.609  33.688  -4.890  1.00  0.00     0.147 C
HETATM   27  C19 UNL     1     -17.036  32.720  -5.113  1.00  0.00     0.143 C
HETATM   28  N8  UNL     1     -17.797  32.457  -3.916  1.00  0.00    -0.378 N
HETATM   29  C26 UNL     1     -18.962  33.244  -3.580  1.00  0.00     0.143 C
ATOM     30  H6  UNL     1     -21.125  34.700  -6.462  1.00  0.00     0.170 HD
BRANCH  28  31
HETATM   31  C20 UNL     1     -17.360  31.390  -3.084  1.00  0.00     0.030 A
HETATM   32  C21 UNL     1     -18.142  31.056  -1.998  1.00  0.00     0.029 A
HETATM   33  C22 UNL     1     -17.740  30.007  -1.168  1.00  0.00     0.002 A
HETATM   34  C23 UNL     1     -16.581  29.326  -1.438  1.00  0.00     0.000 A
HETATM   35  C24 UNL     1     -15.806  29.665  -2.524  1.00  0.00     0.002 A
HETATM   36  C25 UNL     1     -16.199  30.696  -3.343  1.00  0.00     0.029 A
ENDBRANCH  28  31
ENDBRANCH  17  21
BRANCH   4  37
HETATM   37  C4  UNL     1     -22.990  41.141 -12.551  1.00  0.00     0.351 C
BRANCH  37  38
HETATM   38  C5  UNL     1     -21.619  40.825 -12.987  1.00  0.00     0.141 A
HETATM   39  N2  UNL     1     -20.567  40.410 -12.265  1.00  0.00    -0.271 N
HETATM   40  N3  UNL     1     -19.543  40.264 -13.073  1.00  0.00    -0.227 N
ATOM     41  H2  UNL     1     -20.563  40.239 -11.259  1.00  0.00     0.190 HD
HETATM   42  N4  UNL     1     -19.916  40.574 -14.285  1.00  0.00    -0.227 N
ATOM     43  H3  UNL     1     -18.609  39.959 -12.799  1.00  0.00     0.210 HD
HETATM   44  N5  UNL     1     -21.189  40.922 -14.259  1.00  0.00    -0.271 N
ATOM     45  H4  UNL     1     -19.322  40.551 -15.114  1.00  0.00     0.210 HD
ATOM     46  H5  UNL     1     -21.748  41.214 -15.060  1.00  0.00     0.190 HD
ENDBRANCH  37  38
ENDBRANCH   4  37
TORSDOF 4
ENDMDL