MODEL 5
REMARK VINA RESULT: -8.892434571      2.279      2.716
REMARK  6 active torsions:
REMARK  status: ('A' for Active; 'I' for Inactive)
REMARK    1  A    between atoms: N2_5  and  C4_6
REMARK    2  A    between atoms: C7_9  and  N3_10
REMARK    3  A    between atoms: N3_10  and  C8_11
REMARK    4  A    between atoms: C10_15  and  C11_16
REMARK    5  A    between atoms: C13_20  and  N6_21
REMARK    6  A    between atoms: N6_21  and  C14_23
ROOT
HETATM    1  C8  UNL     1     -19.647  35.719  -6.971  1.00  0.00     0.261 A
HETATM    2  N4  UNL     1     -19.976  34.870  -5.989  1.00  0.00    -0.315 N
ATOM      3  H4  UNL     1     -20.942  34.858  -5.663  1.00  0.00     0.170 HD
HETATM    4  C9  UNL     1     -19.100  34.036  -5.415  1.00  0.00     0.058 A
HETATM    5  C10 UNL     1     -19.473  33.179  -4.401  1.00  0.00     0.004 A
HETATM    6  C25 UNL     1     -18.506  32.344  -3.843  1.00  0.00     0.014 A
HETATM    7  C26 UNL     1     -17.197  32.304  -4.228  1.00  0.00     0.002 A
HETATM    8  C27 UNL     1     -16.867  33.187  -5.256  1.00  0.00     0.015 A
HETATM    9  C28 UNL     1     -17.771  34.018  -5.827  1.00  0.00     0.007 A
HETATM   10  C29 UNL     1     -17.405  34.884  -6.837  1.00  0.00     0.106 A
HETATM   11  N9  UNL     1     -18.295  35.673  -7.362  1.00  0.00    -0.325 N
ATOM     12  H9  UNL     1     -17.993  36.301  -8.107  1.00  0.00     0.169 HD
ENDROOT
BRANCH   5  13
HETATM   13  C11 UNL     1     -20.836  33.110  -3.884  1.00  0.00     0.008 A
HETATM   14  C12 UNL     1     -21.838  32.643  -4.756  1.00  0.00     0.120 A
HETATM   15  N5  UNL     1     -23.092  32.499  -4.308  1.00  0.00    -0.201 N
HETATM   16  C13 UNL     1     -23.481  32.776  -3.053  1.00  0.00     0.682 A
ATOM     17  H5  UNL     1     -23.796  32.158  -4.962  1.00  0.00     0.183 HD
HETATM   18  N8  UNL     1     -22.539  33.228  -2.207  1.00  0.00    -0.201 N
HETATM   19  C24 UNL     1     -21.237  33.393  -2.614  1.00  0.00     0.120 A
ATOM     20  H8  UNL     1     -22.795  33.452  -1.246  1.00  0.00     0.183 HD
BRANCH  16  21
HETATM   21  N6  UNL     1     -24.668  32.531  -2.627  1.00  0.00    -0.192 N
ATOM     22  H6  UNL     1     -24.941  32.995  -1.761  1.00  0.00     0.184 HD
BRANCH  21  23
HETATM   23  C14 UNL     1     -25.640  31.694  -3.217  1.00  0.00     0.049 A
HETATM   24  C15 UNL     1     -25.903  30.444  -2.738  1.00  0.00     0.030 A
HETATM   25  C16 UNL     1     -26.828  29.550  -3.301  1.00  0.00     0.012 A
HETATM   26  C17 UNL     1     -27.515  30.013  -4.438  1.00  0.00    -0.024 A
HETATM   27  C18 UNL     1     -27.280  31.250  -4.942  1.00  0.00    -0.046 A
HETATM   28  C23 UNL     1     -28.478  29.121  -5.128  1.00  0.00     0.311 C
HETATM   29  C19 UNL     1     -26.345  32.101  -4.340  1.00  0.00     0.037 A
HETATM   30  C20 UNL     1     -28.060  31.703  -6.118  1.00  0.00     0.069 C
HETATM   31  C21 UNL     1     -29.484  31.194  -5.866  1.00  0.00     0.277 C
HETATM   32  N7  UNL     1     -29.565  29.778  -5.764  1.00  0.00     0.088 N
HETATM   33  C22 UNL     1     -30.793  29.357  -5.125  1.00  0.00     0.310 C
ENDBRANCH  21  23
ENDBRANCH  16  21
ENDBRANCH   5  13
BRANCH   1  34
HETATM   34  N3  UNL     1     -20.335  36.479  -7.591  1.00  0.00    -0.352 NA
BRANCH  34  35
HETATM   35  C7  UNL     1     -21.092  37.314  -8.263  1.00  0.00     0.182 A
HETATM   36  C6  UNL     1     -21.645  38.445  -7.561  1.00  0.00     0.066 A
HETATM   37  C5  UNL     1     -22.411  39.381  -8.125  1.00  0.00     0.035 A
HETATM   38  C4  UNL     1     -22.708  39.285  -9.466  1.00  0.00     0.046 A
HETATM   39  C30 UNL     1     -22.195  38.208 -10.166  1.00  0.00     0.120 A
HETATM   40  N10 UNL     1     -21.426  37.280  -9.578  1.00  0.00    -0.339 N
ATOM     41  H10 UNL     1     -21.075  36.511 -10.148  1.00  0.00     0.168 HD
BRANCH  38  42
HETATM   42  N2  UNL     1     -23.472  40.321 -10.070  1.00  0.00    -0.376 N
HETATM   43  C3  UNL     1     -23.864  40.288 -11.452  1.00  0.00     0.153 C
HETATM   44  C2  UNL     1     -24.921  41.243 -11.856  1.00  0.00     0.291 C
HETATM   45  N1  UNL     1     -25.059  42.428 -11.064  1.00  0.00     0.087 N
HETATM   46  C1  UNL     1     -26.272  42.443 -10.271  1.00  0.00     0.310 C
HETATM   47  C32 UNL     1     -23.910  42.653 -10.201  1.00  0.00     0.291 C
HETATM   48  C31 UNL     1     -23.828  41.462  -9.250  1.00  0.00     0.153 C
ENDBRANCH  38  42
ENDBRANCH  34  35
ENDBRANCH   1  34
TORSDOF 6
ENDMDL