MODEL 1
REMARK VINA RESULT: -7.287358046      0.000      0.000
REMARK  8 active torsions:
REMARK  status: ('A' for Active; 'I' for Inactive)
REMARK    1  A    between atoms: C2_2  and  S1_3
REMARK    2  A    between atoms: S1_3  and  C3_6
REMARK    3  A    between atoms: C6_9  and  C7_10
REMARK    4  A    between atoms: C7_10  and  C8_11
REMARK    5  A    between atoms: C8_11  and  C9_12
REMARK    6  A    between atoms: C9_12  and  C10_13
REMARK    7  A    between atoms: C10_13  and  N1_14
REMARK    8  A    between atoms: N1_14  and  C11_16
ROOT
HETATM    1  C11 UNL     1     -18.862  34.446  -5.289  1.00  0.00     0.113 A
HETATM    2  N2  UNL     1     -17.875  34.137  -6.187  1.00  0.00    -0.338 N
ATOM      3  H2  UNL     1     -17.823  34.627  -7.080  1.00  0.00     0.168 HD
HETATM    4  C12 UNL     1     -16.976  33.187  -5.889  1.00  0.00     0.184 A
HETATM    5  N3  UNL     1     -17.048  32.546  -4.714  1.00  0.00    -0.332 N
ATOM      6  H3  UNL     1     -16.363  31.824  -4.491  1.00  0.00     0.168 HD
HETATM    7  C13 UNL     1     -18.031  32.849  -3.810  1.00  0.00     0.161 A
HETATM    8  C14 UNL     1     -18.985  33.821  -4.070  1.00  0.00     0.048 A
HETATM    9  C15 UNL     1     -20.005  34.083  -3.107  1.00  0.00     0.018 C
HETATM   10  C16 UNL     1     -20.727  35.339  -2.998  1.00  0.00     0.016 C
HETATM   11  C17 UNL     1     -22.182  35.280  -3.423  1.00  0.00     0.001 C
HETATM   12  C18 UNL     1     -22.912  34.411  -2.396  1.00  0.00     0.000 C
HETATM   13  C19 UNL     1     -22.177  33.100  -2.292  1.00  0.00     0.001 C
HETATM   14  C20 UNL     1     -21.065  32.973  -3.283  1.00  0.00     0.016 C
HETATM   15  C21 UNL     1     -19.431  33.759  -1.712  1.00  0.00     0.180 C
HETATM   16  C22 UNL     1     -18.236  34.609  -1.487  1.00  0.00     0.073 C
HETATM   17  N4  UNL     1     -17.308  35.277  -1.308  1.00  0.00    -0.196 NA
HETATM   18  C23 UNL     1     -18.933  32.359  -1.666  1.00  0.00     0.138 C
HETATM   19  N5  UNL     1     -19.302  31.451  -0.862  1.00  0.00    -0.382 N
ATOM     20  H51 UNL     1     -18.960  30.491  -0.830  1.00  0.00     0.158 HD
ATOM     21  H52 UNL     1     -20.010  31.643  -0.153  1.00  0.00     0.158 HD
HETATM   22  O3  UNL     1     -17.954  32.093  -2.646  1.00  0.00    -0.279 OA
ENDROOT
BRANCH   1  23
HETATM   23  N1  UNL     1     -19.727  35.353  -5.556  1.00  0.00    -0.374 N
ATOM     24  H1  UNL     1     -20.250  35.823  -4.817  1.00  0.00     0.161 HD
BRANCH  23  25
HETATM   25  C10 UNL     1     -19.929  35.680  -6.943  1.00  0.00     0.144 C
BRANCH  25  26
HETATM   26  C9  UNL     1     -21.320  36.173  -7.276  1.00  0.00     0.043 C
HETATM   27  C24 UNL     1     -21.564  36.264  -8.747  1.00  0.00     0.054 C
HETATM   28  C25 UNL     1     -22.338  37.438  -9.206  1.00  0.00     0.273 C
HETATM   29  N6  UNL     1     -23.197  37.904  -8.142  1.00  0.00     0.084 N
HETATM   30  C26 UNL     1     -24.206  38.827  -8.597  1.00  0.00     0.309 C
HETATM   31  C27 UNL     1     -22.314  38.496  -7.152  1.00  0.00     0.273 C
HETATM   32  C28 UNL     1     -21.610  37.376  -6.470  1.00  0.00     0.054 C
BRANCH  26  33
HETATM   33  C8  UNL     1     -22.221  35.081  -6.806  1.00  0.00    -0.089 C
BRANCH  33  34
HETATM   34  C7  UNL     1     -22.945  34.196  -6.406  1.00  0.00    -0.066 C
BRANCH  34  35
HETATM   35  C6  UNL     1     -23.791  33.154  -5.909  1.00  0.00     0.017 A
HETATM   36  C5  UNL     1     -25.087  33.383  -5.492  1.00  0.00     0.022 A
HETATM   37  C4  UNL     1     -25.838  32.345  -5.030  1.00  0.00     0.025 A
HETATM   38  C3  UNL     1     -25.336  31.065  -4.968  1.00  0.00     0.063 A
HETATM   39  C30 UNL     1     -24.046  30.854  -5.387  1.00  0.00     0.025 A
HETATM   40  C29 UNL     1     -23.261  31.884  -5.858  1.00  0.00     0.022 A
BRANCH  38  41
HETATM   41  S1  UNL     1     -26.268  29.716  -4.383  1.00  0.00     0.196 S
HETATM   42  O1  UNL     1     -27.621  29.671  -5.040  1.00  0.00    -0.218 OA
HETATM   43  O2  UNL     1     -25.530  28.430  -4.730  1.00  0.00    -0.218 OA
BRANCH  41  44
HETATM   44  C2  UNL     1     -26.435  29.743  -2.644  1.00  0.00     0.104 C
HETATM   45  C1  UNL     1     -25.746  30.604  -1.920  1.00  0.00     0.024 C
ENDBRANCH  41  44
ENDBRANCH  38  41
ENDBRANCH  34  35
ENDBRANCH  33  34
ENDBRANCH  26  33
ENDBRANCH  25  26
ENDBRANCH  23  25
ENDBRANCH   1  23
TORSDOF 8
ENDMDL