MODEL 3
REMARK VINA RESULT: -6.755354494      4.874     10.295
REMARK  11 active torsions:
REMARK  status: ('A' for Active; 'I' for Inactive)
REMARK    1  A    between atoms: C5_6  and  C6_7
REMARK    2  A    between atoms: C10_13  and  N3_14
REMARK    3  A    between atoms: C13_19  and  C15_22
REMARK    4  A    between atoms: C15_22  and  C16_23
REMARK    5  A    between atoms: C17_24  and  C18_25
REMARK    6  A    between atoms: C19_26  and  C20_27
REMARK    7  A    between atoms: C21_28  and  C22_29
REMARK    8  A    between atoms: C23_30  and  C24_31
REMARK    9  A    between atoms: C24_31  and  O2_32
REMARK   10  A    between atoms: C24_31  and  C25_34
REMARK   11  A    between atoms: C25_34  and  O3_37
ROOT
HETATM    1  N3  UNL     1     -24.544  38.334 -10.609  1.00  0.00    -0.284 N
HETATM    2  C11 UNL     1     -24.955  37.710 -11.801  1.00  0.00     0.235 C
HETATM    3  O1  UNL     1     -24.958  36.437 -11.990  1.00  0.00    -0.272 OA
HETATM    4  C12 UNL     1     -25.396  38.675 -12.843  1.00  0.00     0.180 C
HETATM    5  S1  UNL     1     -24.608  40.204 -12.265  1.00  0.00    -0.112 SA
HETATM    6  C13 UNL     1     -23.679  39.475 -10.818  1.00  0.00     0.188 C
HETATM    7  C14 UNL     1     -23.743  40.427  -9.708  1.00  0.00     0.104 C
HETATM    8  N4  UNL     1     -23.813  41.185  -8.830  1.00  0.00    -0.194 NA
ENDROOT
BRANCH   6   9
HETATM    9  C15 UNL     1     -22.314  39.236 -11.310  1.00  0.00     0.154 C
BRANCH   9  10
HETATM   10  C16 UNL     1     -21.445  38.402 -10.517  1.00  0.00    -0.088 C
HETATM   11  C17 UNL     1     -20.785  37.690  -9.803  1.00  0.00    -0.015 C
BRANCH  11  12
HETATM   12  C18 UNL     1     -20.076  36.842  -8.903  1.00  0.00    -0.010 C
HETATM   13  C19 UNL     1     -19.523  36.105  -8.093  1.00  0.00    -0.064 C
BRANCH  13  14
HETATM   14  C20 UNL     1     -18.943  35.235  -7.115  1.00  0.00     0.074 C
HETATM   15  C21 UNL     1     -19.640  34.332  -6.484  1.00  0.00     0.073 C
BRANCH  15  16
HETATM   16  C22 UNL     1     -18.998  33.484  -5.507  1.00  0.00    -0.075 C
HETATM   17  C23 UNL     1     -18.473  32.775  -4.655  1.00  0.00    -0.067 C
BRANCH  17  18
HETATM   18  C24 UNL     1     -17.863  31.944  -3.605  1.00  0.00     0.230 C
BRANCH  18  19
HETATM   19  O2  UNL     1     -16.502  32.100  -3.614  1.00  0.00    -0.380 OA
ATOM     20  H2  UNL     1     -16.120  31.676  -2.854  1.00  0.00     0.211 HD
ENDBRANCH  18  19
BRANCH  18  21
HETATM   21  C25 UNL     1     -18.431  32.319  -2.238  1.00  0.00     0.087 C
HETATM   22  C26 UNL     1     -18.289  31.199  -1.261  1.00  0.00     0.049 C
HETATM   23  C27 UNL     1     -17.796  33.613  -1.783  1.00  0.00     0.049 C
BRANCH  21  24
HETATM   24  O3  UNL     1     -19.803  32.529  -2.438  1.00  0.00    -0.387 OA
ATOM     25  H3  UNL     1     -20.208  32.421  -1.586  1.00  0.00     0.210 HD
ENDBRANCH  21  24
ENDBRANCH  18  21
ENDBRANCH  17  18
ENDBRANCH  15  16
ENDBRANCH  13  14
ENDBRANCH  11  12
ENDBRANCH   9  10
ENDBRANCH   6   9
BRANCH   1  26
HETATM   26  C10 UNL     1     -24.881  37.987  -9.253  1.00  0.00     0.041 A
HETATM   27  C9  UNL     1     -26.161  38.219  -8.805  1.00  0.00     0.032 A
HETATM   28  C8  UNL     1     -26.603  37.842  -7.579  1.00  0.00     0.033 A
HETATM   29  C7  UNL     1     -25.750  37.180  -6.682  1.00  0.00     0.050 A
HETATM   30  N2  UNL     1     -26.063  36.739  -5.499  1.00  0.00    -0.352 N
HETATM   31  C29 UNL     1     -24.463  36.944  -7.116  1.00  0.00     0.035 A
HETATM   32  C6  UNL     1     -25.189  36.101  -4.770  1.00  0.00     0.058 A
ATOM     33  H2  UNL     1     -27.005  36.892  -5.138  1.00  0.00     0.166 HD
HETATM   34  S2  UNL     1     -23.803  36.104  -5.784  1.00  0.00    -0.074 SA
HETATM   35  C28 UNL     1     -24.034  37.345  -8.386  1.00  0.00     0.051 A
BRANCH  32  36
HETATM   36  C5  UNL     1     -25.362  35.475  -3.380  1.00  0.00     0.071 C
HETATM   37  C4  UNL     1     -24.206  35.910  -2.577  1.00  0.00     0.015 C
HETATM   38  C3  UNL     1     -24.000  35.077  -1.366  1.00  0.00     0.031 C
HETATM   39  C2  UNL     1     -25.054  34.039  -1.173  1.00  0.00     0.272 C
HETATM   40  N1  UNL     1     -25.339  33.285  -2.348  1.00  0.00     0.085 N
HETATM   41  C1  UNL     1     -24.584  32.040  -2.421  1.00  0.00     0.309 C
HETATM   42  C30 UNL     1     -25.369  33.980  -3.575  1.00  0.00     0.283 C
ENDBRANCH  32  36
ENDBRANCH   1  26
TORSDOF 11
ENDMDL