MODEL 1
REMARK VINA RESULT: -8.212583078      0.000      0.000
REMARK  5 active torsions:
REMARK  status: ('A' for Active; 'I' for Inactive)
REMARK       I    between atoms: C2_5  and  N3_6
REMARK       I    between atoms: C2_5  and  N6_35
REMARK    1  A    between atoms: N3_6  and  C3_8
REMARK    2  A    between atoms: N4_11  and  C6_12
REMARK    3  A    between atoms: N6_35  and  C24_37
REMARK    4  A    between atoms: C24_37  and  C25_38
REMARK    5  A    between atoms: C25_38  and  N7_39
ROOT
HETATM    1  N1  UNL     1     -24.519  31.923  -5.379  1.00  0.00    -0.171 NA
HETATM    2  C1  UNL     1     -23.573  32.308  -4.834  1.00  0.00     0.196 C
HETATM    3  N2  UNL     1     -22.398  32.763  -4.178  1.00  0.00    -0.126 N
ATOM      4  H2  UNL     1     -21.635  32.110  -4.001  1.00  0.00     0.197 HD
HETATM    5  C2  UNL     1     -22.283  33.991  -3.804  1.00  0.00     0.687 C
HETATM    6  N3  UNL     1     -23.345  34.883  -4.056  1.00  0.00    -0.187 N
ATOM      7  H3  UNL     1     -24.077  34.931  -3.346  1.00  0.00     0.184 HD
HETATM    8  N6  UNL     1     -21.132  34.468  -3.136  1.00  0.00    -0.224 N
ATOM      9  H6  UNL     1     -20.899  35.453  -3.263  1.00  0.00     0.177 HD
ENDROOT
BRANCH   6  10
HETATM   10  C3  UNL     1     -23.493  35.639  -5.076  1.00  0.00     0.101 A
HETATM   11  C4  UNL     1     -22.510  35.527  -6.056  1.00  0.00     0.066 A
HETATM   12  C5  UNL     1     -22.547  36.270  -7.211  1.00  0.00     0.064 A
HETATM   13  N4  UNL     1     -21.679  36.115  -8.231  1.00  0.00    -0.338 N
HETATM   14  C18 UNL     1     -23.674  37.203  -7.416  1.00  0.00     0.064 A
HETATM   15  C12 UNL     1     -21.867  36.777  -9.433  1.00  0.00     0.065 A
HETATM   16  C13 UNL     1     -21.122  36.541 -10.556  1.00  0.00     0.033 A
HETATM   17  C17 UNL     1     -22.956  37.643  -9.553  1.00  0.00     0.094 A
HETATM   18  C14 UNL     1     -21.364  37.113 -11.794  1.00  0.00     0.014 A
HETATM   19  C15 UNL     1     -22.426  37.971 -11.913  1.00  0.00     0.001 A
HETATM   20  C16 UNL     1     -23.201  38.220 -10.804  1.00  0.00     0.106 A
HETATM   21  C23 UNL     1     -22.505  38.474 -13.307  1.00  0.00     0.209 C
HETATM   22  O2  UNL     1     -24.311  39.048 -10.718  1.00  0.00    -0.346 OA
HETATM   23  C21 UNL     1     -24.885  39.914 -11.705  1.00  0.00     0.202 C
HETATM   24  C22 UNL     1     -23.820  40.210 -12.764  1.00  0.00     0.194 C
HETATM   25  O3  UNL     1     -23.716  39.083 -13.555  1.00  0.00    -0.384 OA
HETATM   26  N5  UNL     1     -23.845  37.864  -8.571  1.00  0.00    -0.350 N
ATOM     27  H5  UNL     1     -24.624  38.511  -8.698  1.00  0.00     0.166 HD
HETATM   28  C19 UNL     1     -24.623  37.281  -6.416  1.00  0.00     0.089 A
HETATM   29  C20 UNL     1     -24.533  36.516  -5.274  1.00  0.00     0.201 A
HETATM   30  O1  UNL     1     -25.418  36.618  -4.388  1.00  0.00    -0.286 OA
BRANCH  13  31
HETATM   31  C6  UNL     1     -20.340  35.577  -8.034  1.00  0.00     0.090 C
HETATM   32  C7  UNL     1     -19.927  34.210  -8.309  1.00  0.00     0.026 C
HETATM   33  C8  UNL     1     -20.580  33.092  -7.527  1.00  0.00     0.002 C
HETATM   34  C9  UNL     1     -19.850  33.029  -6.192  1.00  0.00     0.000 C
HETATM   35  C10 UNL     1     -19.368  34.389  -5.902  1.00  0.00     0.002 C
HETATM   36  C11 UNL     1     -20.155  35.548  -6.467  1.00  0.00     0.026 C
ENDBRANCH  13  31
ENDBRANCH   6  10
BRANCH   8  37
HETATM   37  C24 UNL     1     -20.254  33.695  -2.291  1.00  0.00     0.168 C
BRANCH  37  38
HETATM   38  C25 UNL     1     -18.838  34.124  -2.403  1.00  0.00     0.292 C
BRANCH  38  39
HETATM   39  N7  UNL     1     -17.906  33.011  -2.362  1.00  0.00     0.094 N
HETATM   40  C26 UNL     1     -17.082  32.907  -3.537  1.00  0.00     0.298 C
HETATM   41  C27 UNL     1     -17.370  31.632  -4.267  1.00  0.00     0.198 C
HETATM   42  O4  UNL     1     -17.087  30.538  -3.485  1.00  0.00    -0.388 OA
HETATM   43  C28 UNL     1     -17.403  30.708  -2.144  1.00  0.00     0.198 C
HETATM   44  C29 UNL     1     -18.506  31.759  -1.985  1.00  0.00     0.298 C
ENDBRANCH  38  39
ENDBRANCH  37  38
ENDBRANCH   8  37
TORSDOF 5
ENDMDL