MODEL 4
REMARK VINA RESULT: -8.282326591      5.043      8.595
REMARK  7 active torsions:
REMARK  status: ('A' for Active; 'I' for Inactive)
REMARK    1  A    between atoms: N2_5  and  C4_6
REMARK    2  A    between atoms: C5_9  and  N4_10
REMARK    3  A    between atoms: N4_10  and  C6_12
REMARK    4  A    between atoms: C11_17  and  C12_18
REMARK    5  A    between atoms: C13_19  and  C14_20
REMARK    6  A    between atoms: C18_26  and  N6_27
REMARK    7  A    between atoms: N9_38  and  C25_40
ROOT
HETATM    1  N4  UNL     1     -25.115  34.713  -4.132  1.00  0.00    -0.189 N
ATOM      2  H4  UNL     1     -25.998  34.517  -4.603  1.00  0.00     0.184 HD
ENDROOT
BRANCH   1   3
HETATM    3  C5  UNL     1     -24.048  35.002  -4.812  1.00  0.00     0.711 A
HETATM    4  N3  UNL     1     -22.833  34.498  -4.458  1.00  0.00    -0.021 N
HETATM    5  C4  UNL     1     -21.723  34.791  -5.153  1.00  0.00     0.709 A
ATOM      6  H3  UNL     1     -22.766  33.884  -3.647  1.00  0.00     0.203 HD
HETATM    7  N10 UNL     1     -21.798  35.599  -6.223  1.00  0.00    -0.021 N
HETATM    8  C24 UNL     1     -22.996  36.130  -6.617  1.00  0.00     0.711 A
ATOM      9  H10 UNL     1     -20.952  35.818  -6.749  1.00  0.00     0.203 HD
HETATM   10  N8  UNL     1     -24.075  35.804  -5.886  1.00  0.00    -0.021 N
HETATM   11  N9  UNL     1     -23.090  36.909  -7.644  1.00  0.00    -0.191 N
ATOM     12  H8  UNL     1     -24.976  36.192  -6.166  1.00  0.00     0.203 HD
ATOM     13  H9  UNL     1     -24.012  37.273  -7.886  1.00  0.00     0.184 HD
BRANCH   5  14
HETATM   14  N2  UNL     1     -20.461  34.265  -4.783  1.00  0.00    -0.213 N
HETATM   15  C3  UNL     1     -19.903  34.357  -3.451  1.00  0.00     0.171 C
HETATM   16  C2  UNL     1     -19.012  33.163  -3.215  1.00  0.00     0.292 C
HETATM   17  N1  UNL     1     -17.901  33.078  -4.115  1.00  0.00     0.087 N
HETATM   18  C1  UNL     1     -17.400  31.724  -4.259  1.00  0.00     0.310 C
HETATM   19  C32 UNL     1     -18.166  33.675  -5.406  1.00  0.00     0.292 C
HETATM   20  C31 UNL     1     -19.631  33.578  -5.778  1.00  0.00     0.171 C
ENDBRANCH   5  14
BRANCH  11  21
HETATM   21  C25 UNL     1     -22.003  37.285  -8.443  1.00  0.00     0.049 A
HETATM   22  C26 UNL     1     -21.025  38.105  -7.925  1.00  0.00     0.030 A
HETATM   23  C27 UNL     1     -19.970  38.454  -8.741  1.00  0.00     0.002 A
HETATM   24  C28 UNL     1     -19.849  38.023 -10.047  1.00  0.00     0.000 A
HETATM   25  C29 UNL     1     -20.836  37.208 -10.541  1.00  0.00     0.002 A
HETATM   26  C30 UNL     1     -21.903  36.842  -9.750  1.00  0.00     0.030 A
ENDBRANCH  11  21
ENDBRANCH   1   3
BRANCH   1  27
HETATM   27  C6  UNL     1     -25.024  34.676  -2.719  1.00  0.00     0.068 A
HETATM   28  C7  UNL     1     -24.736  35.816  -1.969  1.00  0.00     0.031 A
HETATM   29  C8  UNL     1     -24.650  35.767  -0.592  1.00  0.00     0.002 A
HETATM   30  C9  UNL     1     -24.853  34.565   0.051  1.00  0.00     0.002 A
HETATM   31  C10 UNL     1     -25.137  33.442  -0.693  1.00  0.00     0.023 A
HETATM   32  C11 UNL     1     -25.226  33.478  -2.084  1.00  0.00     0.045 A
BRANCH  32  33
HETATM   33  C12 UNL     1     -25.522  32.311  -2.864  1.00  0.00    -0.058 C
HETATM   34  C13 UNL     1     -25.760  31.313  -3.511  1.00  0.00    -0.043 C
BRANCH  34  35
HETATM   35  C14 UNL     1     -26.019  30.121  -4.270  1.00  0.00     0.087 A
HETATM   36  C15 UNL     1     -26.571  29.005  -3.664  1.00  0.00     0.041 A
HETATM   37  C16 UNL     1     -26.831  27.846  -4.369  1.00  0.00     0.035 A
HETATM   38  C17 UNL     1     -26.542  27.774  -5.718  1.00  0.00     0.060 A
HETATM   39  N5  UNL     1     -26.777  26.667  -6.446  1.00  0.00    -0.341 N
HETATM   40  C23 UNL     1     -25.992  28.903  -6.300  1.00  0.00     0.060 A
HETATM   41  C18 UNL     1     -26.499  26.580  -7.768  1.00  0.00     0.102 A
ATOM     42  H5  UNL     1     -27.183  25.856  -5.980  1.00  0.00     0.167 HD
HETATM   43  C21 UNL     1     -25.951  27.682  -8.386  1.00  0.00     0.051 A
HETATM   44  C22 UNL     1     -25.706  28.818  -7.655  1.00  0.00     0.035 A
HETATM   45  N7  UNL     1     -25.752  30.019  -5.579  1.00  0.00    -0.347 N
ATOM     46  H7  UNL     1     -25.346  30.825  -6.054  1.00  0.00     0.167 HD
BRANCH  41  47
HETATM   47  N6  UNL     1     -26.766  25.382  -8.504  1.00  0.00    -0.376 N
HETATM   48  C19 UNL     1     -28.057  24.768  -8.392  1.00  0.00     0.150 C
HETATM   49  C20 UNL     1     -25.773  24.777  -9.354  1.00  0.00     0.150 C
ENDBRANCH  41  47
ENDBRANCH  34  35
ENDBRANCH  32  33
ENDBRANCH   1  27
TORSDOF 7
ENDMDL