MODEL 1
REMARK VINA RESULT: -7.449098130      0.000      0.000
REMARK  3 active torsions:
REMARK  status: ('A' for Active; 'I' for Inactive)
REMARK    1  A    between atoms: N2_6  and  N3_7
REMARK    2  A    between atoms: N5_28  and  C19_29
REMARK    3  A    between atoms: C19_29  and  C20_30
ROOT
HETATM    1  C1  UNL     1     -22.271  37.850  -9.598  1.00  0.00     0.143 C
HETATM    2  N1  UNL     1     -23.321  37.339  -8.779  1.00  0.00    -0.415 N
HETATM    3  C2  UNL     1     -24.352  36.642  -9.468  1.00  0.00     0.118 C
HETATM    4  C3  UNL     1     -25.656  37.378  -9.558  1.00  0.00     0.041 C
HETATM    5  C4  UNL     1     -26.690  36.635  -8.770  1.00  0.00     0.150 C
HETATM    6  N2  UNL     1     -27.552  35.858  -9.630  1.00  0.00    -0.269 N
HETATM    7  C5  UNL     1     -28.830  35.443  -9.164  1.00  0.00     0.150 C
HETATM    8  C6  UNL     1     -28.777  34.126  -8.383  1.00  0.00     0.041 C
HETATM    9  C7  UNL     1     -30.098  33.437  -8.635  1.00  0.00     0.121 C
HETATM   10  N4  UNL     1     -30.074  32.044  -8.232  1.00  0.00    -0.390 N
ATOM     11  H4  UNL     1     -30.910  31.523  -8.498  1.00  0.00     0.159 HD
HETATM   12  C8  UNL     1     -29.106  31.265  -7.534  1.00  0.00     0.030 A
HETATM   13  C9  UNL     1     -29.003  29.992  -8.155  1.00  0.00     0.029 A
HETATM   14  C10 UNL     1     -28.168  28.994  -7.739  1.00  0.00     0.005 A
HETATM   15  C11 UNL     1     -27.402  29.302  -6.639  1.00  0.00     0.037 A
HETATM   16  C12 UNL     1     -27.457  30.541  -5.980  1.00  0.00     0.070 A
HETATM   17  C13 UNL     1     -28.321  31.524  -6.442  1.00  0.00     0.065 A
HETATM   18  O3  UNL     1     -26.584  30.578  -4.909  1.00  0.00    -0.351 OA
HETATM   19  C14 UNL     1     -26.661  30.768  -3.542  1.00  0.00     0.178 C
HETATM   20  C15 UNL     1     -25.702  31.896  -3.163  1.00  0.00     0.053 C
HETATM   21  C16 UNL     1     -25.216  31.763  -1.756  1.00  0.00     0.169 C
HETATM   22  O4  UNL     1     -23.828  31.831  -1.751  1.00  0.00    -0.389 OA
HETATM   23  C17 UNL     1     -23.468  33.102  -2.195  1.00  0.00     0.187 C
HETATM   24  C18 UNL     1     -22.198  33.029  -3.055  1.00  0.00     0.153 C
HETATM   25  N5  UNL     1     -21.707  34.341  -3.216  1.00  0.00    -0.366 N
HETATM   26  C25 UNL     1     -22.643  35.370  -3.403  1.00  0.00     0.065 C
HETATM   27  C26 UNL     1     -22.138  36.627  -4.016  1.00  0.00     0.072 C
HETATM   28  C27 UNL     1     -21.578  36.465  -5.389  1.00  0.00     0.237 C
HETATM   29  N7  UNL     1     -22.592  36.652  -6.399  1.00  0.00    -0.073 N
ATOM     30  H71 UNL     1     -23.461  36.166  -6.181  1.00  0.00     0.277 HD
ATOM     31  H72 UNL     1     -22.378  36.164  -7.269  1.00  0.00     0.277 HD
HETATM   32  C28 UNL     1     -22.776  38.083  -6.586  1.00  0.00     0.251 C
HETATM   33  C29 UNL     1     -23.765  38.222  -7.751  1.00  0.00     0.143 C
ENDROOT
BRANCH  25  34
HETATM   34  C19 UNL     1     -20.434  34.666  -2.728  1.00  0.00     0.119 C
BRANCH  34  35
HETATM   35  C20 UNL     1     -19.395  33.825  -3.379  1.00  0.00     0.047 A
HETATM   36  C21 UNL     1     -18.600  33.018  -2.621  1.00  0.00     0.031 A
HETATM   37  C22 UNL     1     -17.643  32.248  -3.250  1.00  0.00     0.004 A
HETATM   38  C23 UNL     1     -17.486  32.292  -4.627  1.00  0.00     0.017 A
HETATM   39  C24 UNL     1     -18.306  33.116  -5.345  1.00  0.00     0.088 A
HETATM   40  N6  UNL     1     -19.226  33.854  -4.735  1.00  0.00    -0.365 N
ATOM     41  H6  UNL     1     -19.824  34.461  -5.295  1.00  0.00     0.165 HD
ENDBRANCH  34  35
ENDBRANCH  25  34
BRANCH   6  42
HETATM   42  N3  UNL     1     -27.105  35.535 -10.902  1.00  0.00    -0.041 N
HETATM   43  O1  UNL     1     -26.453  34.520 -11.102  1.00  0.00    -0.517 OA
HETATM   44  O2  UNL     1     -27.402  36.373 -11.944  1.00  0.00    -0.517 OA
ENDBRANCH   6  42
TORSDOF 3
ENDMDL