MODEL 3
REMARK VINA RESULT: -7.330531935      4.947      8.391
REMARK  10 active torsions:
REMARK  status: ('A' for Active; 'I' for Inactive)
REMARK    1  A    between atoms: C2_2  and  C3_3
REMARK    2  A    between atoms: C4_4  and  C5_5
REMARK    3  A    between atoms: C5_5  and  C6_6
REMARK    4  A    between atoms: C6_6  and  C7_7
REMARK    5  A    between atoms: C8_8  and  C9_9
REMARK    6  A    between atoms: C9_9  and  C10_10
REMARK    7  A    between atoms: C10_10  and  O1_11
REMARK    8  A    between atoms: C19_24  and  O3_25
REMARK    9  A    between atoms: C20_27  and  O4_28
REMARK   10  A    between atoms: O4_28  and  C21_29
ROOT
HETATM    1  C10 UNL     1     -22.658  33.369  -3.127  1.00  0.00     0.075 C
HETATM    2  C11 UNL     1     -21.364  32.841  -3.712  1.00  0.00     0.040 C
HETATM    3  C12 UNL     1     -21.790  32.577  -5.152  1.00  0.00     0.010 C
HETATM    4  C13 UNL     1     -22.634  33.773  -5.450  1.00  0.00     0.020 C
HETATM    5  C14 UNL     1     -21.788  34.770  -6.202  1.00  0.00     0.096 C
HETATM    6  N1  UNL     1     -21.377  34.143  -7.441  1.00  0.00    -0.369 N
ATOM      7  H1  UNL     1     -21.421  33.131  -7.563  1.00  0.00     0.161 HD
HETATM    8  C15 UNL     1     -20.953  34.915  -8.385  1.00  0.00     0.112 C
HETATM    9  C16 UNL     1     -20.527  34.286  -9.667  1.00  0.00     0.097 C
HETATM   10  O2  UNL     1     -20.929  36.272  -8.133  1.00  0.00    -0.312 OA
HETATM   11  C17 UNL     1     -22.018  36.853  -7.443  1.00  0.00     0.181 C
HETATM   12  C18 UNL     1     -21.694  38.258  -6.980  1.00  0.00     0.091 C
HETATM   13  C19 UNL     1     -21.446  39.099  -8.170  1.00  0.00     0.166 C
HETATM   14  C20 UNL     1     -22.467  38.808  -9.226  1.00  0.00     0.278 C
HETATM   15  S1  UNL     1     -23.231  37.260  -8.714  1.00  0.00     0.207 S
HETATM   16  O6  UNL     1     -24.567  37.510  -8.129  1.00  0.00    -0.222 OA
HETATM   17  O7  UNL     1     -23.217  36.253  -9.797  1.00  0.00    -0.222 OA
HETATM   18  C26 UNL     1     -22.609  36.005  -6.383  1.00  0.00     0.059 C
HETATM   19  C27 UNL     1     -22.790  36.664  -5.048  1.00  0.00     0.011 C
HETATM   20  C28 UNL     1     -22.716  35.735  -3.885  1.00  0.00     0.013 C
HETATM   21  C29 UNL     1     -23.146  34.327  -4.145  1.00  0.00    -0.006 C
HETATM   22  C30 UNL     1     -24.656  34.278  -4.201  1.00  0.00     0.019 C
ENDROOT
BRANCH  13  23
HETATM   23  O3  UNL     1     -20.138  39.044  -8.636  1.00  0.00    -0.392 OA
ATOM     24  H3  UNL     1     -19.917  39.737  -9.247  1.00  0.00     0.210 HD
ENDBRANCH  13  23
BRANCH  14  25
HETATM   25  O4  UNL     1     -21.748  38.489 -10.402  1.00  0.00    -0.338 OA
BRANCH  25  26
HETATM   26  C21 UNL     1     -22.110  39.318 -11.458  1.00  0.00     0.261 C
HETATM   27  C22 UNL     1     -23.271  38.752 -12.227  1.00  0.00     0.061 C
HETATM   28  C23 UNL     1     -22.928  37.431 -12.883  1.00  0.00     0.007 C
HETATM   29  C24 UNL     1     -21.640  37.616 -13.655  1.00  0.00     0.026 C
HETATM   30  C25 UNL     1     -21.166  39.032 -13.548  1.00  0.00     0.171 C
HETATM   31  O5  UNL     1     -20.993  39.477 -12.260  1.00  0.00    -0.361 OA
ENDBRANCH  25  26
ENDBRANCH  14  25
BRANCH   1  32
HETATM   32  C9  UNL     1     -22.462  33.922  -1.746  1.00  0.00     0.132 C
BRANCH  32  33
HETATM   33  C8  UNL     1     -21.104  34.400  -1.530  1.00  0.00    -0.104 C
HETATM   34  C7  UNL     1     -19.959  34.780  -1.346  1.00  0.00    -0.106 C
BRANCH  34  35
HETATM   35  C6  UNL     1     -18.576  35.217  -1.110  1.00  0.00     0.106 C
BRANCH  35  36
HETATM   36  C5  UNL     1     -17.602  34.101  -1.454  1.00  0.00     0.106 C
BRANCH  36  37
HETATM   37  C4  UNL     1     -17.711  33.735  -2.875  1.00  0.00    -0.106 C
HETATM   38  C3  UNL     1     -17.817  33.449  -4.052  1.00  0.00    -0.107 C
BRANCH  38  39
HETATM   39  C2  UNL     1     -17.962  33.122  -5.468  1.00  0.00     0.089 C
HETATM   40  C1  UNL     1     -18.018  34.433  -6.230  1.00  0.00     0.018 C
ENDBRANCH  38  39
ENDBRANCH  36  37
ENDBRANCH  35  36
ENDBRANCH  34  35
ENDBRANCH  32  33
ENDBRANCH   1  32
BRANCH   1  41
HETATM   41  O1  UNL     1     -23.520  32.276  -3.051  1.00  0.00    -0.388 OA
ATOM     42  H1  UNL     1     -23.303  31.773  -2.275  1.00  0.00     0.210 HD
ENDBRANCH   1  41
TORSDOF 10
ENDMDL