MODEL 1
REMARK VINA RESULT: -8.320142804      0.000      0.000
REMARK  6 active torsions:
REMARK  status: ('A' for Active; 'I' for Inactive)
REMARK    1  A    between atoms: N1_1  and  C1_4
REMARK    2  A    between atoms: C3_8  and  C4_9
REMARK       I    between atoms: C4_9  and  N3_11
REMARK    3  A    between atoms: C7_14  and  N4_15
REMARK    4  A    between atoms: C11_19  and  C12_20
REMARK    5  A    between atoms: C13_21  and  N5_22
REMARK    6  A    between atoms: C16_25  and  N6_26
ROOT
HETATM    1  N4  UNL     1     -25.539  31.742  -5.481  1.00  0.00    -0.408 N
HETATM    2  C8  UNL     1     -26.353  32.781  -5.944  1.00  0.00     0.117 C
HETATM    3  C9  UNL     1     -26.445  33.857  -4.858  1.00  0.00     0.020 C
HETATM    4  C10 UNL     1     -25.193  34.650  -4.715  1.00  0.00     0.011 C
HETATM    5  C11 UNL     1     -24.184  34.079  -3.748  1.00  0.00     0.020 C
HETATM    6  C25 UNL     1     -24.156  32.585  -3.754  1.00  0.00     0.028 C
HETATM    7  C26 UNL     1     -24.193  32.018  -5.163  1.00  0.00     0.118 C
ENDROOT
BRANCH   1   8
HETATM    8  C7  UNL     1     -25.989  30.414  -5.490  1.00  0.00     0.082 C
HETATM    9  C6  UNL     1     -24.970  29.532  -6.180  1.00  0.00     0.045 C
HETATM   10  C5  UNL     1     -24.982  28.124  -5.677  1.00  0.00     0.128 C
HETATM   11  N3  UNL     1     -26.361  27.731  -5.344  1.00  0.00    -0.347 N
HETATM   12  C4  UNL     1     -26.868  26.585  -5.995  1.00  0.00     0.262 C
HETATM   13  C28 UNL     1     -27.069  28.541  -4.405  1.00  0.00     0.128 C
HETATM   14  O1  UNL     1     -26.188  25.932  -6.829  1.00  0.00    -0.267 OA
HETATM   15  C27 UNL     1     -26.219  29.792  -4.123  1.00  0.00     0.045 C
BRANCH  12  16
HETATM   16  C3  UNL     1     -28.224  26.104  -5.718  1.00  0.00     0.091 A
HETATM   17  C2  UNL     1     -28.619  25.147  -4.818  1.00  0.00     0.115 A
HETATM   18  N2  UNL     1     -29.885  24.876  -4.724  1.00  0.00    -0.345 N
HETATM   19  C1  UNL     1     -30.747  25.530  -5.497  1.00  0.00     0.142 A
ATOM     20  H2  UNL     1     -30.214  24.170  -4.065  1.00  0.00     0.167 HD
HETATM   21  S2  UNL     1     -29.731  26.572  -6.394  1.00  0.00    -0.048 SA
BRANCH  19  22
HETATM   22  N1  UNL     1     -32.055  25.412  -5.562  1.00  0.00    -0.380 N
ATOM     23  H12 UNL     1     -32.633  24.618  -5.287  1.00  0.00     0.158 HD
ATOM     24  H11 UNL     1     -32.744  26.085  -5.897  1.00  0.00     0.158 HD
ENDBRANCH  19  22
ENDBRANCH  12  16
ENDBRANCH   1   8
BRANCH   5  25
HETATM   25  C12 UNL     1     -24.379  34.554  -2.355  1.00  0.00    -0.025 C
HETATM   26  C13 UNL     1     -23.345  35.016  -1.658  1.00  0.00     0.142 C
HETATM   27  O2  UNL     1     -23.460  35.479  -0.345  1.00  0.00    -0.336 OA
HETATM   28  C22 UNL     1     -24.784  35.790   0.106  1.00  0.00     0.177 C
HETATM   29  C23 UNL     1     -25.604  34.555  -0.215  1.00  0.00     0.031 C
HETATM   30  C24 UNL     1     -25.714  34.514  -1.747  1.00  0.00     0.041 C
BRANCH  26  31
HETATM   31  N5  UNL     1     -22.049  35.058  -2.230  1.00  0.00    -0.362 N
HETATM   32  C14 UNL     1     -21.069  34.061  -1.859  1.00  0.00     0.127 C
HETATM   33  C15 UNL     1     -20.567  33.370  -3.130  1.00  0.00     0.045 C
HETATM   34  C16 UNL     1     -19.978  34.414  -4.016  1.00  0.00     0.092 C
HETATM   35  C20 UNL     1     -21.049  35.434  -4.426  1.00  0.00     0.045 C
HETATM   36  C21 UNL     1     -21.659  36.067  -3.190  1.00  0.00     0.127 C
BRANCH  34  37
HETATM   37  N6  UNL     1     -19.310  33.984  -5.172  1.00  0.00    -0.359 N
HETATM   38  C17 UNL     1     -18.366  32.968  -5.122  1.00  0.00     0.075 C
HETATM   39  C18 UNL     1     -16.986  33.500  -5.412  1.00  0.00     0.124 C
HETATM   40  S1  UNL     1     -17.407  34.821  -6.619  1.00  0.00    -0.119 SA
HETATM   41  C19 UNL     1     -19.214  34.836  -6.281  1.00  0.00     0.136 C
ENDBRANCH  34  37
ENDBRANCH  26  31
ENDBRANCH   5  25
TORSDOF 6
ENDMDL