MODEL 5
REMARK VINA RESULT: -8.123650756      1.719      2.311
REMARK  5 active torsions:
REMARK  status: ('A' for Active; 'I' for Inactive)
REMARK    1  A    between atoms: C4_5  and  O1_6
REMARK    2  A    between atoms: O1_6  and  C5_7
REMARK    3  A    between atoms: N2_9  and  C7_10
REMARK    4  A    between atoms: C14_21  and  C15_22
REMARK    5  A    between atoms: C22_30  and  O4_31
ROOT
HETATM    1  C5  UNL     1     -22.841  34.444  -5.495  1.00  0.00     0.114 A
HETATM    2  C6  UNL     1     -23.194  35.327  -6.524  1.00  0.00     0.106 A
HETATM    3  N2  UNL     1     -24.140  36.025  -7.169  1.00  0.00    -0.252 N
HETATM    4  N3  UNL     1     -23.571  36.729  -8.123  1.00  0.00    -0.291 N
ATOM      5  H3  UNL     1     -24.081  37.343  -8.757  1.00  0.00     0.187 HD
HETATM    6  C14 UNL     1     -22.232  36.543  -8.166  1.00  0.00     0.080 A
HETATM    7  C19 UNL     1     -21.912  35.667  -7.179  1.00  0.00     0.053 A
HETATM    8  C20 UNL     1     -20.898  34.992  -6.514  1.00  0.00     0.063 A
HETATM    9  C21 UNL     1     -21.464  34.258  -5.496  1.00  0.00     0.061 A
HETATM   10  C22 UNL     1     -20.832  33.521  -4.595  1.00  0.00     0.092 A
HETATM   11  C23 UNL     1     -19.377  33.268  -4.514  1.00  0.00     0.010 A
HETATM   12  C24 UNL     1     -19.047  32.430  -3.453  1.00  0.00     0.015 A
HETATM   13  C25 UNL     1     -17.727  32.083  -3.219  1.00  0.00     0.001 A
HETATM   14  C26 UNL     1     -16.694  32.538  -4.006  1.00  0.00     0.001 A
HETATM   15  C27 UNL     1     -17.018  33.369  -5.059  1.00  0.00     0.014 A
HETATM   16  C28 UNL     1     -18.341  33.714  -5.289  1.00  0.00    -0.008 A
HETATM   17  C29 UNL     1     -18.408  34.599  -6.441  1.00  0.00     0.100 A
HETATM   18  N4  UNL     1     -19.683  35.059  -6.798  1.00  0.00    -0.363 N
ATOM     19  H4  UNL     1     -19.579  35.690  -7.592  1.00  0.00     0.165 HD
ENDROOT
BRANCH   3  20
HETATM   20  C7  UNL     1     -25.549  36.076  -6.856  1.00  0.00     0.059 A
HETATM   21  C8  UNL     1     -26.330  34.999  -7.172  1.00  0.00     0.034 A
HETATM   22  C9  UNL     1     -27.699  35.007  -6.902  1.00  0.00     0.042 A
HETATM   23  C10 UNL     1     -28.267  36.117  -6.310  1.00  0.00     0.105 A
HETATM   24  C11 UNL     1     -27.495  37.208  -5.986  1.00  0.00     0.107 A
HETATM   25  O3  UNL     1     -29.585  36.360  -5.947  1.00  0.00    -0.323 OA
HETATM   26  C12 UNL     1     -26.129  37.168  -6.269  1.00  0.00     0.071 A
HETATM   27  O2  UNL     1     -28.328  38.141  -5.418  1.00  0.00    -0.323 OA
HETATM   28  C13 UNL     1     -29.674  37.755  -5.709  1.00  0.00     0.352 C
ENDBRANCH   3  20
BRANCH   1  29
HETATM   29  O1  UNL     1     -23.792  33.883  -4.659  1.00  0.00    -0.342 OA
BRANCH  29  30
HETATM   30  C4  UNL     1     -24.349  34.426  -3.497  1.00  0.00     0.132 C
HETATM   31  C3  UNL     1     -23.486  35.502  -2.914  1.00  0.00     0.062 C
HETATM   32  C2  UNL     1     -24.047  36.086  -1.643  1.00  0.00     0.274 C
HETATM   33  N1  UNL     1     -24.309  35.109  -0.626  1.00  0.00     0.084 N
HETATM   34  C1  UNL     1     -25.688  35.140  -0.177  1.00  0.00     0.309 C
HETATM   35  C31 UNL     1     -23.920  33.797  -1.093  1.00  0.00     0.274 C
HETATM   36  C30 UNL     1     -24.583  33.431  -2.378  1.00  0.00     0.062 C
ENDBRANCH  29  30
ENDBRANCH   1  29
BRANCH   6  37
HETATM   37  C15 UNL     1     -21.343  37.237  -9.111  1.00  0.00     0.034 A
HETATM   38  C16 UNL     1     -20.136  37.819  -9.039  1.00  0.00     0.021 A
HETATM   39  C17 UNL     1     -19.637  38.425 -10.140  1.00  0.00     0.008 A
HETATM   40  C18 UNL     1     -20.398  38.406 -11.267  1.00  0.00     0.050 A
HETATM   41  S1  UNL     1     -21.776  37.557 -10.783  1.00  0.00    -0.100 SA
ENDBRANCH   6  37
BRANCH  10  42
HETATM   42  O4  UNL     1     -21.553  32.907  -3.610  1.00  0.00    -0.359 OA
ATOM     43  H4  UNL     1     -21.095  32.513  -2.878  1.00  0.00     0.217 HD
ENDBRANCH  10  42
TORSDOF 5
ENDMDL