MODEL 3
REMARK VINA RESULT: -7.098670520      4.398      6.200
REMARK  9 active torsions:
REMARK  status: ('A' for Active; 'I' for Inactive)
REMARK    1  A    between atoms: C2_2  and  N1_5
REMARK       I    between atoms: N1_5  and  C5_7
REMARK    2  A    between atoms: C5_7  and  O2_9
REMARK    3  A    between atoms: O2_9  and  C6_10
REMARK    4  A    between atoms: C6_10  and  C7_11
REMARK    5  A    between atoms: N2_15  and  S1_16
REMARK    6  A    between atoms: S1_16  and  N3_19
REMARK       I    between atoms: N3_19  and  C11_21
REMARK       I    between atoms: C11_21  and  N4_23
REMARK    7  A    between atoms: N4_23  and  C12_25
REMARK    8  A    between atoms: C12_25  and  C13_26
REMARK    9  A    between atoms: C12_25  and  C14_28
ROOT
HETATM    1  C7  UNL     1       6.645  58.810   3.217  1.00  0.00     0.046 C
HETATM    2  C8  UNL     1       6.616  58.863   4.694  1.00  0.00     0.024 C
HETATM    3  C9  UNL     1       8.056  59.195   2.738  1.00  0.00     0.033 C
HETATM    4  C10 UNL     1       8.267  60.651   2.624  1.00  0.00     0.110 C
HETATM    5  N2  UNL     1       7.346  61.475   3.318  1.00  0.00    -0.187 NA
HETATM    6  C15 UNL     1       5.975  61.168   3.187  1.00  0.00     0.188 C
HETATM    7  C16 UNL     1       5.709  59.826   2.594  1.00  0.00     0.265 C
HETATM    8  F1  UNL     1       4.380  59.442   2.743  1.00  0.00    -0.204 F
HETATM    9  F2  UNL     1       6.030  59.851   1.226  1.00  0.00    -0.204 F
ENDROOT
BRANCH   5  10
HETATM   10  S1  UNL     1       7.679  63.129   2.996  1.00  0.00     0.306 S
HETATM   11  O3  UNL     1       7.267  63.470   1.590  1.00  0.00    -0.188 OA
HETATM   12  O4  UNL     1       6.856  63.954   3.977  1.00  0.00    -0.188 OA
BRANCH  10  13
HETATM   13  N3  UNL     1       9.352  63.414   3.259  1.00  0.00    -0.223 N
HETATM   14  C11 UNL     1       9.966  64.550   2.703  1.00  0.00     0.331 C
HETATM   15  O5  UNL     1       9.258  65.346   2.015  1.00  0.00    -0.246 OA
HETATM   16  N4  UNL     1      11.361  64.804   2.910  1.00  0.00    -0.331 N
ATOM     17  H4  UNL     1      11.900  64.142   3.469  1.00  0.00     0.165 HD
ATOM     18  H3  UNL     1       9.900  62.760   3.817  1.00  0.00     0.184 HD
BRANCH  16  19
HETATM   19  C12 UNL     1      12.031  65.944   2.367  1.00  0.00     0.157 C
BRANCH  19  20
HETATM   20  C13 UNL     1      13.384  65.580   1.823  1.00  0.00     0.257 C
HETATM   21  O6  UNL     1      13.765  65.935   0.737  1.00  0.00    -0.305 OA
ENDBRANCH  19  20
BRANCH  19  22
HETATM   22  C14 UNL     1      12.232  66.963   3.473  1.00  0.00     0.117 C
HETATM   23 BR1  UNL     1      10.777  68.248   3.506  1.00  0.00    -0.094 Br
ENDBRANCH  19  22
ENDBRANCH  16  19
ENDBRANCH  10  13
ENDBRANCH   5  10
BRANCH   1  24
HETATM   24  C6  UNL     1       6.320  57.473   2.598  1.00  0.00     0.196 C
BRANCH  24  25
HETATM   25  O2  UNL     1       5.328  56.712   3.089  1.00  0.00    -0.303 OA
BRANCH  25  26
HETATM   26  C5  UNL     1       5.165  55.561   3.739  1.00  0.00     0.361 C
HETATM   27  N1  UNL     1       3.996  54.729   3.676  1.00  0.00    -0.329 N
ATOM     28  H1  UNL     1       3.219  55.034   3.090  1.00  0.00     0.165 HD
HETATM   29  O1  UNL     1       6.084  55.138   4.472  1.00  0.00    -0.238 OA
BRANCH  27  30
HETATM   30  C2  UNL     1       3.862  53.495   4.390  1.00  0.00     0.024 C
HETATM   31  C1  UNL     1       3.021  52.481   3.640  1.00  0.00     0.037 C
HETATM   32  C3  UNL     1       3.091  53.781   5.681  1.00  0.00     0.037 C
HETATM   33  C4  UNL     1       5.177  52.875   4.763  1.00  0.00     0.037 C
ENDBRANCH  27  30
ENDBRANCH  25  26
ENDBRANCH  24  25
ENDBRANCH   1  24
TORSDOF 9
ENDMDL