MODEL 1
REMARK VINA RESULT: -8.196413220      0.000      0.000
REMARK  10 active torsions:
REMARK  status: ('A' for Active; 'I' for Inactive)
REMARK    1  A    between atoms: O1_2  and  C2_3
REMARK    2  A    between atoms: C2_3  and  C3_4
REMARK    3  A    between atoms: C3_4  and  O2_5
REMARK    4  A    between atoms: C3_4  and  C4_7
REMARK    5  A    between atoms: C4_7  and  C5_8
REMARK    6  A    between atoms: C5_8  and  N1_9
REMARK    7  A    between atoms: N1_9  and  C6_11
REMARK    8  A    between atoms: C7_14  and  C8_15
REMARK    9  A    between atoms: C8_15  and  C9_16
REMARK   10  A    between atoms: C12_22  and  C13_23
ROOT
HETATM    1  C6  UNL     1      12.026  66.065   4.480  1.00  0.00     0.131 A
HETATM    2  N2  UNL     1      12.936  65.919   5.446  1.00  0.00    -0.341 N
ATOM      3  H2  UNL     1      12.767  66.370   6.345  1.00  0.00     0.167 HD
HETATM    4  C7  UNL     1      14.081  65.192   5.284  1.00  0.00     0.036 A
HETATM    5  C10 UNL     1      14.303  64.589   4.073  1.00  0.00     0.061 A
HETATM    6  C11 UNL     1      13.399  64.701   3.031  1.00  0.00     0.066 A
HETATM    7  N3  UNL     1      13.320  64.255   1.753  1.00  0.00    -0.340 N
ATOM      8  H3  UNL     1      14.021  63.672   1.295  1.00  0.00     0.167 HD
HETATM    9  C12 UNL     1      12.201  64.683   1.181  1.00  0.00     0.123 A
HETATM   10  N5  UNL     1      11.568  65.420   2.144  1.00  0.00    -0.337 N
ATOM     11  H5  UNL     1      10.671  65.888   2.018  1.00  0.00     0.167 HD
HETATM   12  C17 UNL     1      12.276  65.441   3.261  1.00  0.00     0.105 A
ENDROOT
BRANCH   1  13
HETATM   13  N1  UNL     1      10.987  66.749   4.594  1.00  0.00    -0.374 N
ATOM     14  H1  UNL     1      10.225  66.271   5.074  1.00  0.00     0.161 HD
BRANCH  13  15
HETATM   15  C5  UNL     1      10.672  68.076   4.177  1.00  0.00     0.123 C
BRANCH  15  16
HETATM   16  C4  UNL     1       9.163  68.168   4.137  1.00  0.00     0.053 C
BRANCH  16  17
HETATM   17  C3  UNL     1       8.466  66.877   3.821  1.00  0.00     0.143 C
BRANCH  17  18
HETATM   18  C2  UNL     1       7.016  66.838   4.105  1.00  0.00     0.198 C
BRANCH  18  19
HETATM   19  O1  UNL     1       6.678  66.078   5.179  1.00  0.00    -0.393 OA
HETATM   20  C1  UNL     1       5.955  64.936   5.025  1.00  0.00     0.201 C
ENDBRANCH  18  19
ENDBRANCH  17  18
BRANCH  17  21
HETATM   21  O2  UNL     1       8.787  66.448   2.537  1.00  0.00    -0.393 OA
ATOM     22  H2  UNL     1       9.230  65.608   2.522  1.00  0.00     0.210 HD
ENDBRANCH  17  21
ENDBRANCH  16  17
ENDBRANCH  15  16
ENDBRANCH  13  15
ENDBRANCH   1  13
BRANCH   4  23
HETATM   23  C8  UNL     1      15.004  65.095   6.417  1.00  0.00     0.037 C
BRANCH  23  24
HETATM   24  C9  UNL     1      15.028  64.046   7.192  1.00  0.00     0.058 C
HETATM   25 BR1  UNL     1      16.429  62.755   6.921  1.00  0.00    -0.064 Br
ENDBRANCH  23  24
ENDBRANCH   4  23
BRANCH   9  26
HETATM   26  C13 UNL     1      11.658  64.506  -0.159  1.00  0.00     0.099 A
HETATM   27  C14 UNL     1      10.506  63.984  -0.501  1.00  0.00     0.098 A
HETATM   28 BR2  UNL     1       9.212  63.304   0.717  1.00  0.00    -0.044 Br
HETATM   29  C15 UNL     1      10.331  63.988  -1.963  1.00  0.00     0.266 A
HETATM   30  O3  UNL     1       9.327  63.550  -2.592  1.00  0.00    -0.267 OA
HETATM   31  N4  UNL     1      11.498  64.571  -2.512  1.00  0.00    -0.288 N
HETATM   32  C16 UNL     1      12.335  64.901  -1.413  1.00  0.00     0.263 A
ATOM     33  H4  UNL     1      11.698  64.724  -3.500  1.00  0.00     0.172 HD
HETATM   34  O4  UNL     1      13.475  65.439  -1.420  1.00  0.00    -0.267 OA
ENDBRANCH   9  26
TORSDOF 10
ENDMDL