MODEL 1
REMARK VINA RESULT: -7.946117108      0.000      0.000
REMARK  8 active torsions:
REMARK  status: ('A' for Active; 'I' for Inactive)
REMARK       I    between atoms: C2_2  and  N1_4
REMARK    1  A    between atoms: N1_4  and  C3_6
REMARK    2  A    between atoms: C7_10  and  N2_11
REMARK    3  A    between atoms: C7_10  and  C22_35
REMARK       I    between atoms: N2_11  and  C8_13
REMARK    4  A    between atoms: C8_13  and  C9_15
REMARK    5  A    between atoms: C9_15  and  N3_16
REMARK    6  A    between atoms: C9_15  and  C20_30
REMARK       I    between atoms: N3_16  and  C10_18
REMARK       I    between atoms: C10_18  and  N4_20
REMARK    7  A    between atoms: C15_25  and  C16_26
REMARK    8  A    between atoms: C20_30  and  C21_32
ROOT
HETATM    1  C9  UNL     1       9.214  63.022   1.352  1.00  0.00     0.254 C
ENDROOT
BRANCH   1   2
HETATM    2  C8  UNL     1       9.296  64.174   2.325  1.00  0.00     0.249 C
HETATM    3  N2  UNL     1       8.845  65.446   2.046  1.00  0.00    -0.339 N
ATOM      4  H2  UNL     1       8.405  65.566   1.134  1.00  0.00     0.163 HD
HETATM    5  O2  UNL     1       9.830  63.806   3.426  1.00  0.00    -0.271 OA
BRANCH   3   6
HETATM    6  C7  UNL     1       8.912  66.633   2.867  1.00  0.00     0.127 C
HETATM    7  C6  UNL     1       9.239  67.842   2.017  1.00  0.00     0.043 C
HETATM    8  C5  UNL     1       9.642  68.886   3.011  1.00  0.00     0.010 C
HETATM    9  C4  UNL     1      10.228  68.085   4.140  1.00  0.00     0.018 A
HETATM   10  C3  UNL     1      11.345  67.200   3.699  1.00  0.00     0.096 A
HETATM   11  C23 UNL     1      10.008  66.643   3.873  1.00  0.00     0.054 A
BRANCH  10  12
HETATM   12  N1  UNL     1      12.324  66.907   4.738  1.00  0.00    -0.356 N
HETATM   13  C2  UNL     1      13.072  65.709   4.777  1.00  0.00     0.213 C
HETATM   14  C1  UNL     1      14.052  65.420   5.836  1.00  0.00     0.117 C
HETATM   15  O1  UNL     1      12.895  64.848   3.874  1.00  0.00    -0.274 OA
ATOM     16  H1  UNL     1      12.477  67.600   5.471  1.00  0.00     0.162 HD
ENDBRANCH  10  12
BRANCH   6  17
HETATM   17  C22 UNL     1       7.627  66.859   3.537  1.00  0.00     0.203 C
HETATM   18  O5  UNL     1       6.681  67.410   2.895  1.00  0.00    -0.646 OA
HETATM   19  O6  UNL     1       7.411  66.498   4.831  1.00  0.00    -0.646 OA
ENDBRANCH   6  17
ENDBRANCH   3   6
ENDBRANCH   1   2
BRANCH   1  20
HETATM   20  N3  UNL     1       7.958  62.327   1.490  1.00  0.00    -0.323 N
HETATM   21  C10 UNL     1       7.686  61.176   2.217  1.00  0.00     0.323 C
HETATM   22  O3  UNL     1       8.644  60.652   2.860  1.00  0.00    -0.247 OA
HETATM   23  N4  UNL     1       6.432  60.569   2.282  1.00  0.00    -0.307 N
HETATM   24  C11 UNL     1       6.325  59.421   3.220  1.00  0.00     0.133 C
HETATM   25  C15 UNL     1       5.282  60.871   1.474  1.00  0.00     0.001 C
HETATM   26  C12 UNL     1       5.696  58.217   2.614  1.00  0.00     0.021 C
HETATM   27  C13 UNL     1       4.610  58.425   1.633  1.00  0.00     0.007 C
HETATM   28  C14 UNL     1       4.839  59.593   0.761  1.00  0.00     0.053 C
ATOM     29  H3  UNL     1       7.167  62.734   0.991  1.00  0.00     0.165 HD
BRANCH  25  30
HETATM   30  C16 UNL     1       4.191  61.705   1.981  1.00  0.00    -0.012 C
HETATM   31  C17 UNL     1       2.828  61.136   2.091  1.00  0.00     0.021 C
HETATM   32  C18 UNL     1       4.448  62.423   3.302  1.00  0.00     0.021 C
HETATM   33  C19 UNL     1       4.038  62.919   0.983  1.00  0.00     0.021 C
ENDBRANCH  25  30
ENDBRANCH   1  20
BRANCH   1  34
HETATM   34  C20 UNL     1       9.636  63.386   0.021  1.00  0.00     0.222 C
HETATM   35  O4  UNL     1       8.866  63.724  -0.866  1.00  0.00    -0.289 OA
BRANCH  34  36
HETATM   36  C21 UNL     1      11.095  63.361  -0.362  1.00  0.00     0.424 C
HETATM   37  F1  UNL     1      11.668  64.590  -0.017  1.00  0.00    -0.206 F
HETATM   38  F2  UNL     1      11.724  62.395   0.360  1.00  0.00    -0.206 F
ENDBRANCH  34  36
ENDBRANCH   1  34
TORSDOF 8
ENDMDL