MODEL 4
REMARK VINA RESULT: -7.798334325      1.587      2.568
REMARK  10 active torsions:
REMARK  status: ('A' for Active; 'I' for Inactive)
REMARK    1  A    between atoms: C2_2  and  C5_5
REMARK    2  A    between atoms: C5_5  and  N1_6
REMARK    3  A    between atoms: C5_5  and  C17_20
REMARK       I    between atoms: N1_6  and  C6_8
REMARK    4  A    between atoms: C6_8  and  C7_10
REMARK    5  A    between atoms: C17_20  and  O2_21
REMARK    6  A    between atoms: C17_20  and  C18_23
REMARK    7  A    between atoms: C18_23  and  C19_26
REMARK    8  A    between atoms: C19_26  and  O3_27
REMARK    9  A    between atoms: C19_26  and  C20_29
REMARK       I    between atoms: C20_29  and  N2_31
REMARK   10  A    between atoms: C24_35  and  C25_36
ROOT
HETATM    1  C5  UNL     1      10.792  64.509   1.353  1.00  0.00     0.126 C
ENDROOT
BRANCH   1   2
HETATM    2  C2  UNL     1      11.117  64.043   0.010  1.00  0.00    -0.028 C
HETATM    3  C1  UNL     1      10.230  64.174  -1.140  1.00  0.00     0.016 C
HETATM    4  C3  UNL     1      12.462  64.677  -0.402  1.00  0.00     0.016 C
HETATM    5  C4  UNL     1      11.467  62.527   0.094  1.00  0.00     0.016 C
ENDBRANCH   1   2
BRANCH   1   6
HETATM    6  N1  UNL     1       9.859  63.430   1.874  1.00  0.00    -0.352 N
HETATM    7  C6  UNL     1       8.473  63.569   1.815  1.00  0.00     0.226 C
HETATM    8  O1  UNL     1       7.934  64.612   1.318  1.00  0.00    -0.273 OA
ATOM      9  H1  UNL     1      10.257  62.582   2.277  1.00  0.00     0.163 HD
BRANCH   7  10
HETATM   10  C7  UNL     1       7.589  62.520   2.323  1.00  0.00     0.042 C
HETATM   11  C8  UNL     1       6.304  62.509   1.528  1.00  0.00     0.024 C
HETATM   12  C9  UNL     1       5.369  61.421   1.950  1.00  0.00    -0.013 C
HETATM   13  C10 UNL     1       4.975  61.658   3.385  1.00  0.00     0.009 C
HETATM   14  C14 UNL     1       6.079  60.102   1.783  1.00  0.00     0.009 C
HETATM   15  C11 UNL     1       6.241  61.686   4.205  1.00  0.00    -0.013 C
HETATM   16  C12 UNL     1       6.856  60.302   4.138  1.00  0.00     0.009 C
HETATM   17  C16 UNL     1       7.185  62.767   3.775  1.00  0.00     0.024 C
HETATM   18  C13 UNL     1       7.277  60.088   2.693  1.00  0.00    -0.013 C
HETATM   19  C15 UNL     1       8.252  61.148   2.313  1.00  0.00     0.024 C
ENDBRANCH   7  10
ENDBRANCH   1   6
BRANCH   1  20
HETATM   20  C17 UNL     1      11.803  64.615   2.433  1.00  0.00     0.217 C
BRANCH  20  21
HETATM   21  O2  UNL     1      11.034  64.207   3.626  1.00  0.00    -0.387 OA
ATOM     22  H2  UNL     1      11.687  63.748   4.141  1.00  0.00     0.210 HD
ENDBRANCH  20  21
BRANCH  20  23
HETATM   23  C18 UNL     1      12.219  65.995   2.863  1.00  0.00     0.304 C
HETATM   24  F1  UNL     1      13.462  66.160   3.344  1.00  0.00    -0.200 F
HETATM   25  F2  UNL     1      12.007  66.887   1.814  1.00  0.00    -0.200 F
BRANCH  23  26
HETATM   26  C19 UNL     1      11.304  66.540   3.988  1.00  0.00     0.285 C
BRANCH  26  27
HETATM   27  O3  UNL     1      11.748  66.251   5.232  1.00  0.00    -0.380 OA
ATOM     28  H3  UNL     1      11.539  66.920   5.874  1.00  0.00     0.210 HD
ENDBRANCH  26  27
BRANCH  26  29
HETATM   29  C20 UNL     1      10.864  67.908   3.713  1.00  0.00     0.255 C
HETATM   30  O4  UNL     1      11.644  68.842   4.122  1.00  0.00    -0.270 OA
HETATM   31  N2  UNL     1       9.701  68.271   3.056  1.00  0.00    -0.337 N
HETATM   32  C21 UNL     1       9.332  69.686   2.818  1.00  0.00     0.127 C
HETATM   33  C24 UNL     1       8.631  67.538   2.455  1.00  0.00     0.176 C
HETATM   34  C22 UNL     1       9.078  69.630   1.307  1.00  0.00     0.022 C
HETATM   35  C23 UNL     1       8.253  68.372   1.214  1.00  0.00     0.036 C
BRANCH  33  36
HETATM   36  C25 UNL     1       7.457  67.541   3.348  1.00  0.00     0.254 C
HETATM   37  N3  UNL     1       7.483  67.014   4.667  1.00  0.00    -0.060 NA
HETATM   38  O5  UNL     1       6.373  68.022   2.961  1.00  0.00    -0.275 OA
ENDBRANCH  33  36
ENDBRANCH  26  29
ENDBRANCH  23  26
ENDBRANCH  20  23
ENDBRANCH   1  20
TORSDOF 10
ENDMDL