MODEL 1
REMARK VINA RESULT: -7.442259861      0.000      0.000
REMARK  12 active torsions:
REMARK  status: ('A' for Active; 'I' for Inactive)
REMARK    1  A    between atoms: N1_2  and  C2_5
REMARK    2  A    between atoms: C2_5  and  C4_7
REMARK       I    between atoms: C4_7  and  N2_9
REMARK    3  A    between atoms: N2_9  and  C5_11
REMARK    4  A    between atoms: C5_11  and  C6_12
REMARK    5  A    between atoms: C5_11  and  C19_41
REMARK    6  A    between atoms: C6_12  and  O2_13
REMARK    7  A    between atoms: C6_12  and  N3_15
REMARK    8  A    between atoms: C7_16  and  C8_17
REMARK    9  A    between atoms: C10_21  and  C12_23
REMARK       I    between atoms: C12_23  and  N4_25
REMARK       I    between atoms: N4_25  and  C13_27
REMARK       I    between atoms: C13_27  and  N5_29
REMARK   10  A    between atoms: C17_33  and  C18_34
REMARK   11  A    between atoms: C18_34  and  O5_35
REMARK   12  A    between atoms: N6_37  and  O6_39
ROOT
HETATM    1  N3  UNL     1       5.788  62.405   1.975  1.00  0.00    -0.336 N
HETATM    2  C7  UNL     1       5.038  63.568   1.672  1.00  0.00     0.155 A
HETATM    3  C9  UNL     1       6.219  64.485   2.030  1.00  0.00     0.071 A
HETATM    4  C10 UNL     1       6.959  63.247   2.375  1.00  0.00     0.114 A
HETATM    5  C11 UNL     1       7.281  63.011   3.851  1.00  0.00     0.049 C
ENDROOT
BRANCH   4   6
HETATM    6  C12 UNL     1       8.155  62.980   1.557  1.00  0.00     0.254 C
HETATM    7  O3  UNL     1       8.009  62.045   0.678  1.00  0.00    -0.270 OA
HETATM    8  N4  UNL     1       9.421  63.566   1.571  1.00  0.00    -0.277 N
HETATM    9  C13 UNL     1       9.920  64.638   2.328  1.00  0.00     0.325 C
ATOM     10  H4  UNL     1      10.092  63.149   0.927  1.00  0.00     0.173 HD
HETATM   11  O4  UNL     1       9.074  65.168   3.153  1.00  0.00    -0.247 OA
HETATM   12  N5  UNL     1      11.176  65.225   2.341  1.00  0.00    -0.322 N
HETATM   13  C14 UNL     1      11.569  66.357   3.268  1.00  0.00     0.129 C
HETATM   14  C17 UNL     1      12.390  65.042   1.638  1.00  0.00     0.165 C
HETATM   15  C15 UNL     1      12.949  65.925   3.717  1.00  0.00     0.022 C
HETATM   16  C16 UNL     1      13.334  64.743   2.805  1.00  0.00     0.035 C
BRANCH  14  17
HETATM   17  C18 UNL     1      12.528  64.172   0.514  1.00  0.00     0.159 C
HETATM   18  N6  UNL     1      12.919  64.478  -0.695  1.00  0.00    -0.249 N
ATOM     19  H6  UNL     1      12.962  63.727  -1.385  1.00  0.00     0.196 HD
BRANCH  17  20
HETATM   20  O5  UNL     1      12.222  62.791   0.646  1.00  0.00    -0.347 OA
ATOM     21  H5  UNL     1      11.405  62.452   0.300  1.00  0.00     0.219 HD
ENDBRANCH  17  20
BRANCH  18  22
HETATM   22  O6  UNL     1      13.273  65.728  -1.100  1.00  0.00    -0.288 OA
ATOM     23  H6  UNL     1      13.825  65.917  -1.849  1.00  0.00     0.244 HD
ENDBRANCH  18  22
ENDBRANCH  14  17
ENDBRANCH   4   6
BRANCH   1  24
HETATM   24  C6  UNL     1       5.668  61.011   1.894  1.00  0.00     0.139 C
BRANCH  24  25
HETATM   25  C5  UNL     1       5.590  59.932   2.826  1.00  0.00     0.162 C
BRANCH  25  26
HETATM   26  N2  UNL     1       4.917  58.802   2.122  1.00  0.00    -0.347 N
HETATM   27  C4  UNL     1       3.540  58.832   1.805  1.00  0.00     0.248 C
HETATM   28  O1  UNL     1       2.874  59.838   2.130  1.00  0.00    -0.271 OA
ATOM     29  H2  UNL     1       5.467  57.983   1.861  1.00  0.00     0.163 HD
BRANCH  27  30
HETATM   30  C2  UNL     1       2.851  57.727   1.107  1.00  0.00     0.272 C
HETATM   31  C3  UNL     1       1.411  57.568   1.521  1.00  0.00     0.050 C
BRANCH  30  32
HETATM   32  N1  UNL     1       2.889  57.914  -0.329  1.00  0.00    -0.067 N
HETATM   33  C1  UNL     1       1.835  57.184  -0.975  1.00  0.00     0.267 C
ATOM     34  H12 UNL     1       3.803  57.673  -0.715  1.00  0.00     0.277 HD
ATOM     35  H11 UNL     1       2.870  58.902  -0.580  1.00  0.00     0.277 HD
ENDBRANCH  30  32
ENDBRANCH  27  30
ENDBRANCH  25  26
BRANCH  25  36
HETATM   36  C19 UNL     1       6.715  59.356   3.545  1.00  0.00     0.008 C
HETATM   37  C20 UNL     1       6.586  57.982   4.095  1.00  0.00     0.012 C
HETATM   38  C21 UNL     1       8.048  59.744   2.979  1.00  0.00     0.012 C
ENDBRANCH  25  36
ENDBRANCH  24  25
BRANCH  24  39
HETATM   39  O2  UNL     1       5.609  60.584   0.655  1.00  0.00    -0.348 OA
ATOM     40  H2  UNL     1       5.517  61.303   0.042  1.00  0.00     0.219 HD
ENDBRANCH  24  39
ENDBRANCH   1  24
BRANCH   2  41
HETATM   41  C8  UNL     1       3.908  63.986   2.589  1.00  0.00     0.376 C
HETATM   42  F1  UNL     1       4.282  65.063   3.369  1.00  0.00    -0.212 F
HETATM   43  F2  UNL     1       3.499  63.005   3.462  1.00  0.00    -0.212 F
ENDBRANCH   2  41
TORSDOF 12
ENDMDL