MODEL 4
REMARK VINA RESULT: -5.563923385      2.673      3.859
REMARK  10 active torsions:
REMARK  status: ('A' for Active; 'I' for Inactive)
REMARK    1  A    between atoms: O1_2  and  C2_3
REMARK    2  A    between atoms: C2_3  and  C3_4
REMARK    3  A    between atoms: C5_7  and  C6_8
REMARK    4  A    between atoms: C6_8  and  O2_9
REMARK    5  A    between atoms: C8_12  and  O3_13
REMARK    6  A    between atoms: C11_18  and  O4_19
REMARK    7  A    between atoms: C12_21  and  C13_22
REMARK    8  A    between atoms: C13_22  and  C14_23
REMARK    9  A    between atoms: C14_23  and  N1_24
REMARK       I    between atoms: N1_24  and  C15_26
REMARK   10  A    between atoms: C15_26  and  O6_28
ROOT
HETATM    1  C3  UNL     1       8.518  63.952  -1.364  1.00  0.00     0.063 C
HETATM    2  C4  UNL     1       9.958  63.821  -1.820  1.00  0.00     0.085 C
HETATM    3 BR1  UNL     1      10.069  64.633  -3.571  1.00  0.00    -0.089 Br
HETATM    4  C5  UNL     1      10.763  64.602  -0.784  1.00  0.00     0.062 C
HETATM    5  C7  UNL     1       9.868  65.786  -0.503  1.00  0.00     0.063 C
HETATM    6  C8  UNL     1       8.488  65.225  -0.511  1.00  0.00     0.085 C
HETATM    7  C9  UNL     1       8.026  64.914   0.846  1.00  0.00     0.028 C
HETATM    8  C10 UNL     1       8.430  64.220   1.921  1.00  0.00     0.021 C
HETATM    9 BR2  UNL     1       7.058  64.436   3.277  1.00  0.00    -0.053 Br
HETATM   10  C11 UNL     1       9.558  63.367   2.322  1.00  0.00     0.191 C
HETATM   11  C12 UNL     1      10.904  63.732   1.887  1.00  0.00     0.005 C
HETATM   12  C17 UNL     1      11.069  63.776   0.397  1.00  0.00     0.167 C
HETATM   13  O7  UNL     1      11.667  62.777   0.036  1.00  0.00    -0.292 OA
ENDROOT
BRANCH  11  14
HETATM   14  C13 UNL     1      11.587  64.844   2.564  1.00  0.00     0.085 C
BRANCH  14  15
HETATM   15  C14 UNL     1      12.970  64.636   3.001  1.00  0.00     0.070 C
BRANCH  15  16
HETATM   16  N1  UNL     1      13.459  65.182   4.203  1.00  0.00    -0.316 N
HETATM   17  C15 UNL     1      14.597  64.623   4.891  1.00  0.00     0.363 C
HETATM   18  O5  UNL     1      15.149  63.619   4.382  1.00  0.00    -0.238 OA
ATOM     19  H1  UNL     1      12.994  65.999   4.601  1.00  0.00     0.170 HD
BRANCH  17  20
HETATM   20  O6  UNL     1      15.075  65.149   6.057  1.00  0.00    -0.309 OA
HETATM   21  C16 UNL     1      14.833  64.589   7.323  1.00  0.00     0.215 C
ENDBRANCH  17  20
ENDBRANCH  15  16
ENDBRANCH  14  15
ENDBRANCH  11  14
BRANCH  10  22
HETATM   22  O4  UNL     1       9.265  62.014   1.848  1.00  0.00    -0.386 OA
ATOM     23  H4  UNL     1       9.829  61.420   2.329  1.00  0.00     0.210 HD
ENDBRANCH  10  22
BRANCH   4  24
HETATM   24  C6  UNL     1      11.993  65.116  -1.502  1.00  0.00     0.183 C
BRANCH  24  25
HETATM   25  O2  UNL     1      12.989  65.420  -0.571  1.00  0.00    -0.400 OA
ATOM     26  H2  UNL     1      13.336  66.287  -0.744  1.00  0.00     0.209 HD
ENDBRANCH  24  25
ENDBRANCH   4  24
BRANCH   6  27
HETATM   27  O3  UNL     1       7.588  66.143  -1.108  1.00  0.00    -0.385 OA
ATOM     28  H3  UNL     1       7.400  66.830  -0.480  1.00  0.00     0.211 HD
ENDBRANCH   6  27
BRANCH   1  29
HETATM   29  C2  UNL     1       7.566  64.116  -2.499  1.00  0.00     0.176 C
BRANCH  29  30
HETATM   30  O1  UNL     1       7.021  62.881  -2.817  1.00  0.00    -0.395 OA
HETATM   31  C1  UNL     1       6.422  62.896  -4.084  1.00  0.00     0.201 C
ENDBRANCH  29  30
ENDBRANCH   1  29
TORSDOF 10
ENDMDL