MODEL 5
REMARK VINA RESULT: -7.364020008      3.302      5.812
REMARK  9 active torsions:
REMARK  status: ('A' for Active; 'I' for Inactive)
REMARK    1  A    between atoms: S1_2  and  C2_4
REMARK    2  A    between atoms: C2_4  and  C3_5
REMARK    3  A    between atoms: C3_5  and  C4_6
REMARK    4  A    between atoms: C10_16  and  O2_17
REMARK    5  A    between atoms: C11_19  and  C12_20
REMARK    6  A    between atoms: C12_20  and  C13_21
REMARK    7  A    between atoms: C16_26  and  C17_27
REMARK    8  A    between atoms: C17_27  and  C18_28
REMARK    9  A    between atoms: C19_31  and  O5_32
ROOT
HETATM    1  C4  UNL     1       6.031  67.480   4.165  1.00  0.00     0.049 C
HETATM    2  C5  UNL     1       4.636  67.585   3.704  1.00  0.00     0.143 C
HETATM    3  C6  UNL     1       3.783  66.329   4.084  1.00  0.00     0.249 C
HETATM    4  F1  UNL     1       2.473  66.572   3.811  1.00  0.00    -0.206 F
HETATM    5  F2  UNL     1       4.020  66.152   5.437  1.00  0.00    -0.206 F
HETATM    6  C7  UNL     1       4.387  65.205   3.313  1.00  0.00     0.081 C
HETATM    7  C8  UNL     1       3.746  63.869   3.438  1.00  0.00     0.025 C
HETATM    8  C9  UNL     1       4.662  62.846   2.735  1.00  0.00     0.121 C
HETATM    9  N1  UNL     1       5.959  63.419   2.485  1.00  0.00    -0.373 N
ATOM     10  H1  UNL     1       5.939  64.304   1.978  1.00  0.00     0.161 HD
HETATM   11  C10 UNL     1       7.249  62.969   2.819  1.00  0.00     0.134 C
HETATM   12  C11 UNL     1       8.041  61.865   2.290  1.00  0.00     0.156 C
HETATM   13  N2  UNL     1       9.429  62.426   2.187  1.00  0.00    -0.377 N
ATOM     14  H2  UNL     1      10.091  62.481   2.961  1.00  0.00     0.160 HD
HETATM   15  C16 UNL     1       9.695  62.871   0.862  1.00  0.00     0.067 C
HETATM   16  C19 UNL     1       9.066  64.077   0.364  1.00  0.00     0.159 C
HETATM   17  N3  UNL     1       9.360  65.437   0.488  1.00  0.00    -0.369 N
ATOM     18  H3  UNL     1       9.741  65.864  -0.356  1.00  0.00     0.161 HD
HETATM   19  C20 UNL     1       9.218  66.344   1.603  1.00  0.00     0.123 C
HETATM   20  C21 UNL     1       8.272  67.492   1.350  1.00  0.00     0.046 C
HETATM   21  C22 UNL     1       6.902  67.306   1.982  1.00  0.00     0.176 C
HETATM   22  O6  UNL     1       6.926  66.896   3.265  1.00  0.00    -0.355 OA
ENDROOT
BRANCH   1  23
HETATM   23  C3  UNL     1       6.678  68.648   4.831  1.00  0.00     0.018 C
BRANCH  23  24
HETATM   24  C2  UNL     1       6.600  69.978   4.321  1.00  0.00     0.138 C
BRANCH  24  25
HETATM   25  S1  UNL     1       8.235  70.605   3.917  1.00  0.00     0.014 S
HETATM   26  C1  UNL     1       9.377  70.204   3.669  1.00  0.00     0.127 C
HETATM   27  O1  UNL     1       7.424  71.935   4.061  1.00  0.00    -0.258 OA
ENDBRANCH  24  25
ENDBRANCH  23  24
ENDBRANCH   1  23
BRANCH  16  28
HETATM   28  O5  UNL     1       7.992  63.877  -0.361  1.00  0.00    -0.345 OA
ATOM     29  H5  UNL     1       7.982  64.338  -1.191  1.00  0.00     0.219 HD
ENDBRANCH  16  28
BRANCH  11  30
HETATM   30  O2  UNL     1       7.850  63.646   3.753  1.00  0.00    -0.348 OA
ATOM     31  H2  UNL     1       8.609  63.223   4.136  1.00  0.00     0.219 HD
ENDBRANCH  11  30
BRANCH  15  32
HETATM   32  C17 UNL     1      11.164  62.700   0.559  1.00  0.00     0.174 C
BRANCH  32  33
HETATM   33  C18 UNL     1      12.064  63.722   1.042  1.00  0.00     0.178 C
HETATM   34  O3  UNL     1      12.012  64.205   2.182  1.00  0.00    -0.648 OA
HETATM   35  O4  UNL     1      13.053  64.207   0.198  1.00  0.00    -0.648 OA
ENDBRANCH  32  33
ENDBRANCH  15  32
BRANCH  12  36
HETATM   36  C12 UNL     1       7.987  60.555   2.934  1.00  0.00     0.037 C
BRANCH  36  37
HETATM   37  C13 UNL     1       6.729  59.917   3.345  1.00  0.00    -0.020 C
HETATM   38  C14 UNL     1       7.050  58.555   4.058  1.00  0.00     0.009 C
HETATM   39  C15 UNL     1       5.861  59.552   2.138  1.00  0.00     0.009 C
ENDBRANCH  36  37
ENDBRANCH  12  36
TORSDOF 9
ENDMDL