MODEL 4
REMARK VINA RESULT: -7.146502521      1.586      2.186
REMARK  10 active torsions:
REMARK  status: ('A' for Active; 'I' for Inactive)
REMARK    1  A    between atoms: C2_2  and  C3_3
REMARK    2  A    between atoms: C3_3  and  C5_5
REMARK    3  A    between atoms: C5_5  and  C6_6
REMARK    4  A    between atoms: C5_5  and  N1_9
REMARK    5  A    between atoms: C5_5  and  C13_18
REMARK    6  A    between atoms: C6_6  and  O1_7
REMARK    7  A    between atoms: C13_18  and  O2_19
REMARK    8  A    between atoms: C13_18  and  N3_21
REMARK    9  A    between atoms: C16_24  and  N4_25
REMARK       I    between atoms: N5_28  and  C19_29
REMARK   10  A    between atoms: C21_35  and  C22_36
ROOT
HETATM    1  N3  UNL     1       6.635  63.845   0.759  1.00  0.00    -0.363 N
HETATM    2  C14 UNL     1       6.687  65.120   1.588  1.00  0.00     0.127 C
HETATM    3  C15 UNL     1       8.054  65.203   2.266  1.00  0.00     0.055 C
HETATM    4  C16 UNL     1       9.110  65.179   1.208  1.00  0.00     0.227 C
HETATM    5  C23 UNL     1       9.023  63.841   0.530  1.00  0.00     0.055 C
HETATM    6  C24 UNL     1       7.662  63.848  -0.214  1.00  0.00     0.127 C
ENDROOT
BRANCH   1   7
HETATM    7  C13 UNL     1       5.638  62.970   1.125  1.00  0.00     0.145 C
BRANCH   7   8
HETATM    8  C5  UNL     1       5.658  61.737   2.010  1.00  0.00     0.119 C
BRANCH   8   9
HETATM    9  C3  UNL     1       6.911  61.804   2.804  1.00  0.00     0.020 C
HETATM   10  C4  UNL     1       8.084  61.060   2.144  1.00  0.00     0.013 C
BRANCH   9  11
HETATM   11  C2  UNL     1       6.849  61.390   4.235  1.00  0.00     0.002 C
HETATM   12  C1  UNL     1       6.918  59.862   4.367  1.00  0.00     0.005 C
ENDBRANCH   9  11
ENDBRANCH   8   9
BRANCH   8  13
HETATM   13  C6  UNL     1       4.501  61.962   2.959  1.00  0.00     0.204 C
BRANCH  13  14
HETATM   14  O1  UNL     1       4.299  63.281   3.315  1.00  0.00    -0.398 OA
ATOM     15  H1  UNL     1       3.415  63.482   3.598  1.00  0.00     0.209 HD
ENDBRANCH  13  14
ENDBRANCH   8  13
BRANCH   8  16
HETATM   16  N1  UNL     1       5.571  60.653   1.190  1.00  0.00    -0.378 N
HETATM   17  C7  UNL     1       4.731  59.621   0.959  1.00  0.00    -0.014 C
HETATM   18  C8  UNL     1       3.284  59.920   0.579  1.00  0.00     0.082 C
HETATM   19  C12 UNL     1       4.797  58.272   1.558  1.00  0.00     0.082 C
HETATM   20  C9  UNL     1       2.804  58.732  -0.234  1.00  0.00     0.277 C
HETATM   21  N2  UNL     1       2.578  57.649   0.694  1.00  0.00     0.084 N
HETATM   22  C10 UNL     1       1.193  57.729   1.120  1.00  0.00     0.309 C
HETATM   23  C11 UNL     1       3.412  57.688   1.847  1.00  0.00     0.277 C
ATOM     24  H1  UNL     1       6.378  60.607   0.567  1.00  0.00     0.160 HD
ENDBRANCH   8  16
ENDBRANCH   7   8
BRANCH   7  25
HETATM   25  O2  UNL     1       4.471  63.256   0.623  1.00  0.00    -0.347 OA
ATOM     26  H2  UNL     1       3.806  63.473   1.266  1.00  0.00     0.219 HD
ENDBRANCH   7  25
ENDBRANCH   1   7
BRANCH   4  27
HETATM   27  N4  UNL     1      10.423  65.568   1.617  1.00  0.00     0.110 N
HETATM   28  C17 UNL     1      11.351  64.763   0.819  1.00  0.00     0.293 C
HETATM   29  C18 UNL     1      12.771  65.272   0.995  1.00  0.00     0.156 C
HETATM   30  N5  UNL     1      13.065  65.128   2.408  1.00  0.00    -0.352 N
HETATM   31  C19 UNL     1      14.357  65.409   2.868  1.00  0.00     0.184 C
HETATM   32  C20 UNL     1      11.972  64.689   3.254  1.00  0.00     0.170 C
HETATM   33  N6  UNL     1      15.221  65.932   2.061  1.00  0.00    -0.374 N
HETATM   34  N7  UNL     1      14.797  65.154   4.200  1.00  0.00    -0.064 NA
ATOM     35  H62 UNL     1      14.906  66.114   1.107  1.00  0.00     0.158 HD
ATOM     36  H61 UNL     1      16.162  66.136   2.395  1.00  0.00     0.158 HD
HETATM   37  C21 UNL     1      10.699  65.511   3.004  1.00  0.00     0.347 C
BRANCH  37  38
HETATM   38  C22 UNL     1      10.967  66.852   3.663  1.00  0.00     0.419 C
HETATM   39  F1  UNL     1      11.878  66.757   4.698  1.00  0.00    -0.169 F
HETATM   40  F2  UNL     1      11.310  67.839   2.761  1.00  0.00    -0.169 F
HETATM   41  F3  UNL     1       9.796  67.326   4.278  1.00  0.00    -0.169 F
ENDBRANCH  37  38
ENDBRANCH   4  27
TORSDOF 10
ENDMDL