MODEL 2
REMARK VINA RESULT: -7.441533496      2.391      5.194
REMARK  10 active torsions:
REMARK  status: ('A' for Active; 'I' for Inactive)
REMARK    1  A    between atoms: C3_3  and  N1_4
REMARK    2  A    between atoms: C3_3  and  N3_32
REMARK    3  A    between atoms: N1_4  and  C4_6
REMARK    4  A    between atoms: C4_6  and  C6_8
REMARK    5  A    between atoms: C4_6  and  C9_11
REMARK    6  A    between atoms: C6_8  and  C7_9
REMARK       I    between atoms: C9_11  and  N2_13
REMARK    7  A    between atoms: N2_13  and  C10_15
REMARK    8  A    between atoms: C13_18  and  O2_19
REMARK    9  A    between atoms: C16_24  and  O3_25
REMARK   10  A    between atoms: C23_35  and  O5_36
ROOT
HETATM    1  C1  UNL     1       2.816  60.932   2.004  1.00  0.00     0.021 C
HETATM    2  C2  UNL     1       4.000  60.926   2.293  1.00  0.00    -0.041 C
HETATM    3  C3  UNL     1       5.445  60.939   2.660  1.00  0.00     0.159 C
ENDROOT
BRANCH   3   4
HETATM    4  N1  UNL     1       6.108  62.120   2.372  1.00  0.00    -0.351 N
ATOM      5  H1  UNL     1       6.441  62.216   1.413  1.00  0.00     0.163 HD
BRANCH   4   6
HETATM    6  C4  UNL     1       6.380  63.187   3.207  1.00  0.00     0.112 C
HETATM    7  C5  UNL     1       6.632  62.807   4.662  1.00  0.00     0.049 C
BRANCH   6   8
HETATM    8  C6  UNL     1       5.697  64.487   3.104  1.00  0.00     0.067 C
BRANCH   8   9
HETATM    9  C7  UNL     1       4.259  64.536   2.817  1.00  0.00    -0.034 C
HETATM   10  C8  UNL     1       3.398  64.353   3.798  1.00  0.00     0.007 C
ENDBRANCH   8   9
ENDBRANCH   6   8
BRANCH   6  11
HETATM   11  C9  UNL     1       7.843  63.583   2.768  1.00  0.00     0.246 C
HETATM   12  O1  UNL     1       8.719  62.785   3.140  1.00  0.00    -0.271 OA
HETATM   13  N2  UNL     1       8.086  64.705   2.037  1.00  0.00    -0.351 N
ATOM     14  H2  UNL     1       7.238  65.247   1.864  1.00  0.00     0.163 HD
BRANCH  13  15
HETATM   15  C10 UNL     1       9.264  65.317   1.443  1.00  0.00     0.120 C
HETATM   16  C11 UNL     1      10.228  64.332   0.895  1.00  0.00     0.042 C
HETATM   17  C12 UNL     1       9.723  63.973  -0.532  1.00  0.00     0.015 C
HETATM   18  C13 UNL     1      11.602  64.893   0.732  1.00  0.00     0.201 C
HETATM   19  C15 UNL     1      12.409  64.774   2.029  1.00  0.00     0.295 C
HETATM   20  F1  UNL     1      13.757  64.842   1.727  1.00  0.00    -0.201 F
HETATM   21  F2  UNL     1      12.173  63.541   2.590  1.00  0.00    -0.201 F
HETATM   22  C16 UNL     1      12.056  65.841   3.001  1.00  0.00     0.199 C
HETATM   23  C17 UNL     1      11.082  66.856   2.434  1.00  0.00     0.053 C
HETATM   24  C18 UNL     1      10.933  67.890   3.597  1.00  0.00     0.036 C
HETATM   25  C20 UNL     1       9.697  66.414   2.307  1.00  0.00     0.151 C
HETATM   26  C19 UNL     1       9.658  67.420   4.239  1.00  0.00     0.168 C
HETATM   27  O4  UNL     1       9.363  66.186   3.671  1.00  0.00    -0.383 OA
BRANCH  18  28
HETATM   28  O2  UNL     1      12.368  64.206  -0.249  1.00  0.00    -0.384 OA
HETATM   29  C14 UNL     1      12.702  65.036  -1.306  1.00  0.00     0.202 C
ENDBRANCH  18  28
BRANCH  22  30
HETATM   30  O3  UNL     1      13.223  66.541   3.336  1.00  0.00    -0.389 OA
ATOM     31  H3  UNL     1      13.160  66.815   4.243  1.00  0.00     0.210 HD
ENDBRANCH  22  30
ENDBRANCH  13  15
ENDBRANCH   6  11
ENDBRANCH   4   6
ENDBRANCH   3   4
BRANCH   3  32
HETATM   32  N3  UNL     1       6.073  59.686   2.503  1.00  0.00    -0.340 N
HETATM   33  C21 UNL     1       7.086  59.479   3.482  1.00  0.00     0.133 C
HETATM   34  C22 UNL     1       7.101  58.191   4.208  1.00  0.00     0.052 C
HETATM   35  C23 UNL     1       6.658  57.019   3.346  1.00  0.00     0.124 C
HETATM   36  C24 UNL     1       5.231  57.385   2.911  1.00  0.00     0.076 C
HETATM   37  C25 UNL     1       5.385  58.580   1.999  1.00  0.00     0.069 C
BRANCH  35  38
HETATM   38  O5  UNL     1       6.694  55.853   4.081  1.00  0.00    -0.395 OA
ATOM     39  H5  UNL     1       6.074  55.226   3.727  1.00  0.00     0.210 HD
ENDBRANCH  35  38
ENDBRANCH   3  32
TORSDOF 10
ENDMDL