MODEL 4
REMARK VINA RESULT: -8.724907256      2.895      5.887
REMARK  8 active torsions:
REMARK  status: ('A' for Active; 'I' for Inactive)
REMARK    1  A    between atoms: C2_2  and  N1_3
REMARK    2  A    between atoms: C2_2  and  C19_30
REMARK       I    between atoms: N1_3  and  C3_5
REMARK    3  A    between atoms: C3_5  and  C4_7
REMARK    4  A    between atoms: C4_7  and  C5_8
REMARK    5  A    between atoms: C5_8  and  C6_9
REMARK       I    between atoms: C6_9  and  N2_11
REMARK    6  A    between atoms: N2_11  and  C7_13
REMARK    7  A    between atoms: C7_13  and  C8_14
REMARK    8  A    between atoms: C14_23  and  C15_24
REMARK       I    between atoms: C19_30  and  N5_32
ROOT
HETATM    1  C4  UNL     1       9.418  65.093   2.200  1.00  0.00     0.140 C
HETATM    2  N3  UNL     1      10.002  63.824   2.499  1.00  0.00    -0.127 NA
HETATM    3  N4  UNL     1      11.312  64.115   2.867  1.00  0.00    -0.136 NA
HETATM    4  C14 UNL     1      11.256  65.336   3.649  1.00  0.00     0.173 C
HETATM    5  C17 UNL     1      10.187  66.144   2.916  1.00  0.00     0.044 C
HETATM    6  C18 UNL     1       9.500  67.019   3.877  1.00  0.00     0.014 C
ENDROOT
BRANCH   1   7
HETATM    7  C3  UNL     1       9.756  65.347   0.731  1.00  0.00     0.245 C
HETATM    8  N1  UNL     1      10.962  64.900   0.147  1.00  0.00    -0.346 N
ATOM      9  H1  UNL     1      11.634  64.392   0.722  1.00  0.00     0.163 HD
HETATM   10  O1  UNL     1       8.947  65.977  -0.015  1.00  0.00    -0.271 OA
BRANCH   8  11
HETATM   11  C2  UNL     1      11.271  65.148  -1.256  1.00  0.00     0.172 C
HETATM   12  C1  UNL     1      12.762  65.131  -1.437  1.00  0.00     0.042 C
BRANCH  11  13
HETATM   13  C19 UNL     1      10.648  64.123  -2.092  1.00  0.00     0.242 C
HETATM   14  O4  UNL     1      10.803  62.899  -1.757  1.00  0.00    -0.271 OA
HETATM   15  N5  UNL     1       9.876  64.378  -3.252  1.00  0.00    -0.350 N
HETATM   16  C20 UNL     1       9.321  63.289  -3.996  1.00  0.00     0.126 C
HETATM   17  C24 UNL     1       9.671  65.769  -3.643  1.00  0.00     0.126 C
HETATM   18  C21 UNL     1       7.989  63.609  -4.648  1.00  0.00     0.020 C
HETATM   19  C22 UNL     1       8.099  64.946  -5.313  1.00  0.00     0.003 C
HETATM   20  C23 UNL     1       8.265  65.981  -4.198  1.00  0.00     0.020 C
ENDBRANCH  11  13
ENDBRANCH   8  11
ENDBRANCH   1   7
BRANCH   1  21
HETATM   21  C5  UNL     1       7.947  65.134   2.256  1.00  0.00     0.141 C
BRANCH  21  22
HETATM   22  C6  UNL     1       7.242  64.153   3.068  1.00  0.00     0.220 C
HETATM   23  O2  UNL     1       6.695  64.503   4.134  1.00  0.00    -0.274 OA
HETATM   24  N2  UNL     1       7.141  62.787   2.709  1.00  0.00    -0.359 N
ATOM     25  H2  UNL     1       7.586  62.513   1.834  1.00  0.00     0.162 HD
BRANCH  24  26
HETATM   26  C7  UNL     1       6.484  61.751   3.440  1.00  0.00     0.155 C
BRANCH  26  27
HETATM   27  C8  UNL     1       6.728  60.415   2.817  1.00  0.00     0.156 C
HETATM   28  C9  UNL     1       7.088  59.459   3.930  1.00  0.00     0.035 C
HETATM   29  C10 UNL     1       7.427  58.076   3.690  1.00  0.00     0.004 C
HETATM   30  C11 UNL     1       6.363  56.996   3.582  1.00  0.00     0.013 C
HETATM   31  C12 UNL     1       5.363  57.321   2.424  1.00  0.00     0.112 C
HETATM   32  C13 UNL     1       5.465  58.701   2.200  1.00  0.00    -0.027 C
HETATM   33  O3  UNL     1       5.593  59.980   2.049  1.00  0.00    -0.308 OA
ENDBRANCH  26  27
ENDBRANCH  24  26
ENDBRANCH  21  22
ENDBRANCH   1  21
BRANCH   4  34
HETATM   34  C15 UNL     1      12.597  66.026   3.574  1.00  0.00     0.259 C
HETATM   35  C16 UNL     1      13.717  65.032   3.797  1.00  0.00     0.092 C
HETATM   36  F1  UNL     1      12.771  66.628   2.340  1.00  0.00    -0.205 F
HETATM   37  F2  UNL     1      12.699  67.011   4.535  1.00  0.00    -0.205 F
ENDBRANCH   4  34
TORSDOF 8
ENDMDL