MODEL 4
REMARK VINA RESULT: -7.325072619      1.715      2.216
REMARK  11 active torsions:
REMARK  status: ('A' for Active; 'I' for Inactive)
REMARK    1  A    between atoms: C2_2  and  C4_5
REMARK    2  A    between atoms: C4_5  and  O1_6
REMARK    3  A    between atoms: C4_5  and  N1_8
REMARK    4  A    between atoms: N1_8  and  C5_9
REMARK    5  A    between atoms: N1_8  and  C8_12
REMARK    6  A    between atoms: C12_16  and  N2_17
REMARK    7  A    between atoms: C14_19  and  O2_20
REMARK    8  A    between atoms: C17_27  and  O4_28
REMARK    9  A    between atoms: C19_31  and  C20_32
REMARK   10  A    between atoms: C20_32  and  C21_33
REMARK   11  A    between atoms: C21_33  and  N4_36
REMARK       I    between atoms: N4_36  and  C22_38
ROOT
HETATM    1  C8  UNL     1       8.909  63.185   2.468  1.00  0.00     0.004 C
HETATM    2  C9  UNL     1       9.705  62.089   1.780  1.00  0.00     0.058 C
HETATM    3  C10 UNL     1      10.714  62.526   0.792  1.00  0.00    -0.004 C
HETATM    4  C11 UNL     1      12.018  62.955   1.442  1.00  0.00     0.036 C
HETATM    5  C12 UNL     1      11.949  64.321   2.032  1.00  0.00     0.045 C
HETATM    6  C16 UNL     1      11.435  65.406   1.157  1.00  0.00     0.070 C
HETATM    7  C17 UNL     1      10.040  64.810   0.858  1.00  0.00     0.074 C
HETATM    8  C18 UNL     1      10.301  63.703  -0.042  1.00  0.00     0.044 C
HETATM    9  C19 UNL     1       9.501  64.478   2.277  1.00  0.00     0.039 C
HETATM   10  C23 UNL     1      10.851  64.401   3.080  1.00  0.00     0.050 C
ENDROOT
BRANCH   1  11
HETATM   11  N1  UNL     1       7.534  62.772   2.687  1.00  0.00    -0.330 N
BRANCH  11  12
HETATM   12  C4  UNL     1       6.912  61.546   2.489  1.00  0.00     0.158 C
BRANCH  12  13
HETATM   13  C2  UNL     1       6.653  60.337   3.268  1.00  0.00     0.160 C
HETATM   14  C1  UNL     1       5.453  59.529   2.913  1.00  0.00     0.060 C
HETATM   15  C3  UNL     1       7.828  59.327   3.020  1.00  0.00     0.060 C
HETATM   16  F1  UNL     1       6.731  60.464   4.631  1.00  0.00    -0.235 F
ENDBRANCH  12  13
BRANCH  12  17
HETATM   17  O1  UNL     1       6.398  61.401   1.293  1.00  0.00    -0.347 OA
ATOM     18  H1  UNL     1       5.554  61.837   1.265  1.00  0.00     0.219 HD
ENDBRANCH  12  17
ENDBRANCH  11  12
BRANCH  11  19
HETATM   19  C5  UNL     1       6.642  63.788   3.313  1.00  0.00     0.091 A
HETATM   20  C6  UNL     1       6.372  63.942   4.703  1.00  0.00     0.028 A
HETATM   21  C7  UNL     1       5.276  63.630   3.748  1.00  0.00     0.028 A
ENDBRANCH  11  19
ENDBRANCH   1  11
BRANCH   9  22
HETATM   22  C20 UNL     1       8.853  65.746   2.658  1.00  0.00     0.122 C
BRANCH  22  23
HETATM   23  C21 UNL     1       9.316  66.735   3.629  1.00  0.00     0.324 C
HETATM   24  F2  UNL     1       9.983  67.851   3.072  1.00  0.00    -0.183 F
HETATM   25  F3  UNL     1      10.030  66.285   4.720  1.00  0.00    -0.183 F
BRANCH  23  26
HETATM   26  N4  UNL     1       8.170  67.360   4.202  1.00  0.00    -0.305 N
HETATM   27  C22 UNL     1       7.312  68.127   4.341  1.00  0.00     0.201 C
HETATM   28  N5  UNL     1       7.014  69.295   3.528  1.00  0.00    -0.067 NA
HETATM   29  N6  UNL     1       6.353  68.001   5.441  1.00  0.00    -0.067 NA
ATOM     30  H4  UNL     1       7.990  66.735   4.988  1.00  0.00     0.167 HD
ENDBRANCH  23  26
ENDBRANCH  22  23
ENDBRANCH   9  22
BRANCH   7  31
HETATM   31  O4  UNL     1       9.350  65.882   0.295  1.00  0.00    -0.389 OA
ATOM     32  H4  UNL     1      10.026  66.539   0.181  1.00  0.00     0.210 HD
ENDBRANCH   7  31
BRANCH   5  33
HETATM   33  N2  UNL     1      13.229  64.652   2.580  1.00  0.00    -0.296 N
HETATM   34  C13 UNL     1      13.661  64.491   3.855  1.00  0.00     0.152 A
HETATM   35  C14 UNL     1      14.949  64.937   3.965  1.00  0.00     0.160 A
HETATM   36  N3  UNL     1      15.287  65.364   2.757  1.00  0.00    -0.288 N
HETATM   37  C15 UNL     1      14.247  65.193   1.916  1.00  0.00     0.329 A
ATOM     38  H3  UNL     1      16.191  65.761   2.503  1.00  0.00     0.172 HD
HETATM   39  O3  UNL     1      14.365  65.542   0.699  1.00  0.00    -0.246 OA
BRANCH  35  40
HETATM   40  O2  UNL     1      15.760  64.954   5.079  1.00  0.00    -0.345 OA
ATOM     41  H2  UNL     1      15.523  64.794   5.984  1.00  0.00     0.219 HD
ENDBRANCH  35  40
ENDBRANCH   5  33
TORSDOF 11
ENDMDL