MODEL 3
REMARK VINA RESULT: -7.467754641      1.478      1.853
REMARK  6 active torsions:
REMARK  status: ('A' for Active; 'I' for Inactive)
REMARK    1  A    between atoms: O1_2  and  C2_3
REMARK    2  A    between atoms: C3_4  and  C4_5
REMARK       I    between atoms: C4_5  and  N1_7
REMARK    3  A    between atoms: N1_7  and  C5_9
REMARK    4  A    between atoms: C5_9  and  C6_10
REMARK       I    between atoms: C6_10  and  N2_12
REMARK    5  A    between atoms: N2_12  and  C7_14
REMARK    6  A    between atoms: C11_19  and  C12_20
ROOT
HETATM    1  C7  UNL     1      14.214  64.750   5.123  1.00  0.00     0.122 A
HETATM    2  C8  UNL     1      14.674  64.436   6.503  1.00  0.00     0.091 C
HETATM    3  N3  UNL     1      15.028  64.192   7.574  1.00  0.00    -0.195 NA
HETATM    4  C9  UNL     1      14.631  63.728   4.089  1.00  0.00     0.050 A
HETATM    5  C10 UNL     1      15.299  65.080   4.184  1.00  0.00     0.050 A
ENDROOT
BRANCH   1   6
HETATM    6  N2  UNL     1      12.901  65.326   5.060  1.00  0.00    -0.338 N
HETATM    7  C6  UNL     1      12.367  66.074   3.986  1.00  0.00     0.236 C
HETATM    8  O3  UNL     1      13.075  66.278   2.974  1.00  0.00    -0.272 OA
ATOM      9  H2  UNL     1      12.295  65.181   5.867  1.00  0.00     0.164 HD
BRANCH   7  10
HETATM   10  C5  UNL     1      10.997  66.598   4.073  1.00  0.00     0.225 C
BRANCH  10  11
HETATM   11  N1  UNL     1       9.959  65.679   3.753  1.00  0.00    -0.352 N
HETATM   12  C4  UNL     1       9.351  65.555   2.469  1.00  0.00     0.227 C
HETATM   13  O2  UNL     1       9.786  66.330   1.588  1.00  0.00    -0.273 OA
ATOM     14  H1  UNL     1       9.626  65.064   4.496  1.00  0.00     0.162 HD
BRANCH  12  15
HETATM   15  C3  UNL     1       8.277  64.546   2.269  1.00  0.00     0.140 C
HETATM   16  C2  UNL     1       7.723  64.161   3.581  1.00  0.00     0.141 C
HETATM   17  C20 UNL     1       6.987  62.883   3.656  1.00  0.00     0.027 C
HETATM   18  C16 UNL     1       7.739  61.605   3.643  1.00  0.00     0.007 C
HETATM   19  C19 UNL     1       5.942  62.632   2.633  1.00  0.00     0.016 C
HETATM   20  C15 UNL     1       8.270  61.130   2.349  1.00  0.00     0.008 C
HETATM   21  C17 UNL     1       6.546  60.688   3.987  1.00  0.00     0.062 C
HETATM   22  C14 UNL     1       7.538  61.468   1.120  1.00  0.00     0.025 C
HETATM   23  C13 UNL     1       6.474  62.526   1.224  1.00  0.00     0.082 C
HETATM   24  N4  UNL     1       6.721  63.724   0.561  1.00  0.00    -0.403 N
HETATM   25  C11 UNL     1       7.327  64.843   1.170  1.00  0.00     0.194 C
ATOM     26  H4  UNL     1       6.447  63.798  -0.419  1.00  0.00     0.154 HD
HETATM   27 BR1  UNL     1       6.932  58.853   3.863  1.00  0.00    -0.091 Br
HETATM   28  C18 UNL     1       5.517  61.198   3.007  1.00  0.00     0.023 C
BRANCH  16  29
HETATM   29  O1  UNL     1       6.859  65.145   4.043  1.00  0.00    -0.389 OA
HETATM   30  C1  UNL     1       6.224  64.792   5.224  1.00  0.00     0.202 C
ENDBRANCH  16  29
BRANCH  25  31
HETATM   31  C12 UNL     1       6.288  65.857   1.427  1.00  0.00     0.197 C
HETATM   32  O4  UNL     1       6.554  67.090   1.632  1.00  0.00    -0.646 OA
HETATM   33  O5  UNL     1       4.936  65.580   1.473  1.00  0.00    -0.646 OA
ENDBRANCH  25  31
ENDBRANCH  12  15
ENDBRANCH  10  11
ENDBRANCH   7  10
ENDBRANCH   1   6
TORSDOF 6
ENDMDL