MODEL 1
REMARK VINA RESULT: -9.477675496      0.000      0.000
REMARK  7 active torsions:
REMARK  status: ('A' for Active; 'I' for Inactive)
REMARK    1  A    between atoms: C3_6  and  C4_7
REMARK    2  A    between atoms: C4_7  and  O1_8
REMARK    3  A    between atoms: C4_7  and  C5_10
REMARK    4  A    between atoms: C5_10  and  N2_11
REMARK    5  A    between atoms: N2_11  and  C6_14
REMARK       I    between atoms: N3_17  and  C9_18
REMARK    6  A    between atoms: C9_18  and  C10_20
REMARK    7  A    between atoms: C10_20  and  C11_21
ROOT
HETATM    1  C5  UNL     1      11.609  63.092   0.413  1.00  0.00     0.268 C
ENDROOT
BRANCH   1   2
HETATM    2  C4  UNL     1      12.270  64.372   0.007  1.00  0.00     0.194 C
BRANCH   2   3
HETATM    3  C3  UNL     1      12.802  65.113   1.238  1.00  0.00     0.318 C
HETATM    4  N1  UNL     1      11.756  64.949   2.243  1.00  0.00    -0.039 N
HETATM    5  C2  UNL     1      11.516  66.230   2.848  1.00  0.00     0.275 C
ATOM      6  H12 UNL     1      11.978  64.225   2.926  1.00  0.00     0.280 HD
ATOM      7  H11 UNL     1      10.909  64.526   1.865  1.00  0.00     0.280 HD
HETATM    8  C1  UNL     1      10.059  66.259   3.271  1.00  0.00     0.050 C
HETATM    9  C23 UNL     1      12.406  66.433   4.023  1.00  0.00     0.250 C
HETATM   10  N5  UNL     1      13.375  65.684   4.752  1.00  0.00    -0.342 N
HETATM   11  O4  UNL     1      12.276  67.582   4.515  1.00  0.00    -0.271 OA
HETATM   12  C20 UNL     1      14.119  64.504   4.442  1.00  0.00     0.174 C
HETATM   13  C22 UNL     1      13.629  66.251   6.048  1.00  0.00     0.153 C
HETATM   14  C19 UNL     1      14.610  64.466   3.049  1.00  0.00     0.241 C
HETATM   15  C21 UNL     1      15.300  64.351   5.386  1.00  0.00     0.042 C
HETATM   16  N4  UNL     1      14.014  64.504   1.752  1.00  0.00    -0.329 N
HETATM   17  O3  UNL     1      15.871  64.378   2.952  1.00  0.00    -0.271 OA
ATOM     18  H4  UNL     1      14.549  64.001   1.043  1.00  0.00     0.164 HD
ENDBRANCH   2   3
BRANCH   2  19
HETATM   19  O1  UNL     1      11.400  65.236  -0.633  1.00  0.00    -0.390 OA
ATOM     20  H1  UNL     1      10.996  64.744  -1.337  1.00  0.00     0.210 HD
ENDBRANCH   2  19
ENDBRANCH   1   2
BRANCH   1  21
HETATM   21  N2  UNL     1      10.308  62.976  -0.187  1.00  0.00    -0.068 N
ATOM     22  H22 UNL     1      10.255  63.533  -1.039  1.00  0.00     0.277 HD
ATOM     23  H21 UNL     1      10.176  62.046  -0.582  1.00  0.00     0.277 HD
BRANCH  21  24
HETATM   24  C6  UNL     1       9.227  63.307   0.703  1.00  0.00     0.189 C
HETATM   25  C7  UNL     1       7.876  62.889   0.218  1.00  0.00     0.053 C
HETATM   26  C8  UNL     1       7.218  61.825   1.073  1.00  0.00     0.128 C
HETATM   27  N3  UNL     1       7.238  62.168   2.487  1.00  0.00    -0.352 N
HETATM   28  C9  UNL     1       6.299  61.647   3.414  1.00  0.00     0.220 C
HETATM   29  C17 UNL     1       8.280  63.080   2.925  1.00  0.00     0.128 C
HETATM   30  O2  UNL     1       6.394  62.006   4.612  1.00  0.00    -0.273 OA
HETATM   31  C18 UNL     1       9.539  62.780   2.105  1.00  0.00     0.053 C
BRANCH  28  32
HETATM   32  C10 UNL     1       5.285  60.725   2.903  1.00  0.00     0.107 C
BRANCH  32  33
HETATM   33  C11 UNL     1       5.739  59.334   2.629  1.00  0.00    -0.005 C
HETATM   34  C12 UNL     1       6.328  58.641   3.831  1.00  0.00     0.011 C
HETATM   35  C13 UNL     1       7.017  57.385   3.273  1.00  0.00     0.079 C
HETATM   36  C14 UNL     1       5.947  56.427   2.793  1.00  0.00     0.243 C
HETATM   37  F1  UNL     1       5.824  55.350   3.642  1.00  0.00    -0.206 F
HETATM   38  F2  UNL     1       6.299  55.937   1.549  1.00  0.00    -0.206 F
HETATM   39  C15 UNL     1       4.603  57.102   2.674  1.00  0.00     0.079 C
HETATM   40  C16 UNL     1       4.724  58.458   1.973  1.00  0.00     0.011 C
ENDBRANCH  32  33
ENDBRANCH  28  32
ENDBRANCH  21  24
ENDBRANCH   1  21
TORSDOF 7
ENDMDL