MODEL 2
REMARK VINA RESULT: -8.227228412      3.272      5.118
REMARK  9 active torsions:
REMARK  status: ('A' for Active; 'I' for Inactive)
REMARK    1  A    between atoms: S1_2  and  N1_5
REMARK    2  A    between atoms: C4_8  and  C5_9
REMARK    3  A    between atoms: C5_9  and  O3_10
REMARK    4  A    between atoms: C5_9  and  N2_12
REMARK    5  A    between atoms: C5_9  and  C8_18
REMARK    6  A    between atoms: N2_12  and  C6_14
REMARK    7  A    between atoms: C6_14  and  C7_15
REMARK    8  A    between atoms: C8_18  and  O6_19
REMARK    9  A    between atoms: C8_18  and  N3_21
ROOT
HETATM    1  C5  UNL     1       9.710  66.761   3.399  1.00  0.00     0.198 C
ENDROOT
BRANCH   1   2
HETATM    2  C4  UNL     1      10.946  65.913   3.339  1.00  0.00     0.056 C
HETATM    3  C3  UNL     1      11.818  66.000   2.158  1.00  0.00     0.031 C
HETATM    4  C2  UNL     1      13.121  65.237   2.322  1.00  0.00     0.141 C
HETATM    5  N1  UNL     1      13.850  65.622   3.469  1.00  0.00    -0.291 N
HETATM    6  C21 UNL     1      13.150  66.074   4.600  1.00  0.00     0.076 C
HETATM    7  C20 UNL     1      11.692  65.780   4.633  1.00  0.00     0.055 C
BRANCH   5   8
HETATM    8  S1  UNL     1      15.147  64.541   3.734  1.00  0.00     0.228 S
HETATM    9  C1  UNL     1      15.592  64.324   5.417  1.00  0.00     0.186 C
HETATM   10  O1  UNL     1      16.384  64.979   2.994  1.00  0.00    -0.206 OA
HETATM   11  O2  UNL     1      14.778  63.169   3.185  1.00  0.00    -0.206 OA
ENDBRANCH   5   8
ENDBRANCH   1   2
BRANCH   1  12
HETATM   12  O3  UNL     1       9.442  66.650   4.850  1.00  0.00    -0.364 OA
ATOM     13  H3  UNL     1       9.440  67.576   5.062  1.00  0.00     0.213 HD
ENDBRANCH   1  12
BRANCH   1  14
HETATM   14  N2  UNL     1       9.739  68.131   3.205  1.00  0.00    -0.375 N
ATOM     15  H2  UNL     1       9.740  68.519   2.262  1.00  0.00     0.157 HD
BRANCH  14  16
HETATM   16  C6  UNL     1       9.767  69.004   4.355  1.00  0.00     0.230 C
BRANCH  16  17
HETATM   17  C7  UNL     1       8.468  69.736   4.423  1.00  0.00     0.191 C
HETATM   18  O4  UNL     1       7.451  69.115   4.798  1.00  0.00    -0.647 OA
HETATM   19  O5  UNL     1       8.335  71.072   4.090  1.00  0.00    -0.647 OA
ENDBRANCH  16  17
ENDBRANCH  14  16
ENDBRANCH   1  14
BRANCH   1  20
HETATM   20  C8  UNL     1       8.552  66.025   2.855  1.00  0.00     0.171 C
BRANCH  20  21
HETATM   21  O6  UNL     1       7.406  66.540   3.194  1.00  0.00    -0.346 OA
ATOM     22  H6  UNL     1       6.725  66.409   2.544  1.00  0.00     0.219 HD
ENDBRANCH  20  21
BRANCH  20  23
HETATM   23  N3  UNL     1       8.454  64.890   2.046  1.00  0.00    -0.351 N
HETATM   24  C9  UNL     1       8.378  64.945   0.632  1.00  0.00     0.204 C
HETATM   25  C10 UNL     1       9.192  63.878  -0.067  1.00  0.00     0.259 C
HETATM   26  F1  UNL     1      10.249  64.484  -0.766  1.00  0.00    -0.205 F
HETATM   27  F2  UNL     1       8.427  63.277  -1.010  1.00  0.00    -0.205 F
HETATM   28  C11 UNL     1       9.850  62.973   0.917  1.00  0.00     0.087 C
HETATM   29  C12 UNL     1       8.890  62.456   1.976  1.00  0.00     0.014 C
HETATM   30  C13 UNL     1       7.854  61.602   1.327  1.00  0.00     0.007 C
HETATM   31  C19 UNL     1       8.413  63.604   2.767  1.00  0.00     0.090 C
HETATM   32  C14 UNL     1       7.248  60.519   2.114  1.00  0.00     0.000 C
HETATM   33  C15 UNL     1       7.439  60.506   3.578  1.00  0.00     0.000 C
HETATM   34  C16 UNL     1       6.423  61.365   4.341  1.00  0.00     0.000 C
HETATM   35  C17 UNL     1       7.011  62.731   4.619  1.00  0.00     0.002 C
HETATM   36  C18 UNL     1       7.011  63.468   3.293  1.00  0.00     0.026 C
ENDBRANCH  20  23
ENDBRANCH   1  20
TORSDOF 9
ENDMDL