MODEL 2
REMARK VINA RESULT: -7.990980394      1.199      1.270
REMARK  10 active torsions:
REMARK  status: ('A' for Active; 'I' for Inactive)
REMARK    1  A    between atoms: C2_2  and  O1_3
REMARK    2  A    between atoms: C2_2  and  C9_25
REMARK    3  A    between atoms: O1_3  and  C3_4
REMARK    4  A    between atoms: C3_4  and  C4_5
REMARK    5  A    between atoms: C4_5  and  N1_6
REMARK    6  A    between atoms: N1_6  and  C5_8
REMARK    7  A    between atoms: C7_15  and  N4_16
REMARK    8  A    between atoms: N6_21  and  O2_23
REMARK    9  A    between atoms: C10_26  and  C11_27
REMARK   10  A    between atoms: C11_27  and  N7_28
ROOT
HETATM    1  O1  UNL     1       8.266  65.529   3.443  1.00  0.00    -0.327 OA
ENDROOT
BRANCH   1   2
HETATM    2  C2  UNL     1       7.721  64.967   2.291  1.00  0.00     0.158 C
HETATM    3  C1  UNL     1       6.390  65.686   2.035  1.00  0.00     0.045 C
BRANCH   2   4
HETATM    4  C9  UNL     1       7.493  63.500   2.449  1.00  0.00    -0.020 C
HETATM    5  C10 UNL     1       6.906  63.054   3.555  1.00  0.00    -0.052 C
HETATM    6  C17 UNL     1       6.668  61.572   3.756  1.00  0.00     0.066 C
HETATM    7  C18 UNL     1       6.940  60.720   2.595  1.00  0.00     0.023 C
HETATM    8  C19 UNL     1       5.694  59.850   2.328  1.00  0.00     0.038 C
HETATM    9  C20 UNL     1       8.027  59.721   2.976  1.00  0.00     0.038 C
HETATM   10  N8  UNL     1       7.286  61.317   1.383  1.00  0.00    -0.401 N
HETATM   11  C21 UNL     1       7.949  62.576   1.421  1.00  0.00     0.045 C
ATOM     12  H8  UNL     1       7.071  60.864   0.494  1.00  0.00     0.155 HD
HETATM   13  C22 UNL     1       9.434  62.323   1.577  1.00  0.00     0.043 C
HETATM   14  C23 UNL     1       7.780  63.118  -0.012  1.00  0.00     0.043 C
BRANCH   5  15
HETATM   15  C11 UNL     1       6.443  63.873   4.684  1.00  0.00     0.162 C
BRANCH  15  16
HETATM   16  N7  UNL     1       5.052  63.692   4.990  1.00  0.00    -0.363 N
HETATM   17  C12 UNL     1       4.131  63.658   4.016  1.00  0.00     0.090 A
HETATM   18  C13 UNL     1       2.770  63.529   4.292  1.00  0.00     0.017 A
HETATM   19  C14 UNL     1       2.374  63.434   5.603  1.00  0.00     0.003 A
HETATM   20  C15 UNL     1       3.307  63.468   6.598  1.00  0.00     0.017 A
HETATM   21  C16 UNL     1       4.640  63.598   6.255  1.00  0.00     0.090 A
ENDBRANCH  15  16
ENDBRANCH   5  15
ENDBRANCH   2   4
ENDBRANCH   1   2
BRANCH   1  22
HETATM   22  C3  UNL     1       9.261  66.456   3.570  1.00  0.00     0.158 C
HETATM   23  N6  UNL     1       8.915  67.655   3.824  1.00  0.00    -0.245 N
HETATM   24  C8  UNL     1       9.951  68.670   3.969  1.00  0.00     0.187 C
BRANCH  22  25
HETATM   25  C4  UNL     1      10.705  66.117   3.422  1.00  0.00     0.224 C
BRANCH  25  26
HETATM   26  N1  UNL     1      11.356  65.904   4.704  1.00  0.00    -0.218 N
ATOM     27  H1  UNL     1      10.858  66.029   5.585  1.00  0.00     0.178 HD
BRANCH  26  28
HETATM   28  C5  UNL     1      12.592  65.548   4.672  1.00  0.00     0.695 A
HETATM   29  N2  UNL     1      13.269  65.130   5.766  1.00  0.00    -0.165 N
HETATM   30  C6  UNL     1      14.555  64.761   5.721  1.00  0.00     0.208 A
ATOM     31  H2  UNL     1      12.781  65.095   6.660  1.00  0.00     0.186 HD
HETATM   32 CL1  UNL     1      15.340  64.235   7.185  1.00  0.00    -0.044 Cl
HETATM   33  N3  UNL     1      15.239  64.790   4.577  1.00  0.00    -0.165 N
HETATM   34  C7  UNL     1      14.595  65.201   3.470  1.00  0.00     0.692 A
ATOM     35  H3  UNL     1      16.220  64.509   4.542  1.00  0.00     0.186 HD
HETATM   36  N5  UNL     1      13.290  65.575   3.517  1.00  0.00    -0.023 N
ATOM     37  H5  UNL     1      12.827  65.882   2.661  1.00  0.00     0.203 HD
BRANCH  34  38
HETATM   38  N4  UNL     1      15.250  65.231   2.347  1.00  0.00    -0.234 N
ATOM     39  H42 UNL     1      15.362  66.107   1.836  1.00  0.00     0.174 HD
ATOM     40  H41 UNL     1      15.645  64.361   1.992  1.00  0.00     0.174 HD
ENDBRANCH  34  38
ENDBRANCH  26  28
ENDBRANCH  25  26
ENDBRANCH  22  25
BRANCH  23  41
HETATM   41  O2  UNL     1       7.627  68.127   3.960  1.00  0.00    -0.286 OA
ATOM     42  H2  UNL     1       7.163  68.278   4.775  1.00  0.00     0.244 HD
ENDBRANCH  23  41
ENDBRANCH   1  22
TORSDOF 10
ENDMDL