MODEL 4
REMARK VINA RESULT: -6.536629682      3.801      6.638
REMARK  7 active torsions:
REMARK  status: ('A' for Active; 'I' for Inactive)
REMARK    1  A    between atoms: C2_2  and  C4_4
REMARK    2  A    between atoms: C4_4  and  C5_5
REMARK    3  A    between atoms: N2_9  and  C7_11
REMARK    4  A    between atoms: C7_11  and  C8_12
REMARK    5  A    between atoms: C9_15  and  N3_16
REMARK    6  A    between atoms: C10_20  and  C11_21
REMARK    7  A    between atoms: C16_33  and  C17_34
ROOT
HETATM    1  C5  UNL     1       5.772  62.481   3.140  1.00  0.00     0.183 C
HETATM    2  N1  UNL     1       5.986  62.737   1.676  1.00  0.00    -0.364 N
ATOM      3  H1  UNL     1       5.179  62.931   1.083  1.00  0.00     0.161 HD
HETATM    4  C6  UNL     1       7.270  62.716   1.100  1.00  0.00     0.107 C
HETATM    5  N2  UNL     1       7.430  62.263  -0.083  1.00  0.00    -0.376 N
ATOM      6  H2  UNL     1       8.368  62.259  -0.483  1.00  0.00     0.160 HD
HETATM    7  C9  UNL     1       8.485  63.206   1.820  1.00  0.00     0.279 C
HETATM    8  C10 UNL     1       8.549  64.697   1.824  1.00  0.00     0.183 C
HETATM    9  N4  UNL     1       8.365  65.173   3.174  1.00  0.00    -0.346 N
ATOM     10  H4  UNL     1       8.608  64.503   3.904  1.00  0.00     0.163 HD
HETATM   11  C12 UNL     1       7.912  66.398   3.633  1.00  0.00     0.240 C
HETATM   12  O2  UNL     1       8.694  67.040   4.447  1.00  0.00    -0.271 OA
HETATM   13  C13 UNL     1       6.654  67.115   3.345  1.00  0.00     0.172 C
HETATM   14  C14 UNL     1       5.996  66.774   2.048  1.00  0.00     0.042 C
HETATM   15  N5  UNL     1       5.721  67.156   4.456  1.00  0.00    -0.346 N
ATOM     16  H5  UNL     1       5.179  68.018   4.514  1.00  0.00     0.163 HD
HETATM   17  C15 UNL     1       5.433  66.240   5.449  1.00  0.00     0.248 C
HETATM   18  O3  UNL     1       5.689  66.597   6.666  1.00  0.00    -0.271 OA
HETATM   19  C16 UNL     1       4.862  64.872   5.371  1.00  0.00     0.227 C
HETATM   20  O4  UNL     1       4.498  64.452   4.118  1.00  0.00    -0.304 OA
HETATM   21  C20 UNL     1       4.572  63.308   3.425  1.00  0.00     0.282 C
HETATM   22  O5  UNL     1       3.485  62.840   2.925  1.00  0.00    -0.263 OA
ENDROOT
BRANCH   5  23
HETATM   23  C7  UNL     1       6.343  61.760  -0.873  1.00  0.00     0.157 C
BRANCH  23  24
HETATM   24  C8  UNL     1       6.353  62.319  -2.285  1.00  0.00     0.196 C
HETATM   25 CL1  UNL     1       6.478  60.905  -3.386  1.00  0.00    -0.106 Cl
HETATM   26 CL2  UNL     1       7.729  63.404  -2.544  1.00  0.00    -0.106 Cl
ENDBRANCH  23  24
ENDBRANCH   5  23
BRANCH   7  27
HETATM   27  N3  UNL     1       9.643  62.675   1.136  1.00  0.00    -0.066 N
ATOM     28  H33 UNL     1       9.839  61.705   1.381  1.00  0.00     0.275 HD
ATOM     29  H32 UNL     1       9.484  62.532   0.139  1.00  0.00     0.275 HD
ATOM     30  H31 UNL     1      10.428  63.299   1.327  1.00  0.00     0.275 HD
ENDBRANCH   7  27
BRANCH   1  31
HETATM   31  C4  UNL     1       5.460  61.017   3.191  1.00  0.00     0.039 C
BRANCH  31  32
HETATM   32  C2  UNL     1       6.360  60.105   3.903  1.00  0.00    -0.020 C
HETATM   33  C1  UNL     1       7.191  60.961   4.905  1.00  0.00     0.009 C
HETATM   34  C3  UNL     1       7.399  59.473   3.026  1.00  0.00     0.009 C
ENDBRANCH  31  32
ENDBRANCH   1  31
BRANCH   8  35
HETATM   35  C11 UNL     1       9.938  65.092   1.360  1.00  0.00     0.258 C
HETATM   36  O1  UNL     1      10.110  65.506   0.237  1.00  0.00    -0.305 OA
ENDBRANCH   8  35
BRANCH  19  37
HETATM   37  C17 UNL     1       3.560  64.871   6.204  1.00  0.00     0.016 C
HETATM   38  C18 UNL     1       2.360  65.255   5.421  1.00  0.00     0.012 C
HETATM   39  C19 UNL     1       3.395  63.507   6.868  1.00  0.00     0.012 C
ENDBRANCH  19  37
TORSDOF 7
ENDMDL