MODEL 3
REMARK VINA RESULT: -8.096230640      4.371      9.279
REMARK  9 active torsions:
REMARK  status: ('A' for Active; 'I' for Inactive)
REMARK       I    between atoms: C2_2  and  N1_4
REMARK    1  A    between atoms: N2_7  and  C5_8
REMARK    2  A    between atoms: C5_8  and  C6_9
REMARK    3  A    between atoms: C8_13  and  N4_14
REMARK    4  A    between atoms: N4_14  and  C9_16
REMARK    5  A    between atoms: C9_16  and  C10_17
REMARK    6  A    between atoms: C10_17  and  N5_18
REMARK    7  A    between atoms: N5_18  and  C11_20
REMARK    8  A    between atoms: C12_23  and  C13_24
REMARK    9  A    between atoms: C20_38  and  N10_39
ROOT
HETATM    1  C11 UNL     1       4.509  60.291   1.333  1.00  0.00     0.131 A
HETATM    2  N6  UNL     1       5.384  60.167   2.332  1.00  0.00    -0.338 N
ATOM      3  H6  UNL     1       5.819  61.016   2.693  1.00  0.00     0.167 HD
HETATM    4  C12 UNL     1       5.732  58.985   2.901  1.00  0.00     0.099 A
HETATM    5  C14 UNL     1       5.148  57.834   2.420  1.00  0.00     0.101 A
HETATM    6  C15 UNL     1       5.468  56.552   2.971  1.00  0.00     0.104 C
HETATM    7  N7  UNL     1       5.735  55.510   3.397  1.00  0.00    -0.191 NA
HETATM    8  C16 UNL     1       4.224  57.866   1.379  1.00  0.00     0.087 A
HETATM    9  N8  UNL     1       3.511  56.916   0.725  1.00  0.00    -0.343 N
ATOM     10  H8  UNL     1       3.533  55.911   0.901  1.00  0.00     0.167 HD
HETATM   11  C17 UNL     1       2.765  57.557  -0.207  1.00  0.00     0.078 A
HETATM   12  C18 UNL     1       1.845  56.875  -1.129  1.00  0.00     0.089 C
HETATM   13  N9  UNL     1       3.032  58.888  -0.110  1.00  0.00    -0.341 N
ATOM     14  H9  UNL     1       2.611  59.614  -0.690  1.00  0.00     0.167 HD
HETATM   15  C19 UNL     1       3.924  59.103   0.856  1.00  0.00     0.106 A
ENDROOT
BRANCH   4  16
HETATM   16  C13 UNL     1       6.716  58.948   4.016  1.00  0.00     0.404 C
HETATM   17  F1  UNL     1       6.826  60.202   4.586  1.00  0.00    -0.207 F
HETATM   18  F2  UNL     1       7.972  58.558   3.596  1.00  0.00    -0.207 F
ENDBRANCH   4  16
BRANCH   1  19
HETATM   19  N5  UNL     1       4.206  61.411   0.830  1.00  0.00    -0.370 N
ATOM     20  H5  UNL     1       3.232  61.577   0.573  1.00  0.00     0.161 HD
BRANCH  19  21
HETATM   21  C10 UNL     1       5.157  62.463   0.601  1.00  0.00     0.165 C
BRANCH  21  22
HETATM   22  C9  UNL     1       6.158  61.964  -0.411  1.00  0.00     0.082 C
BRANCH  22  23
HETATM   23  N4  UNL     1       7.511  62.176  -0.092  1.00  0.00    -0.351 N
ATOM     24  H4  UNL     1       8.149  61.497  -0.506  1.00  0.00     0.166 HD
BRANCH  23  25
HETATM   25  C8  UNL     1       8.077  63.054   0.613  1.00  0.00     0.149 A
HETATM   26  N3  UNL     1       8.146  64.360   0.346  1.00  0.00    -0.347 N
HETATM   27  C7  UNL     1       8.767  65.253   1.145  1.00  0.00     0.116 A
ATOM     28  H3  UNL     1       7.706  64.701  -0.509  1.00  0.00     0.167 HD
HETATM   29  C6  UNL     1       9.374  64.790   2.318  1.00  0.00     0.044 A
HETATM   30  N11 UNL     1       9.321  63.487   2.610  1.00  0.00    -0.341 N
HETATM   31  C20 UNL     1       8.694  62.623   1.795  1.00  0.00     0.144 A
ATOM     32  H11 UNL     1       9.762  63.145   3.464  1.00  0.00     0.167 HD
BRANCH  29  33
HETATM   33  C5  UNL     1      10.050  65.771   3.202  1.00  0.00     0.175 C
BRANCH  33  34
HETATM   34  N2  UNL     1      11.313  66.174   2.683  1.00  0.00    -0.404 N
HETATM   35  C4  UNL     1      12.059  66.991   3.580  1.00  0.00     0.137 C
HETATM   36  C3  UNL     1      12.693  66.110   4.659  1.00  0.00     0.145 C
HETATM   37  N1  UNL     1      13.399  65.007   4.043  1.00  0.00    -0.349 N
HETATM   38  C2  UNL     1      14.650  64.611   4.576  1.00  0.00     0.215 C
HETATM   39  C22 UNL     1      12.872  64.290   2.896  1.00  0.00     0.145 C
HETATM   40  C1  UNL     1      15.428  63.471   3.971  1.00  0.00     0.117 C
HETATM   41  O1  UNL     1      15.116  65.211   5.559  1.00  0.00    -0.274 OA
HETATM   42  C21 UNL     1      12.068  65.182   1.992  1.00  0.00     0.137 C
ENDBRANCH  33  34
ENDBRANCH  29  33
BRANCH  31  43
HETATM   43  N10 UNL     1       8.651  61.368   2.088  1.00  0.00    -0.382 N
ATOM     44 2H10 UNL     1       8.122  60.721   1.503  1.00  0.00     0.157 HD
ATOM     45 1H10 UNL     1       9.154  61.045   2.915  1.00  0.00     0.157 HD
ENDBRANCH  31  43
ENDBRANCH  23  25
ENDBRANCH  22  23
ENDBRANCH  21  22
ENDBRANCH  19  21
ENDBRANCH   1  19
TORSDOF 9
ENDMDL