MODEL 5
REMARK VINA RESULT: -7.351967422      3.360      4.700
REMARK  9 active torsions:
REMARK  status: ('A' for Active; 'I' for Inactive)
REMARK    1  A    between atoms: C2_2  and  N1_3
REMARK    2  A    between atoms: N1_3  and  C3_5
REMARK    3  A    between atoms: N5_18  and  C8_19
REMARK    4  A    between atoms: C9_21  and  C10_22
REMARK    5  A    between atoms: C10_22  and  C11_23
REMARK    6  A    between atoms: C11_23  and  C12_24
REMARK    7  A    between atoms: C12_24  and  C14_26
REMARK    8  A    between atoms: C15_28  and  O3_29
REMARK    9  A    between atoms: C16_31  and  O4_32
ROOT
HETATM    1  C3  UNL     1      11.260  66.344   3.243  1.00  0.00     0.687 A
HETATM    2  N2  UNL     1      11.221  67.576   3.796  1.00  0.00    -0.154 N
ATOM      3  H2  UNL     1      12.087  68.084   3.975  1.00  0.00     0.187 HD
HETATM    4  C4  UNL     1      10.039  68.130   4.109  1.00  0.00     0.290 A
HETATM    5  O1  UNL     1       9.997  69.289   4.630  1.00  0.00    -0.265 OA
HETATM    6  C5  UNL     1       8.887  67.440   3.865  1.00  0.00     0.149 A
HETATM    7  N3  UNL     1       7.580  67.730   4.067  1.00  0.00    -0.329 N
ATOM      8  H3  UNL     1       7.215  68.591   4.473  1.00  0.00     0.168 HD
HETATM    9  C6  UNL     1       6.846  66.687   3.642  1.00  0.00     0.155 A
HETATM   10 BR1  UNL     1       4.928  66.606   3.712  1.00  0.00    -0.010 Br
HETATM   11  N4  UNL     1       7.695  65.768   3.183  1.00  0.00    -0.320 N
ATOM     12  H4  UNL     1       7.417  64.866   2.795  1.00  0.00     0.169 HD
HETATM   13  C7  UNL     1       8.978  66.191   3.302  1.00  0.00     0.161 A
HETATM   14  N5  UNL     1      10.172  65.601   2.971  1.00  0.00    -0.136 N
ENDROOT
BRANCH  14  15
HETATM   15  C8  UNL     1      10.112  64.324   2.404  1.00  0.00     0.279 C
HETATM   16  O2  UNL     1       9.003  63.529   2.731  1.00  0.00    -0.355 OA
HETATM   17  C9  UNL     1       9.405  62.304   2.200  1.00  0.00     0.155 C
HETATM   18  C15 UNL     1      10.206  62.583   0.942  1.00  0.00     0.180 C
HETATM   19  C16 UNL     1      10.158  64.132   0.939  1.00  0.00     0.199 C
BRANCH  17  20
HETATM   20  C10 UNL     1       8.236  61.388   1.935  1.00  0.00     0.035 C
BRANCH  20  21
HETATM   21  C11 UNL     1       8.295  60.136   2.761  1.00  0.00     0.007 C
BRANCH  21  22
HETATM   22  C12 UNL     1       7.119  59.995   3.686  1.00  0.00    -0.009 C
HETATM   23  C13 UNL     1       6.213  61.212   3.572  1.00  0.00     0.011 C
BRANCH  22  24
HETATM   24  C14 UNL     1       6.299  58.764   3.367  1.00  0.00     0.089 C
HETATM   25 BR2  UNL     1       7.241  57.150   3.889  1.00  0.00    -0.096 Br
ENDBRANCH  22  24
ENDBRANCH  21  22
ENDBRANCH  20  21
ENDBRANCH  17  20
BRANCH  18  26
HETATM   26  O3  UNL     1      11.544  62.220   1.109  1.00  0.00    -0.390 OA
ATOM     27  H3  UNL     1      12.104  62.699   0.509  1.00  0.00     0.210 HD
ENDBRANCH  18  26
BRANCH  19  28
HETATM   28  O4  UNL     1      11.252  64.654   0.296  1.00  0.00    -0.388 OA
ATOM     29  H4  UNL     1      11.783  64.037  -0.192  1.00  0.00     0.210 HD
ENDBRANCH  19  28
ENDBRANCH  14  15
BRANCH   1  30
HETATM   30  N1  UNL     1      12.398  65.814   2.941  1.00  0.00    -0.226 N
ATOM     31  H1  UNL     1      12.574  65.607   1.958  1.00  0.00     0.177 HD
BRANCH  30  32
HETATM   32  C2  UNL     1      13.428  65.496   3.874  1.00  0.00     0.133 C
HETATM   33  C1  UNL     1      14.122  64.188   3.572  1.00  0.00     0.027 C
ENDBRANCH  30  32
ENDBRANCH   1  30
TORSDOF 9
ENDMDL