MODEL 2
REMARK VINA RESULT: -8.283702410      1.305      1.797
REMARK  8 active torsions:
REMARK  status: ('A' for Active; 'I' for Inactive)
REMARK    1  A    between atoms: C2_2  and  C4_4
REMARK       I    between atoms: N1_7  and  C7_8
REMARK    2  A    between atoms: C7_8  and  C8_10
REMARK    3  A    between atoms: C8_10  and  C9_13
REMARK       I    between atoms: C9_13  and  N2_15
REMARK    4  A    between atoms: C11_17  and  O3_18
REMARK    5  A    between atoms: O3_18  and  C12_19
REMARK    6  A    between atoms: C14_25  and  C15_26
REMARK    7  A    between atoms: C16_29  and  C17_30
REMARK       I    between atoms: C17_30  and  N5_32
REMARK    8  A    between atoms: N5_32  and  C18_34
ROOT
HETATM    1  C8  UNL     1       8.151  63.012   2.288  1.00  0.00     0.401 C
HETATM    2  F1  UNL     1       8.069  62.853   3.684  1.00  0.00    -0.184 F
HETATM    3  F2  UNL     1       7.653  64.249   2.038  1.00  0.00    -0.184 F
ENDROOT
BRANCH   1   4
HETATM    4  C7  UNL     1       7.310  61.977   1.667  1.00  0.00     0.303 C
HETATM    5  N1  UNL     1       7.027  60.695   2.243  1.00  0.00    -0.333 N
HETATM    6  C6  UNL     1       7.583  60.238   3.474  1.00  0.00     0.127 C
HETATM    7  C16 UNL     1       6.160  59.684   1.707  1.00  0.00     0.183 C
HETATM    8  C5  UNL     1       7.318  58.715   3.499  1.00  0.00     0.027 C
HETATM    9  C4  UNL     1       6.020  58.665   2.774  1.00  0.00     0.023 C
HETATM   10  O1  UNL     1       6.789  62.222   0.546  1.00  0.00    -0.266 OA
BRANCH   9  11
HETATM   11  C2  UNL     1       5.592  57.300   2.358  1.00  0.00    -0.016 C
HETATM   12  C1  UNL     1       4.071  57.319   2.239  1.00  0.00     0.010 C
HETATM   13  C3  UNL     1       6.073  56.175   3.203  1.00  0.00     0.010 C
ENDBRANCH   9  11
BRANCH   7  14
HETATM   14  C17 UNL     1       4.834  60.250   1.305  1.00  0.00     0.241 C
HETATM   15  O6  UNL     1       4.329  60.106   0.182  1.00  0.00    -0.271 OA
HETATM   16  N5  UNL     1       4.111  60.994   2.274  1.00  0.00    -0.351 N
ATOM     17  H5  UNL     1       4.500  61.122   3.209  1.00  0.00     0.163 HD
BRANCH  16  18
HETATM   18  C18 UNL     1       2.813  61.578   1.940  1.00  0.00     0.022 C
HETATM   19  C19 UNL     1       1.809  60.509   1.670  1.00  0.00     0.037 C
HETATM   20  C20 UNL     1       2.300  62.360   3.160  1.00  0.00     0.037 C
HETATM   21  C21 UNL     1       2.902  62.500   0.751  1.00  0.00     0.037 C
ENDBRANCH  16  18
ENDBRANCH   7  14
ENDBRANCH   1   4
BRANCH   1  22
HETATM   22  C9  UNL     1       9.593  62.844   1.922  1.00  0.00     0.303 C
HETATM   23  O2  UNL     1       9.908  61.825   1.262  1.00  0.00    -0.266 OA
HETATM   24  N2  UNL     1      10.580  63.761   2.283  1.00  0.00    -0.329 N
HETATM   25  C10 UNL     1      11.991  63.666   1.987  1.00  0.00     0.159 C
HETATM   26  C14 UNL     1      10.365  64.990   3.034  1.00  0.00     0.191 C
HETATM   27  C11 UNL     1      12.724  64.673   2.799  1.00  0.00     0.152 C
HETATM   28  C13 UNL     1      11.697  65.217   3.747  1.00  0.00     0.070 C
BRANCH  27  29
HETATM   29  O3  UNL     1      13.796  64.120   3.536  1.00  0.00    -0.318 OA
BRANCH  29  30
HETATM   30  C12 UNL     1      15.013  64.737   3.711  1.00  0.00     0.225 C
HETATM   31  N3  UNL     1      15.629  65.134   2.647  1.00  0.00    -0.368 N
ATOM     32  H32 UNL     1      15.253  65.009   1.707  1.00  0.00     0.159 HD
ATOM     33  H31 UNL     1      16.532  65.591   2.777  1.00  0.00     0.159 HD
HETATM   34  N4  UNL     1      15.531  64.908   5.009  1.00  0.00    -0.057 NA
ENDBRANCH  29  30
ENDBRANCH  27  29
BRANCH  26  35
HETATM   35  C15 UNL     1      10.205  66.151   2.125  1.00  0.00     0.197 C
HETATM   36  O4  UNL     1       9.787  66.064   0.949  1.00  0.00    -0.646 OA
HETATM   37  O5  UNL     1      10.530  67.423   2.572  1.00  0.00    -0.646 OA
ENDBRANCH  26  35
ENDBRANCH   1  22
TORSDOF 8
ENDMDL