MODEL 5
REMARK VINA RESULT: -8.595038010      2.877      5.181
REMARK  10 active torsions:
REMARK  status: ('A' for Active; 'I' for Inactive)
REMARK    1  A    between atoms: C2_3  and  C3_5
REMARK    2  A    between atoms: C3_5  and  C4_8
REMARK       I    between atoms: C4_8  and  N2_10
REMARK    3  A    between atoms: N2_10  and  C5_12
REMARK    4  A    between atoms: C5_12  and  C6_13
REMARK    5  A    between atoms: C5_12  and  C22_36
REMARK    6  A    between atoms: C6_13  and  O3_14
REMARK    7  A    between atoms: C6_13  and  N3_16
REMARK    8  A    between atoms: C15_25  and  C16_26
REMARK       I    between atoms: C16_26  and  N4_28
REMARK    9  A    between atoms: N4_28  and  C17_30
REMARK   10  A    between atoms: C22_36  and  O5_38
ROOT
HETATM    1  C1  UNL     1      15.427  64.013   5.783  1.00  0.00     0.233 C
HETATM    2  N1  UNL     1      14.648  64.268   4.779  1.00  0.00    -0.390 NA
HETATM    3  C2  UNL     1      13.781  64.551   3.663  1.00  0.00     0.373 C
HETATM    4  O1  UNL     1      13.965  64.084   2.525  1.00  0.00    -0.249 OA
ENDROOT
BRANCH   3   5
HETATM    5  C3  UNL     1      12.604  65.432   3.808  1.00  0.00     0.414 C
HETATM    6  F1  UNL     1      12.031  65.314   5.066  1.00  0.00    -0.183 F
HETATM    7  F2  UNL     1      12.940  66.725   3.597  1.00  0.00    -0.183 F
BRANCH   5   8
HETATM    8  C4  UNL     1      11.527  65.083   2.770  1.00  0.00     0.306 C
HETATM    9  O2  UNL     1      11.259  66.014   2.008  1.00  0.00    -0.266 OA
HETATM   10  N2  UNL     1      10.984  63.832   2.767  1.00  0.00    -0.319 N
ATOM     11  H2  UNL     1      11.327  63.223   3.510  1.00  0.00     0.169 HD
BRANCH  10  12
HETATM   12  C5  UNL     1      10.017  63.223   1.903  1.00  0.00     0.091 C
BRANCH  12  13
HETATM   13  C6  UNL     1       8.665  63.566   2.298  1.00  0.00     0.164 C
BRANCH  13  14
HETATM   14  O3  UNL     1       8.426  64.841   1.907  1.00  0.00    -0.345 OA
ATOM     15  H3  UNL     1       7.495  64.926   1.734  1.00  0.00     0.219 HD
ENDBRANCH  13  14
BRANCH  13  16
HETATM   16  N3  UNL     1       7.563  63.035   2.922  1.00  0.00    -0.346 N
HETATM   17  C7  UNL     1       6.499  62.474   2.079  1.00  0.00     0.131 C
HETATM   18  C8  UNL     1       5.930  61.188   2.507  1.00  0.00     0.008 C
HETATM   19  C9  UNL     1       6.466  60.100   1.555  1.00  0.00     0.006 C
HETATM   20  C13 UNL     1       6.129  60.736   3.880  1.00  0.00    -0.006 C
HETATM   21  C10 UNL     1       5.537  58.926   1.743  1.00  0.00     0.000 C
HETATM   22  C11 UNL     1       5.779  58.351   3.122  1.00  0.00     0.000 C
HETATM   23  C12 UNL     1       6.629  59.278   3.922  1.00  0.00     0.005 C
HETATM   24  C14 UNL     1       7.047  61.495   4.743  1.00  0.00     0.040 C
HETATM   25  C15 UNL     1       7.319  62.940   4.309  1.00  0.00     0.178 C
BRANCH  25  26
HETATM   26  C16 UNL     1       6.217  63.820   4.786  1.00  0.00     0.242 C
HETATM   27  O4  UNL     1       6.098  64.975   4.343  1.00  0.00    -0.271 OA
HETATM   28  N4  UNL     1       5.302  63.342   5.745  1.00  0.00    -0.337 N
ATOM     29  H4  UNL     1       5.395  62.398   6.118  1.00  0.00     0.164 HD
BRANCH  28  30
HETATM   30  C17 UNL     1       4.231  64.201   6.197  1.00  0.00     0.122 C
HETATM   31  C18 UNL     1       4.682  65.425   6.851  1.00  0.00     0.091 C
HETATM   32  N5  UNL     1       5.018  66.398   7.351  1.00  0.00    -0.195 NA
HETATM   33  C19 UNL     1       3.159  64.357   5.155  1.00  0.00     0.047 C
HETATM   34  C20 UNL     1       2.486  63.127   5.774  1.00  0.00     0.007 C
HETATM   35  C21 UNL     1       3.205  63.442   7.051  1.00  0.00     0.047 C
ENDBRANCH  28  30
ENDBRANCH  25  26
ENDBRANCH  13  16
ENDBRANCH  12  13
BRANCH  12  36
HETATM   36  C22 UNL     1      10.314  62.960   0.500  1.00  0.00     0.168 C
HETATM   37  C23 UNL     1      11.757  62.553   0.245  1.00  0.00     0.046 C
BRANCH  36  38
HETATM   38  O5  UNL     1       9.923  63.889  -0.433  1.00  0.00    -0.390 OA
ATOM     39  H5  UNL     1      10.059  63.689  -1.352  1.00  0.00     0.210 HD
ENDBRANCH  36  38
ENDBRANCH  12  36
ENDBRANCH  10  12
ENDBRANCH   5   8
ENDBRANCH   3   5
TORSDOF 9
ENDMDL