MODEL 4
REMARK VINA RESULT: -7.243878099      3.744      6.852
REMARK  8 active torsions:
REMARK  status: ('A' for Active; 'I' for Inactive)
REMARK    1  A    between atoms: C3_3  and  C4_4
REMARK    2  A    between atoms: C4_4  and  N1_5
REMARK    3  A    between atoms: C5_9  and  N2_10
REMARK    4  A    between atoms: C11_20  and  N5_21
REMARK    5  A    between atoms: N5_21  and  C12_23
REMARK    6  A    between atoms: C12_23  and  C13_24
REMARK       I    between atoms: C13_24  and  N6_26
REMARK    7  A    between atoms: N6_26  and  C14_28
REMARK    8  A    between atoms: C14_28  and  C15_29
ROOT
HETATM    1  C1  UNL     1       8.789  65.092   1.242  1.00  0.00     0.053 C
HETATM    2  C2  UNL     1       8.008  64.725   2.421  1.00  0.00    -0.005 A
HETATM    3  C3  UNL     1       7.469  63.418   2.498  1.00  0.00     0.022 A
HETATM    4  C5  UNL     1       6.756  63.112   3.604  1.00  0.00     0.126 A
HETATM    5  N3  UNL     1       6.592  64.083   4.586  1.00  0.00    -0.283 N
ATOM      6  H3  UNL     1       6.053  63.855   5.421  1.00  0.00     0.188 HD
HETATM    7  N4  UNL     1       7.111  65.286   4.470  1.00  0.00    -0.284 N
ATOM      8  H4  UNL     1       6.961  65.961   5.220  1.00  0.00     0.188 HD
HETATM    9  C11 UNL     1       7.832  65.656   3.400  1.00  0.00     0.122 A
ENDROOT
BRANCH   9  10
HETATM   10  N5  UNL     1       8.320  66.807   3.310  1.00  0.00    -0.366 N
ATOM     11  H5  UNL     1       8.159  67.282   2.423  1.00  0.00     0.161 HD
BRANCH  10  12
HETATM   12  C12 UNL     1       9.062  67.540   4.267  1.00  0.00     0.224 C
BRANCH  12  13
HETATM   13  C13 UNL     1      10.513  67.301   4.065  1.00  0.00     0.235 C
HETATM   14  O1  UNL     1      11.180  68.041   3.298  1.00  0.00    -0.272 OA
HETATM   15  N6  UNL     1      11.203  66.246   4.716  1.00  0.00    -0.356 N
ATOM     16  H6  UNL     1      10.683  65.633   5.344  1.00  0.00     0.162 HD
BRANCH  15  17
HETATM   17  C14 UNL     1      12.603  66.013   4.524  1.00  0.00     0.172 C
BRANCH  17  18
HETATM   18  C15 UNL     1      12.886  64.939   3.515  1.00  0.00     0.167 C
HETATM   19 CL1  UNL     1      11.490  63.849   3.343  1.00  0.00    -0.092 Cl
HETATM   20 BR1  UNL     1      14.426  63.936   4.168  1.00  0.00    -0.053 Br
HETATM   21 BR2  UNL     1      13.330  65.631   1.787  1.00  0.00    -0.053 Br
ENDBRANCH  17  18
ENDBRANCH  15  17
ENDBRANCH  12  13
ENDBRANCH  10  12
ENDBRANCH   9  10
BRANCH   3  22
HETATM   22  C4  UNL     1       7.709  62.514   1.357  1.00  0.00     0.272 C
BRANCH  22  23
HETATM   23  N1  UNL     1       8.722  61.539   1.555  1.00  0.00    -0.075 N
ATOM     24  H13 UNL     1       9.574  61.984   1.896  1.00  0.00     0.274 HD
ATOM     25  H12 UNL     1       8.491  60.954   2.357  1.00  0.00     0.274 HD
ATOM     26  H11 UNL     1       8.932  60.956   0.745  1.00  0.00     0.274 HD
ENDBRANCH  22  23
ENDBRANCH   3  22
BRANCH   4  27
HETATM   27  N2  UNL     1       6.169  61.891   3.961  1.00  0.00    -0.366 N
HETATM   28  C6  UNL     1       4.825  61.552   3.524  1.00  0.00     0.124 C
HETATM   29  C7  UNL     1       5.054  60.345   2.575  1.00  0.00     0.020 C
HETATM   30  C8  UNL     1       5.539  59.233   3.504  1.00  0.00     0.003 C
HETATM   31  C9  UNL     1       6.868  59.557   4.097  1.00  0.00     0.020 C
HETATM   32  C10 UNL     1       6.938  60.934   4.736  1.00  0.00     0.124 C
ENDBRANCH   4  27
TORSDOF 8
ENDMDL