MODEL 2
REMARK VINA RESULT: -8.663694017      1.442      1.862
REMARK  9 active torsions:
REMARK  status: ('A' for Active; 'I' for Inactive)
REMARK    1  A    between atoms: C2_2  and  C3_3
REMARK    2  A    between atoms: C3_3  and  C4_4
REMARK    3  A    between atoms: C14_14  and  C15_15
REMARK    4  A    between atoms: C15_15  and  C16_16
REMARK       I    between atoms: C16_16  and  N1_18
REMARK    5  A    between atoms: N1_18  and  C18_20
REMARK    6  A    between atoms: C18_20  and  C19_21
REMARK    7  A    between atoms: C21_27  and  C22_28
REMARK    8  A    between atoms: C23_31  and  O5_32
REMARK    9  A    between atoms: C25_35  and  O6_36
ROOT
HETATM    1  C4  UNL     1       7.064  61.048   3.249  1.00  0.00    -0.010 C
HETATM    2  C5  UNL     1       5.782  61.867   2.936  1.00  0.00     0.012 C
HETATM    3  C6  UNL     1       6.218  62.808   1.936  1.00  0.00     0.022 C
HETATM    4  C7  UNL     1       5.317  63.667   1.152  1.00  0.00     0.009 C
HETATM    5  C8  UNL     1       6.378  64.742   0.776  1.00  0.00     0.015 C
HETATM    6  C9  UNL     1       7.555  64.623   1.602  1.00  0.00     0.026 A
HETATM    7  C10 UNL     1       8.096  64.156   2.873  1.00  0.00     0.044 A
HETATM    8  C11 UNL     1       8.831  62.823   2.802  1.00  0.00    -0.021 A
HETATM    9  C12 UNL     1       8.159  61.904   3.758  1.00  0.00     0.015 C
HETATM   10  C13 UNL     1      10.297  63.017   2.739  1.00  0.00     0.014 A
HETATM   11  C14 UNL     1      10.879  64.377   2.468  1.00  0.00     0.071 C
HETATM   12  C20 UNL     1       9.900  65.321   1.875  1.00  0.00     0.154 C
HETATM   13  O2  UNL     1       9.928  66.504   2.118  1.00  0.00    -0.296 OA
HETATM   14  C21 UNL     1       8.842  64.738   0.933  1.00  0.00     0.146 C
HETATM   15  C23 UNL     1       9.491  63.477   0.461  1.00  0.00     0.151 C
HETATM   16  C24 UNL     1       9.522  62.502   1.594  1.00  0.00     0.031 A
HETATM   17  C25 UNL     1       6.820  63.982   2.672  1.00  0.00     0.076 A
ENDROOT
BRANCH  11  18
HETATM   18  C15 UNL     1      11.560  64.972   3.671  1.00  0.00     0.115 C
BRANCH  18  19
HETATM   19  C16 UNL     1      12.972  64.583   3.791  1.00  0.00     0.220 C
HETATM   20  O1  UNL     1      13.481  63.866   2.894  1.00  0.00    -0.273 OA
HETATM   21  N1  UNL     1      13.789  64.989   4.886  1.00  0.00    -0.348 N
HETATM   22  C17 UNL     1      13.286  65.813   5.963  1.00  0.00     0.152 C
BRANCH  21  23
HETATM   23  C18 UNL     1      15.167  64.559   4.919  1.00  0.00     0.242 C
BRANCH  23  24
HETATM   24  C19 UNL     1      15.381  63.538   6.024  1.00  0.00     0.403 C
HETATM   25  F1  UNL     1      14.314  63.578   6.899  1.00  0.00    -0.169 F
HETATM   26  F2  UNL     1      16.515  63.801   6.765  1.00  0.00    -0.169 F
HETATM   27  F3  UNL     1      15.516  62.269   5.486  1.00  0.00    -0.169 F
ENDBRANCH  23  24
ENDBRANCH  21  23
ENDBRANCH  18  19
ENDBRANCH  11  18
BRANCH  14  28
HETATM   28  C22 UNL     1       8.804  65.735  -0.151  1.00  0.00     0.193 C
HETATM   29  O3  UNL     1       9.465  65.578  -1.189  1.00  0.00    -0.647 OA
HETATM   30  O4  UNL     1       8.019  66.868  -0.023  1.00  0.00    -0.647 OA
ENDBRANCH  14  28
BRANCH  15  31
HETATM   31  O5  UNL     1       8.938  62.965  -0.708  1.00  0.00    -0.393 OA
ATOM     32  H5  UNL     1       8.734  62.038  -0.661  1.00  0.00     0.210 HD
ENDBRANCH  15  31
BRANCH  17  33
HETATM   33  O6  UNL     1       5.825  64.763   3.312  1.00  0.00    -0.388 OA
ATOM     34  H6  UNL     1       5.532  65.477   2.759  1.00  0.00     0.210 HD
ENDBRANCH  17  33
BRANCH   1  35
HETATM   35  C3  UNL     1       6.730  59.853   4.061  1.00  0.00     0.031 C
BRANCH  35  36
HETATM   36  C2  UNL     1       7.408  58.648   3.538  1.00  0.00    -0.037 C
HETATM   37  C1  UNL     1       7.104  57.422   4.009  1.00  0.00     0.007 C
ENDBRANCH  35  36
ENDBRANCH   1  35
TORSDOF 9
ENDMDL