MODEL 2
REMARK VINA RESULT: -7.055762177      1.227      1.401
REMARK  8 active torsions:
REMARK  status: ('A' for Active; 'I' for Inactive)
REMARK    1  A    between atoms: C2_2  and  N1_4
REMARK       I    between atoms: N1_4  and  C4_6
REMARK    2  A    between atoms: C4_6  and  C5_8
REMARK    3  A    between atoms: C5_8  and  N2_9
REMARK       I    between atoms: N2_9  and  C6_11
REMARK    4  A    between atoms: C6_11  and  C7_13
REMARK       I    between atoms: N3_16  and  C10_17
REMARK       I    between atoms: C10_17  and  N4_19
REMARK    5  A    between atoms: N5_22  and  C13_23
REMARK    6  A    between atoms: C13_23  and  C14_24
REMARK    7  A    between atoms: C14_24  and  C15_25
REMARK    8  A    between atoms: C21_34  and  O4_36
ROOT
HETATM    1  N2  UNL     1       7.179  66.756   3.784  1.00  0.00    -0.339 N
ATOM      2  H2  UNL     1       7.429  65.781   3.948  1.00  0.00     0.164 HD
HETATM    3  C6  UNL     1       5.830  67.125   3.953  1.00  0.00     0.241 C
HETATM    4  O2  UNL     1       5.494  68.301   3.758  1.00  0.00    -0.271 OA
ENDROOT
BRANCH   3   5
HETATM    5  C7  UNL     1       4.852  66.112   4.352  1.00  0.00     0.182 C
HETATM    6  C8  UNL     1       5.033  65.638   5.802  1.00  0.00     0.055 C
HETATM    7  C9  UNL     1       4.443  64.367   5.225  1.00  0.00     0.131 C
HETATM    8  N3  UNL     1       4.987  64.763   3.919  1.00  0.00    -0.320 N
HETATM    9  C10 UNL     1       5.412  63.991   2.812  1.00  0.00     0.321 C
HETATM   10  O3  UNL     1       5.870  64.642   1.795  1.00  0.00    -0.247 OA
HETATM   11  N4  UNL     1       5.403  62.597   2.666  1.00  0.00    -0.331 N
HETATM   12  C11 UNL     1       4.893  61.689   3.667  1.00  0.00     0.158 C
HETATM   13  C17 UNL     1       5.932  61.940   1.465  1.00  0.00     0.158 C
HETATM   14  C12 UNL     1       4.647  60.329   3.013  1.00  0.00     0.292 C
HETATM   15  N5  UNL     1       5.936  59.775   2.636  1.00  0.00     0.091 N
HETATM   16  C16 UNL     1       6.680  60.663   1.790  1.00  0.00     0.292 C
BRANCH  15  17
HETATM   17  C13 UNL     1       5.830  58.430   2.181  1.00  0.00     0.281 C
BRANCH  17  18
HETATM   18  C14 UNL     1       5.708  57.387   3.246  1.00  0.00     0.147 C
BRANCH  18  19
HETATM   19  C15 UNL     1       6.999  57.461   4.074  1.00  0.00     0.389 C
HETATM   20  F1  UNL     1       8.055  57.910   3.317  1.00  0.00    -0.171 F
HETATM   21  F2  UNL     1       7.344  56.214   4.571  1.00  0.00    -0.171 F
HETATM   22  F3  UNL     1       6.813  58.355   5.112  1.00  0.00    -0.171 F
ENDBRANCH  18  19
ENDBRANCH  17  18
ENDBRANCH  15  17
ENDBRANCH   3   5
BRANCH   1  23
HETATM   23  C5  UNL     1       8.253  67.682   3.387  1.00  0.00     0.144 C
HETATM   24  C18 UNL     1       8.005  68.958   4.123  1.00  0.00     0.044 C
HETATM   25  C19 UNL     1       9.308  69.519   4.531  1.00  0.00     0.006 C
HETATM   26  C20 UNL     1      10.283  68.389   4.467  1.00  0.00     0.041 C
HETATM   27  C21 UNL     1       9.575  67.215   3.841  1.00  0.00     0.088 C
HETATM   28  C22 UNL     1      10.497  66.635   2.823  1.00  0.00     0.049 C
BRANCH  23  29
HETATM   29  C4  UNL     1       8.151  67.969   1.928  1.00  0.00     0.249 C
HETATM   30  N1  UNL     1       7.619  67.010   1.024  1.00  0.00    -0.355 N
ATOM     31  H1  UNL     1       7.302  66.113   1.392  1.00  0.00     0.162 HD
HETATM   32  O1  UNL     1       8.523  69.057   1.414  1.00  0.00    -0.271 OA
BRANCH  30  33
HETATM   33  C2  UNL     1       7.509  67.256  -0.406  1.00  0.00     0.076 C
HETATM   34  C1  UNL     1       7.992  66.060  -1.161  1.00  0.00     0.032 C
HETATM   35  C3  UNL     1       6.078  67.541  -0.830  1.00  0.00     0.032 C
ENDBRANCH  30  33
ENDBRANCH  23  29
BRANCH  27  36
HETATM   36  O4  UNL     1       9.356  66.292   4.881  1.00  0.00    -0.387 OA
ATOM     37  H4  UNL     1       8.682  66.656   5.443  1.00  0.00     0.210 HD
ENDBRANCH  27  36
ENDBRANCH   1  23
TORSDOF 8
ENDMDL