MODEL 1
REMARK VINA RESULT: -8.182083929      0.000      0.000
REMARK  8 active torsions:
REMARK  status: ('A' for Active; 'I' for Inactive)
REMARK    1  A    between atoms: C4_4  and  N1_5
REMARK    2  A    between atoms: N1_5  and  C5_7
REMARK    3  A    between atoms: C8_10  and  S1_11
REMARK    4  A    between atoms: S1_11  and  N2_12
REMARK    5  A    between atoms: C12_20  and  C13_21
REMARK    6  A    between atoms: C16_27  and  N3_28
REMARK    7  A    between atoms: N3_28  and  S2_30
REMARK    8  A    between atoms: S2_30  and  C17_33
ROOT
HETATM    1  C5  UNL     1       6.595  60.580   2.680  1.00  0.00     0.086 C
HETATM    2  C6  UNL     1       7.425  59.411   3.115  1.00  0.00     0.027 C
HETATM    3  C7  UNL     1       6.604  58.671   4.191  1.00  0.00     0.024 C
HETATM    4  C8  UNL     1       5.489  57.977   3.491  1.00  0.00     0.130 C
HETATM    5  C9  UNL     1       5.245  58.549   2.099  1.00  0.00     0.034 C
HETATM    6  C10 UNL     1       5.274  60.032   2.094  1.00  0.00    -0.006 A
HETATM    7  C11 UNL     1       4.048  60.846   2.450  1.00  0.00     0.026 A
HETATM    8  C12 UNL     1       4.647  60.853   1.052  1.00  0.00     0.104 A
ENDROOT
BRANCH   1   9
HETATM    9  N1  UNL     1       7.162  61.384   1.714  1.00  0.00    -0.412 N
ATOM     10  H1  UNL     1       6.844  61.221   0.759  1.00  0.00     0.154 HD
BRANCH   9  11
HETATM   11  C4  UNL     1       8.101  62.379   1.869  1.00  0.00     0.077 C
HETATM   12  C3  UNL     1       9.169  62.595   0.846  1.00  0.00     0.031 C
HETATM   13  C2  UNL     1      10.586  62.430   1.409  1.00  0.00     0.007 C
HETATM   14  C1  UNL     1      11.536  62.477   0.258  1.00  0.00     0.012 C
HETATM   15  C16 UNL     1      10.797  63.509   2.426  1.00  0.00     0.096 C
HETATM   16  C15 UNL     1       9.548  63.727   3.278  1.00  0.00     0.028 C
HETATM   17  C14 UNL     1       8.768  62.430   3.241  1.00  0.00     0.027 C
BRANCH  15  18
HETATM   18  N3  UNL     1      11.133  64.778   1.878  1.00  0.00    -0.314 N
ATOM     19  H3  UNL     1      10.585  65.244   1.154  1.00  0.00     0.172 HD
BRANCH  18  20
HETATM   20  S2  UNL     1      12.542  65.434   2.558  1.00  0.00     0.231 S
HETATM   21  O3  UNL     1      12.208  66.832   3.047  1.00  0.00    -0.206 OA
HETATM   22  O4  UNL     1      13.579  65.578   1.459  1.00  0.00    -0.206 OA
BRANCH  20  23
HETATM   23  C17 UNL     1      13.233  64.462   3.852  1.00  0.00     0.129 A
HETATM   24  C18 UNL     1      13.892  65.181   5.002  1.00  0.00     0.023 A
HETATM   25  C19 UNL     1      14.705  64.433   4.003  1.00  0.00     0.023 A
ENDBRANCH  20  23
ENDBRANCH  18  20
ENDBRANCH  15  18
ENDBRANCH   9  11
ENDBRANCH   1   9
BRANCH   8  26
HETATM   26  C13 UNL     1       3.750  60.288  -0.011  1.00  0.00     0.392 C
HETATM   27  F1  UNL     1       3.269  61.346  -0.759  1.00  0.00    -0.171 F
HETATM   28  F2  UNL     1       2.646  59.638   0.501  1.00  0.00    -0.171 F
HETATM   29  F3  UNL     1       4.462  59.484  -0.901  1.00  0.00    -0.171 F
ENDBRANCH   8  26
BRANCH   4  30
HETATM   30  S1  UNL     1       5.919  56.258   3.319  1.00  0.00     0.228 S
HETATM   31  O1  UNL     1       6.191  55.907   1.884  1.00  0.00    -0.206 OA
HETATM   32  O2  UNL     1       4.767  55.413   3.778  1.00  0.00    -0.206 OA
BRANCH  30  33
HETATM   33  N2  UNL     1       7.342  55.890   4.238  1.00  0.00    -0.328 N
ATOM     34  H22 UNL     1       7.345  55.743   5.247  1.00  0.00     0.168 HD
ATOM     35  H21 UNL     1       8.160  55.842   3.630  1.00  0.00     0.168 HD
ENDBRANCH  30  33
ENDBRANCH   4  30
TORSDOF 8
ENDMDL