MODEL 1
REMARK VINA RESULT: -8.889394144      0.000      0.000
REMARK  9 active torsions:
REMARK  status: ('A' for Active; 'I' for Inactive)
REMARK       I    between atoms: C2_2  and  N1_4
REMARK    1  A    between atoms: N1_4  and  C3_6
REMARK    2  A    between atoms: C6_9  and  N2_10
REMARK    3  A    between atoms: N2_10  and  C7_11
REMARK    4  A    between atoms: N2_10  and  C18_30
REMARK    5  A    between atoms: C7_11  and  O2_12
REMARK    6  A    between atoms: C7_11  and  C8_14
REMARK    7  A    between atoms: C13_20  and  C14_21
REMARK       I    between atoms: C14_21  and  N3_23
REMARK    8  A    between atoms: N3_23  and  C15_24
REMARK    9  A    between atoms: C15_24  and  C17_26
ROOT
HETATM    1  N2  UNL     1       7.160  62.699   1.956  1.00  0.00    -0.355 N
ENDROOT
BRANCH   1   2
HETATM    2  C6  UNL     1       6.878  61.278   2.234  1.00  0.00     0.086 C
HETATM    3  C5  UNL     1       8.098  60.439   2.408  1.00  0.00     0.027 C
HETATM    4  C4  UNL     1       7.777  59.201   3.227  1.00  0.00     0.027 C
HETATM    5  C3  UNL     1       6.413  58.662   2.914  1.00  0.00     0.084 C
HETATM    6  C24 UNL     1       5.317  59.673   3.172  1.00  0.00     0.027 C
HETATM    7  C23 UNL     1       5.933  61.075   3.374  1.00  0.00     0.027 C
BRANCH   5   8
HETATM    8  N1  UNL     1       6.164  57.517   3.782  1.00  0.00    -0.357 N
HETATM    9  C2  UNL     1       5.706  56.279   3.204  1.00  0.00     0.213 C
HETATM   10  C1  UNL     1       5.464  55.127   4.061  1.00  0.00     0.117 C
HETATM   11  O1  UNL     1       5.511  56.166   1.967  1.00  0.00    -0.274 OA
ATOM     12  H1  UNL     1       6.313  57.591   4.787  1.00  0.00     0.162 HD
ENDBRANCH   5   8
ENDBRANCH   1   2
BRANCH   1  13
HETATM   13  C7  UNL     1       8.406  63.197   2.306  1.00  0.00     0.121 C
BRANCH  13  14
HETATM   14  O2  UNL     1       8.575  63.313   3.618  1.00  0.00    -0.349 OA
ATOM     15  H2  UNL     1       9.133  64.042   3.862  1.00  0.00     0.219 HD
ENDBRANCH  13  14
BRANCH  13  16
HETATM   16  C8  UNL     1       9.576  63.624   1.592  1.00  0.00     0.106 C
HETATM   17  C9  UNL     1       9.916  63.057   0.272  1.00  0.00     0.134 C
HETATM   18  C10 UNL     1      10.594  64.192  -0.531  1.00  0.00     0.035 C
HETATM   19  O3  UNL     1      11.076  62.256   0.438  1.00  0.00    -0.379 OA
HETATM   20  C11 UNL     1      11.782  64.440   0.373  1.00  0.00     0.035 C
HETATM   21  C12 UNL     1      11.839  63.171   1.202  1.00  0.00     0.137 C
HETATM   22  C13 UNL     1      10.885  63.355   2.358  1.00  0.00     0.136 C
BRANCH  22  23
HETATM   23  C14 UNL     1      11.263  64.567   3.208  1.00  0.00     0.294 C
HETATM   24  O4  UNL     1      10.406  65.510   3.055  1.00  0.00    -0.257 OA
HETATM   25  N3  UNL     1      12.340  64.559   3.971  1.00  0.00    -0.400 NA
BRANCH  25  26
HETATM   26  C15 UNL     1      13.487  64.566   4.790  1.00  0.00     0.270 C
HETATM   27  C16 UNL     1      13.497  65.723   5.788  1.00  0.00     0.057 C
BRANCH  26  28
HETATM   28  C17 UNL     1      14.763  64.481   4.020  1.00  0.00     0.419 C
HETATM   29  F1  UNL     1      14.981  63.150   3.668  1.00  0.00    -0.168 F
HETATM   30  F2  UNL     1      15.839  64.952   4.694  1.00  0.00    -0.168 F
HETATM   31  F3  UNL     1      14.657  65.151   2.802  1.00  0.00    -0.168 F
ENDBRANCH  26  28
ENDBRANCH  25  26
ENDBRANCH  22  23
ENDBRANCH  13  16
ENDBRANCH   1  13
BRANCH   1  32
HETATM   32  C18 UNL     1       6.085  63.404   1.317  1.00  0.00     0.089 C
HETATM   33  C19 UNL     1       6.006  64.867   1.508  1.00  0.00     0.044 C
HETATM   34  C20 UNL     1       4.623  65.288   0.970  1.00  0.00     0.115 C
HETATM   35  N4  UNL     1       3.878  64.172   0.455  1.00  0.00    -0.421 N
HETATM   36  C21 UNL     1       4.515  63.416  -0.573  1.00  0.00     0.115 C
ATOM     37  H4  UNL     1       2.949  63.935   0.804  1.00  0.00     0.153 HD
HETATM   38  C22 UNL     1       5.952  63.090  -0.183  1.00  0.00     0.044 C
ENDBRANCH   1  32
TORSDOF 9
ENDMDL