MODEL 3
REMARK VINA RESULT: -8.522686508      3.793      7.847
REMARK  10 active torsions:
REMARK  status: ('A' for Active; 'I' for Inactive)
REMARK    1  A    between atoms: C1_2  and  C2_3
REMARK    2  A    between atoms: C1_2  and  C12_23
REMARK    3  A    between atoms: C2_3  and  N1_4
REMARK       I    between atoms: N1_4  and  C3_6
REMARK    4  A    between atoms: C3_6  and  C4_8
REMARK    5  A    between atoms: C4_8  and  O3_9
REMARK       I    between atoms: N2_13  and  C7_14
REMARK    6  A    between atoms: C7_14  and  C8_16
REMARK    7  A    between atoms: C8_16  and  C9_17
REMARK    8  A    between atoms: C12_23  and  O5_25
REMARK    9  A    between atoms: O5_25  and  C13_26
REMARK   10  A    between atoms: C13_26  and  C14_28
ROOT
HETATM    1  N1  UNL     1       9.180  63.687   3.040  1.00  0.00    -0.351 N
ATOM      2  H1  UNL     1       8.851  64.088   3.918  1.00  0.00     0.163 HD
HETATM    3  C3  UNL     1       8.243  63.370   2.026  1.00  0.00     0.252 C
HETATM    4  O2  UNL     1       8.663  62.882   0.959  1.00  0.00    -0.270 OA
ENDROOT
BRANCH   1   5
HETATM    5  C2  UNL     1      10.604  63.451   2.851  1.00  0.00     0.206 C
BRANCH   5   6
HETATM    6  C1  UNL     1      11.414  64.576   3.381  1.00  0.00     0.204 C
HETATM    7  O1  UNL     1      12.415  64.323   4.019  1.00  0.00    -0.290 OA
BRANCH   6   8
HETATM    8  C12 UNL     1      11.024  65.966   3.149  1.00  0.00     0.387 C
HETATM    9  F4  UNL     1      12.190  66.725   2.970  1.00  0.00    -0.211 F
BRANCH   8  10
HETATM   10  O5  UNL     1      10.319  66.559   4.194  1.00  0.00    -0.277 OA
BRANCH  10  11
HETATM   11  C13 UNL     1       9.013  67.042   4.070  1.00  0.00     0.270 C
HETATM   12  O6  UNL     1       8.110  66.263   4.482  1.00  0.00    -0.264 OA
BRANCH  11  13
HETATM   13  C14 UNL     1       8.694  68.375   3.498  1.00  0.00     0.049 C
HETATM   14  C15 UNL     1       8.182  68.187   2.083  1.00  0.00     0.024 C
HETATM   15  C16 UNL     1       7.773  69.517   1.532  1.00  0.00    -0.013 C
HETATM   16  C17 UNL     1       6.629  70.057   2.359  1.00  0.00     0.009 C
HETATM   17  C21 UNL     1       8.943  70.472   1.535  1.00  0.00     0.009 C
HETATM   18  C18 UNL     1       7.108  70.280   3.769  1.00  0.00    -0.013 C
HETATM   19  C19 UNL     1       8.268  71.252   3.748  1.00  0.00     0.009 C
HETATM   20  C23 UNL     1       7.605  68.994   4.358  1.00  0.00     0.024 C
HETATM   21  C20 UNL     1       9.398  70.642   2.954  1.00  0.00    -0.013 C
HETATM   22  C22 UNL     1       9.855  69.319   3.499  1.00  0.00     0.024 C
ENDBRANCH  11  13
ENDBRANCH  10  11
ENDBRANCH   8  10
ENDBRANCH   6   8
ENDBRANCH   5   6
ENDBRANCH   1   5
BRANCH   3  23
HETATM   23  C4  UNL     1       6.816  63.621   2.250  1.00  0.00     0.141 C
HETATM   24  C5  UNL     1       5.920  63.050   1.163  1.00  0.00     0.068 C
HETATM   25  C6  UNL     1       6.008  61.571   1.055  1.00  0.00     0.129 C
HETATM   26  N2  UNL     1       6.054  60.915   2.348  1.00  0.00    -0.352 N
HETATM   27  C7  UNL     1       5.693  59.541   2.386  1.00  0.00     0.228 C
HETATM   28  C10 UNL     1       6.440  61.568   3.554  1.00  0.00     0.129 C
HETATM   29  O4  UNL     1       5.352  58.925   1.332  1.00  0.00    -0.273 OA
HETATM   30  C11 UNL     1       6.358  63.048   3.564  1.00  0.00     0.068 C
BRANCH  23  31
HETATM   31  O3  UNL     1       6.603  65.023   2.264  1.00  0.00    -0.380 OA
ATOM     32  H3  UNL     1       6.772  65.344   3.142  1.00  0.00     0.211 HD
ENDBRANCH  23  31
BRANCH  27  33
HETATM   33  C8  UNL     1       5.719  58.818   3.686  1.00  0.00     0.220 C
BRANCH  33  34
HETATM   34  C9  UNL     1       6.900  57.860   3.673  1.00  0.00     0.396 C
HETATM   35  F1  UNL     1       7.132  57.471   4.967  1.00  0.00    -0.171 F
HETATM   36  F2  UNL     1       8.045  58.500   3.231  1.00  0.00    -0.171 F
HETATM   37  F3  UNL     1       6.579  56.792   2.873  1.00  0.00    -0.171 F
ENDBRANCH  33  34
ENDBRANCH  27  33
ENDBRANCH   3  23
TORSDOF 10
ENDMDL