MODEL 1
REMARK VINA RESULT: -8.438081325      0.000      0.000
REMARK  7 active torsions:
REMARK  status: ('A' for Active; 'I' for Inactive)
REMARK    1  A    between atoms: C4_4  and  O1_5
REMARK    2  A    between atoms: O1_5  and  C5_6
REMARK    3  A    between atoms: C8_15  and  N2_16
REMARK    4  A    between atoms: C13_24  and  C14_25
REMARK    5  A    between atoms: C14_25  and  N4_26
REMARK    6  A    between atoms: N4_26  and  S1_28
REMARK    7  A    between atoms: S1_28  and  C15_31
ROOT
HETATM    1  N2  UNL     1       9.717  63.948   1.440  1.00  0.00    -0.262 N
HETATM    2  C9  UNL     1       9.087  63.685   0.183  1.00  0.00     0.326 C
HETATM    3  O2  UNL     1       9.332  64.315  -0.902  1.00  0.00    -0.247 OA
HETATM    4  N3  UNL     1       8.156  62.632   0.314  1.00  0.00    -0.324 N
ATOM      5  H3  UNL     1       7.747  62.090  -0.447  1.00  0.00     0.165 HD
HETATM    6  C10 UNL     1       7.889  62.464   1.708  1.00  0.00     0.116 C
HETATM    7  C11 UNL     1       7.636  61.047   2.114  1.00  0.00     0.041 C
HETATM    8  C12 UNL     1       6.860  61.058   3.412  1.00  0.00     0.009 C
HETATM    9  C13 UNL     1       5.489  61.610   3.211  1.00  0.00     0.004 C
HETATM   10  C18 UNL     1       5.471  62.505   1.974  1.00  0.00     0.009 C
HETATM   11  C19 UNL     1       6.706  63.374   2.063  1.00  0.00     0.041 C
HETATM   12  C20 UNL     1       9.137  63.021   2.338  1.00  0.00     0.256 C
HETATM   13  O5  UNL     1       9.519  62.671   3.459  1.00  0.00    -0.270 OA
ENDROOT
BRANCH   1  14
HETATM   14  C8  UNL     1      10.711  64.970   1.744  1.00  0.00     0.111 C
HETATM   15  C2  UNL     1      12.097  64.419   1.931  1.00  0.00     0.026 C
HETATM   16  C1  UNL     1      13.106  65.351   1.208  1.00  0.00     0.021 C
HETATM   17  C3  UNL     1      12.279  63.080   1.260  1.00  0.00     0.021 C
HETATM   18  C4  UNL     1      12.587  64.334   3.330  1.00  0.00     0.339 C
HETATM   19  N1  UNL     1      12.338  65.625   3.960  1.00  0.00    -0.048 N
HETATM   20  C6  UNL     1      10.942  65.924   4.067  1.00  0.00     0.237 C
ATOM     21  H12 UNL     1      12.797  65.684   4.869  1.00  0.00     0.280 HD
ATOM     22  H11 UNL     1      12.837  66.371   3.476  1.00  0.00     0.280 HD
HETATM   23  C7  UNL     1      10.204  65.891   2.770  1.00  0.00     0.054 C
BRANCH  18  24
HETATM   24  O1  UNL     1      13.985  64.210   3.308  1.00  0.00    -0.263 OA
BRANCH  24  25
HETATM   25  C5  UNL     1      14.542  64.114   4.573  1.00  0.00     0.526 C
HETATM   26  F1  UNL     1      13.634  64.226   5.602  1.00  0.00    -0.144 F
HETATM   27  F2  UNL     1      15.444  65.151   4.741  1.00  0.00    -0.144 F
HETATM   28  F3  UNL     1      15.181  62.894   4.748  1.00  0.00    -0.144 F
ENDBRANCH  24  25
ENDBRANCH  18  24
ENDBRANCH   1  14
BRANCH   9  29
HETATM   29  C14 UNL     1       4.521  60.439   3.011  1.00  0.00     0.136 C
BRANCH  29  30
HETATM   30  N4  UNL     1       5.166  59.262   3.514  1.00  0.00    -0.319 N
ATOM     31  H4  UNL     1       5.652  59.243   4.411  1.00  0.00     0.172 HD
BRANCH  30  32
HETATM   32  S1  UNL     1       5.060  57.895   2.497  1.00  0.00     0.230 S
HETATM   33  O3  UNL     1       3.769  57.169   2.649  1.00  0.00    -0.206 OA
HETATM   34  O4  UNL     1       5.264  58.368   1.069  1.00  0.00    -0.206 OA
BRANCH  32  35
HETATM   35  C15 UNL     1       6.415  56.807   2.859  1.00  0.00     0.129 A
HETATM   36  C16 UNL     1       6.517  56.179   4.201  1.00  0.00     0.023 A
HETATM   37  C17 UNL     1       7.410  57.339   3.847  1.00  0.00     0.023 A
ENDBRANCH  32  35
ENDBRANCH  30  32
ENDBRANCH  29  30
ENDBRANCH   9  29
TORSDOF 7
ENDMDL