MODEL 5
REMARK VINA RESULT: -9.085344063      2.056      3.048
REMARK  10 active torsions:
REMARK  status: ('A' for Active; 'I' for Inactive)
REMARK    1  A    between atoms: N1_2  and  C2_5
REMARK    2  A    between atoms: C2_5  and  C4_7
REMARK       I    between atoms: C4_7  and  N2_9
REMARK    3  A    between atoms: N2_9  and  C5_11
REMARK    4  A    between atoms: C5_11  and  C6_12
REMARK    5  A    between atoms: N3_21  and  C14_22
REMARK    6  A    between atoms: C14_22  and  O3_23
REMARK    7  A    between atoms: C14_22  and  N4_25
REMARK    8  A    between atoms: C17_30  and  O4_31
REMARK    9  A    between atoms: C17_30  and  C18_33
REMARK   10  A    between atoms: C18_33  and  C19_34
ROOT
HETATM    1  C6  UNL     1       7.843  66.790   3.882  1.00  0.00     0.147 C
HETATM    2  O2  UNL     1       6.974  66.643   4.962  1.00  0.00    -0.359 OA
HETATM    3  C7  UNL     1       6.160  65.476   4.712  1.00  0.00     0.227 C
HETATM    4  C8  UNL     1       4.849  65.833   5.394  1.00  0.00     0.054 C
HETATM    5  C9  UNL     1       3.924  66.561   4.448  1.00  0.00     0.006 C
HETATM    6  C10 UNL     1       4.681  67.447   3.487  1.00  0.00     0.026 C
HETATM    7  C11 UNL     1       5.737  66.777   2.698  1.00  0.00     0.096 C
HETATM    8  C12 UNL     1       7.082  67.456   2.776  1.00  0.00     0.035 C
HETATM    9  C13 UNL     1       7.750  67.347   1.439  1.00  0.00     0.015 C
HETATM   10  N3  UNL     1       5.944  65.413   3.303  1.00  0.00    -0.316 N
ENDROOT
BRANCH  10  11
HETATM   11  C14 UNL     1       5.890  64.320   2.426  1.00  0.00     0.220 C
BRANCH  11  12
HETATM   12  O3  UNL     1       5.349  64.537   1.245  1.00  0.00    -0.332 OA
ATOM     13  H3  UNL     1       4.559  64.049   1.043  1.00  0.00     0.220 HD
ENDBRANCH  11  12
BRANCH  11  14
HETATM   14  N4  UNL     1       6.321  62.993   2.581  1.00  0.00    -0.336 N
HETATM   15  C15 UNL     1       7.692  62.642   2.675  1.00  0.00     0.209 C
HETATM   16  C16 UNL     1       8.055  61.257   3.052  1.00  0.00     0.295 C
HETATM   17  F1  UNL     1       8.759  61.225   4.254  1.00  0.00    -0.201 F
HETATM   18  F2  UNL     1       8.880  60.625   2.136  1.00  0.00    -0.201 F
HETATM   19  C17 UNL     1       6.852  60.322   3.290  1.00  0.00     0.192 C
HETATM   20  C22 UNL     1       5.898  60.657   2.198  1.00  0.00     0.295 C
HETATM   21  F3  UNL     1       4.967  59.740   1.864  1.00  0.00    -0.201 F
HETATM   22  F4  UNL     1       6.581  60.977   1.013  1.00  0.00    -0.201 F
HETATM   23  C23 UNL     1       5.250  61.982   2.631  1.00  0.00     0.209 C
BRANCH  19  24
HETATM   24  O4  UNL     1       6.323  60.749   4.511  1.00  0.00    -0.378 OA
ATOM     25  H4  UNL     1       6.362  59.977   5.064  1.00  0.00     0.211 HD
ENDBRANCH  19  24
BRANCH  19  26
HETATM   26  C18 UNL     1       7.406  58.955   3.334  1.00  0.00     0.055 C
BRANCH  26  27
HETATM   27  C19 UNL     1       6.721  57.938   4.171  1.00  0.00    -0.011 A
HETATM   28  C20 UNL     1       6.087  56.813   3.318  1.00  0.00     0.005 A
HETATM   29  C21 UNL     1       7.212  56.537   4.258  1.00  0.00     0.005 A
ENDBRANCH  26  27
ENDBRANCH  19  26
ENDBRANCH  11  14
ENDBRANCH  10  11
BRANCH   1  30
HETATM   30  C5  UNL     1       9.082  67.478   4.316  1.00  0.00     0.155 C
BRANCH  30  31
HETATM   31  N2  UNL     1      10.177  66.585   4.613  1.00  0.00    -0.357 N
HETATM   32  C4  UNL     1      11.387  66.620   3.848  1.00  0.00     0.248 C
HETATM   33  O1  UNL     1      11.438  67.472   2.911  1.00  0.00    -0.271 OA
ATOM     34  H2  UNL     1      10.088  65.919   5.381  1.00  0.00     0.162 HD
BRANCH  32  35
HETATM   35  C2  UNL     1      12.532  65.718   4.118  1.00  0.00     0.272 C
HETATM   36  C3  UNL     1      12.452  64.426   3.376  1.00  0.00     0.050 C
BRANCH  35  37
HETATM   37  N1  UNL     1      12.650  65.556   5.548  1.00  0.00    -0.067 N
HETATM   38  C1  UNL     1      13.908  64.940   5.927  1.00  0.00     0.267 C
ATOM     39  H12 UNL     1      11.856  65.040   5.928  1.00  0.00     0.277 HD
ATOM     40  H11 UNL     1      12.512  66.443   6.033  1.00  0.00     0.277 HD
ENDBRANCH  35  37
ENDBRANCH  32  35
ENDBRANCH  30  31
ENDBRANCH   1  30
TORSDOF 10
ENDMDL