MODEL 3
REMARK VINA RESULT: -6.163811303      1.844      3.181
REMARK  8 active torsions:
REMARK  status: ('A' for Active; 'I' for Inactive)
REMARK    1  A    between atoms: C2_2  and  O1_3
REMARK    2  A    between atoms: O1_3  and  C3_4
REMARK    3  A    between atoms: C3_4  and  C4_5
REMARK    4  A    between atoms: C4_5  and  O2_6
REMARK    5  A    between atoms: O2_6  and  C5_7
REMARK    6  A    between atoms: C5_7  and  N1_8
REMARK    7  A    between atoms: C12_20  and  N3_21
REMARK    8  A    between atoms: N3_21  and  N4_23
ROOT
HETATM    1  N1  UNL     1      12.750  64.004   2.912  1.00  0.00    -0.250 N
HETATM    2  N2  UNL     1      12.579  63.513   1.686  1.00  0.00    -0.294 N
ATOM      3  H2  UNL     1      13.247  62.942   1.168  1.00  0.00     0.187 HD
HETATM    4  C6  UNL     1      11.372  63.902   1.257  1.00  0.00     0.065 A
HETATM    5  C7  UNL     1      10.691  63.671   0.057  1.00  0.00     0.052 A
HETATM    6  C8  UNL     1       9.451  64.210  -0.091  1.00  0.00     0.032 A
HETATM    7 BR1  UNL     1       8.517  63.895  -1.733  1.00  0.00    -0.050 Br
HETATM    8  C9  UNL     1       8.810  64.972   0.864  1.00  0.00     0.046 A
HETATM    9 BR2  UNL     1       7.067  65.703   0.600  1.00  0.00    -0.048 Br
HETATM   10  C10 UNL     1       9.493  65.192   2.043  1.00  0.00     0.046 A
HETATM   11 BR3  UNL     1       8.737  66.224   3.451  1.00  0.00    -0.049 Br
HETATM   12  C11 UNL     1      10.753  64.660   2.225  1.00  0.00     0.058 A
HETATM   13  C12 UNL     1      11.671  64.705   3.279  1.00  0.00     0.152 A
ENDROOT
BRANCH   1  14
HETATM   14  C5  UNL     1      13.976  63.766   3.673  1.00  0.00     0.318 C
BRANCH  14  15
HETATM   15  O2  UNL     1      14.292  64.962   4.282  1.00  0.00    -0.368 OA
BRANCH  15  16
HETATM   16  C4  UNL     1      15.025  64.866   5.436  1.00  0.00     0.196 C
BRANCH  16  17
HETATM   17  C3  UNL     1      14.192  64.605   6.670  1.00  0.00     0.193 C
BRANCH  17  18
HETATM   18  O1  UNL     1      14.674  63.574   7.433  1.00  0.00    -0.389 OA
BRANCH  18  19
HETATM   19  C2  UNL     1      16.038  63.428   7.405  1.00  0.00     0.163 C
HETATM   20  C1  UNL     1      16.478  62.025   7.052  1.00  0.00     0.033 C
ENDBRANCH  18  19
ENDBRANCH  17  18
ENDBRANCH  16  17
ENDBRANCH  15  16
ENDBRANCH  14  15
ENDBRANCH   1  14
BRANCH  13  21
HETATM   21  N3  UNL     1      11.426  65.321   4.354  1.00  0.00    -0.290 N
ATOM     22  H3  UNL     1      10.802  64.826   4.991  1.00  0.00     0.188 HD
BRANCH  21  23
HETATM   23  N4  UNL     1      11.851  66.533   4.811  1.00  0.00    -0.344 N
ATOM     24  H42 UNL     1      12.320  66.479   5.715  1.00  0.00     0.176 HD
ATOM     25  H41 UNL     1      11.778  67.467   4.407  1.00  0.00     0.176 HD
ENDBRANCH  21  23
ENDBRANCH  13  21
TORSDOF 8
ENDMDL