MODEL 3
REMARK VINA RESULT: -8.988197503      4.670      9.023
REMARK  8 active torsions:
REMARK  status: ('A' for Active; 'I' for Inactive)
REMARK    1  A    between atoms: S1_2  and  N1_4
REMARK    2  A    between atoms: S1_2  and  N2_13
REMARK    3  A    between atoms: N1_4  and  C1_6
REMARK    4  A    between atoms: C1_6  and  C2_7
REMARK    5  A    between atoms: C2_7  and  C3_9
REMARK    6  A    between atoms: C9_19  and  N3_20
REMARK    7  A    between atoms: N3_20  and  C10_22
REMARK    8  A    between atoms: N6_29  and  C13_31
ROOT
HETATM    1  N2  UNL     1       4.786  62.024   1.961  1.00  0.00    -0.193 NA
HETATM    2  C4  UNL     1       5.141  62.103   3.337  1.00  0.00     0.110 C
HETATM    3  C5  UNL     1       6.643  61.783   3.385  1.00  0.00     0.026 C
HETATM    4  C6  UNL     1       7.104  62.559   2.160  1.00  0.00    -0.025 C
HETATM    5  C7  UNL     1       7.269  63.991   2.551  1.00  0.00     0.013 C
HETATM    6  C8  UNL     1       8.796  64.177   2.527  1.00  0.00     0.026 C
HETATM    7  C9  UNL     1       9.157  63.339   1.348  1.00  0.00     0.100 C
HETATM    8  C19 UNL     1       8.428  62.050   1.637  1.00  0.00     0.036 C
HETATM    9  C20 UNL     1       5.981  62.360   1.198  1.00  0.00     0.118 C
ENDROOT
BRANCH   7  10
HETATM   10  N3  UNL     1      10.515  63.216   1.026  1.00  0.00    -0.221 N
ATOM     11  H3  UNL     1      10.735  62.479   0.356  1.00  0.00     0.178 HD
BRANCH  10  12
HETATM   12  C10 UNL     1      11.527  63.889   1.444  1.00  0.00     0.693 A
HETATM   13  N4  UNL     1      12.314  64.617   0.649  1.00  0.00    -0.187 N
HETATM   14  C11 UNL     1      13.341  65.280   1.183  1.00  0.00     0.215 A
ATOM     15  H4  UNL     1      12.133  64.665  -0.354  1.00  0.00     0.185 HD
HETATM   16  N5  UNL     1      13.638  65.259   2.508  1.00  0.00    -0.187 N
HETATM   17  C12 UNL     1      12.840  64.525   3.296  1.00  0.00     0.693 A
ATOM     18  H5  UNL     1      14.431  65.777   2.885  1.00  0.00     0.185 HD
HETATM   19  N6  UNL     1      13.059  64.457   4.555  1.00  0.00    -0.221 N
HETATM   20  N7  UNL     1      11.786  63.843   2.750  1.00  0.00    -0.022 N
ATOM     21  H6  UNL     1      12.437  63.891   5.132  1.00  0.00     0.178 HD
ATOM     22  H7  UNL     1      11.184  63.287   3.357  1.00  0.00     0.203 HD
BRANCH  19  23
HETATM   23  C13 UNL     1      14.139  65.142   5.180  1.00  0.00     0.099 C
HETATM   24  C14 UNL     1      15.388  64.329   5.143  1.00  0.00     0.026 C
HETATM   25  C15 UNL     1      15.587  63.392   6.287  1.00  0.00     0.002 C
HETATM   26  C16 UNL     1      15.285  63.970   7.641  1.00  0.00     0.000 C
HETATM   27  C17 UNL     1      13.822  64.428   7.577  1.00  0.00     0.002 C
HETATM   28  C18 UNL     1      13.792  65.567   6.600  1.00  0.00     0.026 C
ENDBRANCH  19  23
ENDBRANCH  10  12
ENDBRANCH   7  10
BRANCH   1  29
HETATM   29  S1  UNL     1       4.211  60.527   1.408  1.00  0.00     0.298 S
HETATM   30  O1  UNL     1       2.733  60.654   1.151  1.00  0.00    -0.188 OA
HETATM   31  O2  UNL     1       4.880  60.266   0.062  1.00  0.00    -0.188 OA
BRANCH  29  32
HETATM   32  N1  UNL     1       4.463  59.204   2.437  1.00  0.00    -0.304 N
ATOM     33  H1  UNL     1       3.803  58.949   3.172  1.00  0.00     0.173 HD
BRANCH  32  34
HETATM   34  C1  UNL     1       5.668  58.470   2.203  1.00  0.00     0.179 C
BRANCH  34  35
HETATM   35  C2  UNL     1       5.818  57.304   3.179  1.00  0.00     0.295 C
HETATM   36  F1  UNL     1       6.239  56.188   2.475  1.00  0.00    -0.238 F
BRANCH  35  37
HETATM   37  C3  UNL     1       6.969  57.708   4.111  1.00  0.00     0.419 C
HETATM   38  F2  UNL     1       7.328  56.604   4.851  1.00  0.00    -0.168 F
HETATM   39  F3  UNL     1       6.555  58.766   4.884  1.00  0.00    -0.168 F
HETATM   40  F4  UNL     1       8.064  58.128   3.363  1.00  0.00    -0.168 F
ENDBRANCH  35  37
ENDBRANCH  34  35
ENDBRANCH  32  34
ENDBRANCH  29  32
ENDBRANCH   1  29
TORSDOF 8
ENDMDL