MODEL 4
REMARK VINA RESULT: -4.386547399      4.413      5.470
REMARK  4 active torsions:
REMARK  status: ('A' for Active; 'I' for Inactive)
REMARK    1  A    between atoms: N1_1  and  C1_4
REMARK    2  A    between atoms: C2_10  and  C3_11
REMARK    3  A    between atoms: C3_11  and  N4_12
REMARK    4  A    between atoms: C3_11  and  N5_16
ROOT
HETATM    1  C1  UNL     1      27.634  -0.147   4.857  1.00  0.00     0.149 A
HETATM    2  N2  UNL     1      26.746   0.216   5.810  1.00  0.00    -0.224 N
ATOM      3  H2  UNL     1      26.071   0.976   5.725  1.00  0.00     0.198 HD
HETATM    4  O1  UNL     1      26.884  -0.552   6.852  1.00  0.00    -0.155 OA
HETATM    5  N3  UNL     1      27.833  -1.417   6.634  1.00  0.00    -0.239 N
ATOM      6  H3  UNL     1      28.144  -2.135   7.289  1.00  0.00     0.196 HD
HETATM    7  C2  UNL     1      28.342  -1.205   5.384  1.00  0.00     0.126 A
ENDROOT
BRANCH   7   8
HETATM    8  C3  UNL     1      29.430  -1.999   4.805  1.00  0.00     0.340 C
BRANCH   8   9
HETATM    9  N4  UNL     1      30.658  -1.245   4.713  1.00  0.00    -0.055 N
ATOM     10  H43 UNL     1      30.531  -0.288   5.043  1.00  0.00     0.276 HD
ATOM     11  H42 UNL     1      31.341  -1.563   5.401  1.00  0.00     0.276 HD
ATOM     12  H41 UNL     1      31.046  -1.263   3.769  1.00  0.00     0.276 HD
ENDBRANCH   8   9
BRANCH   8  13
HETATM   13  N5  UNL     1      29.013  -2.457   3.472  1.00  0.00    -0.128 NA
HETATM   14  S1  UNL     1      30.414  -2.420   2.389  1.00  0.00     0.029 SA
ENDBRANCH   8  13
ENDBRANCH   7   8
BRANCH   1  15
HETATM   15  N1  UNL     1      27.801   0.369   3.700  1.00  0.00    -0.382 N
ATOM     16  H12 UNL     1      28.165   1.302   3.505  1.00  0.00     0.157 HD
ATOM     17  H11 UNL     1      27.605  -0.050   2.790  1.00  0.00     0.157 HD
ENDBRANCH   1  15
TORSDOF 4
ENDMDL