MODEL 1
REMARK VINA RESULT: -5.301893315      0.000      0.000
REMARK  6 active torsions:
REMARK  status: ('A' for Active; 'I' for Inactive)
REMARK    1  A    between atoms: N1_1  and  C1_5
REMARK    2  A    between atoms: C1_5  and  C2_6
REMARK    3  A    between atoms: C2_6  and  C3_7
REMARK    4  A    between atoms: C3_7  and  N2_8
REMARK    5  A    between atoms: N2_8  and  C4_10
REMARK    6  A    between atoms: N5_16  and  N6_17
ROOT
HETATM    1  C4  UNL     1      27.490  -1.525   6.837  1.00  0.00     0.700 A
HETATM    2  N3  UNL     1      28.594  -2.091   6.354  1.00  0.00    -0.197 N
ATOM      3  H3  UNL     1      29.065  -2.903   6.754  1.00  0.00     0.183 HD
HETATM    4  C5  UNL     1      28.989  -1.424   5.255  1.00  0.00     0.153 A
HETATM    5  C6  UNL     1      28.101  -0.391   5.030  1.00  0.00     0.171 A
HETATM    6  N4  UNL     1      28.128   0.575   3.976  1.00  0.00    -0.079 NA
HETATM    7  N5  UNL     1      27.191  -0.492   6.031  1.00  0.00    -0.078 N
ENDROOT
BRANCH   1   8
HETATM    8  N2  UNL     1      26.786  -1.856   7.880  1.00  0.00    -0.224 N
ATOM      9  H2  UNL     1      26.014  -1.254   8.167  1.00  0.00     0.177 HD
BRANCH   8  10
HETATM   10  C3  UNL     1      27.062  -3.045   8.642  1.00  0.00     0.140 C
BRANCH  10  11
HETATM   11  C2  UNL     1      26.081  -3.126   9.778  1.00  0.00     0.047 C
BRANCH  11  12
HETATM   12  C1  UNL     1      26.536  -2.349  10.993  1.00  0.00     0.231 C
BRANCH  12  13
HETATM   13  N1  UNL     1      25.471  -1.415  11.328  1.00  0.00    -0.079 N
ATOM     14  H13 UNL     1      24.899  -1.157  10.525  1.00  0.00     0.274 HD
ATOM     15  H12 UNL     1      24.730  -1.838  11.887  1.00  0.00     0.274 HD
ATOM     16  H11 UNL     1      25.908  -0.613  11.784  1.00  0.00     0.274 HD
ENDBRANCH  12  13
ENDBRANCH  11  12
ENDBRANCH  10  11
ENDBRANCH   8  10
ENDBRANCH   1   8
BRANCH   7  17
HETATM   17  N6  UNL     1      26.117   0.386   6.155  1.00  0.00    -0.323 N
ATOM     18  H62 UNL     1      26.187   1.269   6.661  1.00  0.00     0.178 HD
ATOM     19  H61 UNL     1      25.178   0.264   5.777  1.00  0.00     0.178 HD
ENDBRANCH   7  17
TORSDOF 6
ENDMDL