MODEL 3
REMARK VINA RESULT: -4.076831498      1.625      2.827
REMARK  4 active torsions:
REMARK  status: ('A' for Active; 'I' for Inactive)
REMARK    1  A    between atoms: C2_3  and  N2_4
REMARK    2  A    between atoms: C2_3  and  C3_8
REMARK    3  A    between atoms: C3_8  and  C4_9
REMARK    4  A    between atoms: C6_15  and  N5_16
ROOT
HETATM    1  N1  UNL     1      26.017  -0.514   6.774  1.00  0.00    -0.195 NA
HETATM    2  C1  UNL     1      26.916  -1.247   6.832  1.00  0.00     0.092 C
HETATM    3  C2  UNL     1      28.047  -2.174   6.922  1.00  0.00     0.292 C
ENDROOT
BRANCH   3   4
HETATM    4  N2  UNL     1      28.511  -2.206   8.286  1.00  0.00    -0.062 N
ATOM      5  H23 UNL     1      29.495  -2.465   8.357  1.00  0.00     0.275 HD
ATOM      6  H22 UNL     1      28.581  -1.274   8.696  1.00  0.00     0.275 HD
ATOM      7  H21 UNL     1      27.906  -2.825   8.824  1.00  0.00     0.275 HD
ENDBRANCH   3   4
BRANCH   3   8
HETATM    8  C3  UNL     1      29.134  -1.678   6.002  1.00  0.00     0.094 C
BRANCH   8   9
HETATM    9  C4  UNL     1      28.678  -1.526   4.584  1.00  0.00     0.183 C
HETATM   10  N3  UNL     1      28.925  -0.200   4.057  1.00  0.00    -0.365 N
HETATM   11  C5  UNL     1      30.263   0.092   3.675  1.00  0.00     0.175 C
ATOM     12  H3  UNL     1      28.178   0.488   3.964  1.00  0.00     0.162 HD
HETATM   13  N4  UNL     1      31.007  -0.879   3.300  1.00  0.00    -0.343 N
HETATM   14  C6  UNL     1      30.573  -2.244   3.242  1.00  0.00     0.384 C
ATOM     15  H4  UNL     1      31.967  -0.669   3.026  1.00  0.00     0.164 HD
HETATM   16  N6  UNL     1      29.291  -2.526   3.775  1.00  0.00    -0.359 N
ATOM     17  H6  UNL     1      28.824  -3.413   3.586  1.00  0.00     0.159 HD
BRANCH  14  18
HETATM   18  N5  UNL     1      30.551  -2.693   1.837  1.00  0.00    -0.041 N
ATOM     19  H53 UNL     1      29.794  -3.354   1.655  1.00  0.00     0.279 HD
ATOM     20  H52 UNL     1      30.254  -1.953   1.201  1.00  0.00     0.279 HD
ATOM     21  H51 UNL     1      31.464  -3.074   1.588  1.00  0.00     0.279 HD
ENDBRANCH  14  18
ENDBRANCH   8   9
ENDBRANCH   3   8
TORSDOF 4
ENDMDL