MODEL 1
REMARK VINA RESULT: -5.681321934      0.000      0.000
REMARK  4 active torsions:
REMARK  status: ('A' for Active; 'I' for Inactive)
REMARK    1  A    between atoms: N1_1  and  C1_4
REMARK    2  A    between atoms: C2_7  and  N3_8
REMARK    3  A    between atoms: N3_8  and  N4_10
REMARK    4  A    between atoms: N4_10  and  N5_11
ROOT
HETATM    1  C1  UNL     1      25.568  -1.174   7.733  1.00  0.00     0.145 A
HETATM    2  N2  UNL     1      25.369  -1.838   8.905  1.00  0.00    -0.173 N
ATOM      3  H2  UNL     1      24.481  -1.751   9.398  1.00  0.00     0.186 HD
HETATM    4  C2  UNL     1      26.346  -2.608   9.411  1.00  0.00     0.698 A
HETATM    5  N6  UNL     1      27.520  -2.700   8.722  1.00  0.00    -0.173 N
ATOM      6  H6  UNL     1      28.259  -3.287   9.109  1.00  0.00     0.186 HD
HETATM    7  C3  UNL     1      27.757  -2.070   7.576  1.00  0.00     0.152 A
HETATM    8  N7  UNL     1      28.803  -1.992   6.715  1.00  0.00    -0.336 N
ATOM      9  H7  UNL     1      29.694  -2.475   6.835  1.00  0.00     0.168 HD
HETATM   10  C4  UNL     1      28.500  -1.189   5.682  1.00  0.00     0.182 A
HETATM   11  N8  UNL     1      27.247  -0.761   5.903  1.00  0.00    -0.346 N
ATOM     12  H8  UNL     1      26.732  -0.132   5.287  1.00  0.00     0.167 HD
HETATM   13  C5  UNL     1      26.760  -1.277   7.049  1.00  0.00     0.122 A
ENDROOT
BRANCH   4  14
HETATM   14  N3  UNL     1      26.185  -3.330  10.645  1.00  0.00    -0.116 N
ATOM     15  H3  UNL     1      25.719  -4.237  10.647  1.00  0.00     0.203 HD
BRANCH  14  16
HETATM   16  N4  UNL     1      26.662  -2.796  11.833  1.00  0.00    -0.015 NA
BRANCH  16  17
HETATM   17  N5  UNL     1      25.863  -1.769  12.331  1.00  0.00    -0.328 N
ATOM     18  H52 UNL     1      25.215  -1.243  11.744  1.00  0.00     0.174 HD
ATOM     19  H51 UNL     1      25.998  -1.604  13.328  1.00  0.00     0.174 HD
ENDBRANCH  16  17
ENDBRANCH  14  16
ENDBRANCH   4  14
BRANCH   1  20
HETATM   20  N1  UNL     1      24.626  -0.444   7.265  1.00  0.00    -0.383 N
ATOM     21  H12 UNL     1      23.851  -0.167   7.867  1.00  0.00     0.157 HD
ATOM     22  H11 UNL     1      24.667  -0.149   6.289  1.00  0.00     0.157 HD
ENDBRANCH   1  20
TORSDOF 4
ENDMDL