MODEL 3
REMARK VINA RESULT: -5.063097312      1.290      4.958
REMARK  4 active torsions:
REMARK  status: ('A' for Active; 'I' for Inactive)
REMARK    1  A    between atoms: N5_14  and  C5_15
REMARK    2  A    between atoms: C5_15  and  C6_16
REMARK    3  A    between atoms: C6_16  and  N6_17
REMARK    4  A    between atoms: C6_16  and  N7_21
ROOT
HETATM    1  N1  UNL     1      26.221  -3.369  11.115  1.00  0.00    -0.382 N
ATOM      2  H11 UNL     1      27.035  -3.852  11.495  1.00  0.00     0.157 HD
ATOM      3  H12 UNL     1      25.461  -3.495  11.784  1.00  0.00     0.157 HD
HETATM    4  C1  UNL     1      26.152  -2.728  10.018  1.00  0.00     0.144 A
HETATM    5  N2  UNL     1      25.067  -2.083   9.512  1.00  0.00    -0.282 N
ATOM      6  H2  UNL     1      24.152  -2.033   9.959  1.00  0.00     0.188 HD
HETATM    7  N3  UNL     1      25.378  -1.535   8.356  1.00  0.00    -0.282 N
ATOM      8  H3  UNL     1      24.746  -0.995   7.766  1.00  0.00     0.188 HD
HETATM    9  C2  UNL     1      26.658  -1.804   8.083  1.00  0.00     0.154 A
HETATM   10  C3  UNL     1      27.177  -2.559   9.117  1.00  0.00     0.124 A
HETATM   11  N4  UNL     1      28.462  -2.793   8.781  1.00  0.00    -0.346 N
ATOM     12  H4  UNL     1      29.125  -3.329   9.340  1.00  0.00     0.167 HD
HETATM   13  C4  UNL     1      28.741  -2.211   7.584  1.00  0.00     0.185 A
HETATM   14  N5  UNL     1      27.617  -1.603   7.165  1.00  0.00    -0.323 N
ENDROOT
BRANCH  14  15
HETATM   15  C5  UNL     1      27.432  -0.852   5.941  1.00  0.00     0.193 C
BRANCH  15  16
HETATM   16  C6  UNL     1      28.650  -0.935   5.066  1.00  0.00     0.396 C
BRANCH  16  17
HETATM   17  N6  UNL     1      28.596  -2.186   4.331  1.00  0.00    -0.049 N
ATOM     18  H63 UNL     1      29.179  -2.912   4.746  1.00  0.00     0.276 HD
ATOM     19  H62 UNL     1      27.697  -2.659   4.426  1.00  0.00     0.276 HD
ATOM     20  H61 UNL     1      28.838  -1.994   3.358  1.00  0.00     0.276 HD
ENDBRANCH  16  17
BRANCH  16  21
HETATM   21  N7  UNL     1      28.598   0.143   4.077  1.00  0.00    -0.049 N
ATOM     22  H73 UNL     1      28.563  -0.209   3.120  1.00  0.00     0.276 HD
ATOM     23  H72 UNL     1      27.703   0.632   4.081  1.00  0.00     0.276 HD
ATOM     24  H71 UNL     1      29.386   0.772   4.231  1.00  0.00     0.276 HD
ENDBRANCH  16  21
ENDBRANCH  15  16
ENDBRANCH  14  15
TORSDOF 4
ENDMDL