MODEL 1
REMARK VINA RESULT: -5.025352293      0.000      0.000
REMARK  5 active torsions:
REMARK  status: ('A' for Active; 'I' for Inactive)
REMARK    1  A    between atoms: C1_4  and  N2_5
REMARK    2  A    between atoms: N2_5  and  N3_7
REMARK    3  A    between atoms: N3_7  and  N4_9
REMARK    4  A    between atoms: N4_9  and  C2_11
REMARK    5  A    between atoms: C4_17  and  N7_18
ROOT
HETATM    1  C2  UNL     1      26.891  -2.096   7.943  1.00  0.00     0.713 A
HETATM    2  N5  UNL     1      25.733  -1.429   7.967  1.00  0.00    -0.185 N
ATOM      3  H5  UNL     1      25.037  -1.631   8.685  1.00  0.00     0.185 HD
HETATM    4  C3  UNL     1      25.494  -0.488   7.036  1.00  0.00     0.215 A
HETATM    5  N6  UNL     1      26.425  -0.215   6.075  1.00  0.00    -0.187 N
ATOM      6  H6  UNL     1      26.247   0.499   5.368  1.00  0.00     0.185 HD
HETATM    7  C4  UNL     1      27.580  -0.902   6.075  1.00  0.00     0.691 A
HETATM    8  N8  UNL     1      27.815  -1.842   7.007  1.00  0.00    -0.021 N
ATOM      9  H8  UNL     1      28.693  -2.360   7.002  1.00  0.00     0.203 HD
ENDROOT
BRANCH   1  10
HETATM   10  N4  UNL     1      27.122  -3.005   8.842  1.00  0.00    -0.117 N
ATOM     11  H4  UNL     1      28.061  -3.387   8.946  1.00  0.00     0.207 HD
BRANCH  10  12
HETATM   12  N3  UNL     1      26.105  -3.455   9.659  1.00  0.00    -0.228 N
ATOM     13  H3  UNL     1      25.284  -3.900   9.247  1.00  0.00     0.209 HD
BRANCH  12  14
HETATM   14  N2  UNL     1      26.191  -3.306  11.042  1.00  0.00    -0.282 N
ATOM     15  H2  UNL     1      26.092  -4.123  11.645  1.00  0.00     0.189 HD
BRANCH  14  16
HETATM   16  C1  UNL     1      26.414  -2.029  11.619  1.00  0.00     0.192 C
HETATM   17  N1  UNL     1      25.505  -1.119  11.685  1.00  0.00    -0.394 N
ATOM     18  H12 UNL     1      24.588  -1.343  11.301  1.00  0.00     0.156 HD
ATOM     19  H11 UNL     1      25.666  -0.201  12.100  1.00  0.00     0.156 HD
ENDBRANCH  14  16
ENDBRANCH  12  14
ENDBRANCH  10  12
ENDBRANCH   1  10
BRANCH   7  20
HETATM   20  N7  UNL     1      28.490  -0.678   5.185  1.00  0.00    -0.234 N
ATOM     21  H72 UNL     1      29.018   0.193   5.237  1.00  0.00     0.174 HD
ATOM     22  H71 UNL     1      28.679  -1.354   4.444  1.00  0.00     0.174 HD
ENDBRANCH   7  20
TORSDOF 5
ENDMDL