MODEL 2
REMARK VINA RESULT: -4.966698461      1.518      2.074
REMARK  5 active torsions:
REMARK  status: ('A' for Active; 'I' for Inactive)
REMARK    1  A    between atoms: N1_2  and  N2_4
REMARK    2  A    between atoms: N2_4  and  C2_6
REMARK    3  A    between atoms: N5_13  and  N6_14
REMARK    4  A    between atoms: N6_14  and  N7_16
REMARK    5  A    between atoms: N7_16  and  N8_17
ROOT
HETATM    1  C2  UNL     1      27.484  -1.336   6.564  1.00  0.00     0.186 A
HETATM    2  C3  UNL     1      27.981  -0.625   5.469  1.00  0.00     0.072 A
HETATM    3  C4  UNL     1      29.270  -0.860   4.749  1.00  0.00     0.074 C
HETATM    4  N3  UNL     1      27.066   0.314   5.199  1.00  0.00    -0.285 N
ATOM      5  H3  UNL     1      27.123   1.006   4.453  1.00  0.00     0.188 HD
HETATM    6  N4  UNL     1      26.083   0.189   6.060  1.00  0.00    -0.218 N
ATOM      7  H4  UNL     1      25.254   0.782   6.075  1.00  0.00     0.210 HD
HETATM    8  N5  UNL     1      26.307  -0.808   6.908  1.00  0.00    -0.149 N
ENDROOT
BRANCH   8   9
HETATM    9  N6  UNL     1      25.421  -1.145   7.949  1.00  0.00    -0.203 N
ATOM     10  H6  UNL     1      24.487  -0.739   8.009  1.00  0.00     0.208 HD
BRANCH   9  11
HETATM   11  N7  UNL     1      25.888  -2.074   8.908  1.00  0.00    -0.012 NA
BRANCH  11  12
HETATM   12  N8  UNL     1      25.216  -1.987  10.111  1.00  0.00    -0.327 N
ATOM     13  H82 UNL     1      25.207  -1.139  10.677  1.00  0.00     0.174 HD
ATOM     14  H81 UNL     1      24.740  -2.853  10.362  1.00  0.00     0.174 HD
ENDBRANCH  11  12
ENDBRANCH   9  11
ENDBRANCH   8   9
BRANCH   1  15
HETATM   15  N2  UNL     1      28.103  -2.309   7.081  1.00  0.00    -0.286 N
ATOM     16  H2  UNL     1      27.980  -3.204   6.608  1.00  0.00     0.188 HD
BRANCH  15  17
HETATM   17  N1  UNL     1      28.923  -2.340   8.193  1.00  0.00    -0.339 N
HETATM   18  C1  UNL     1      30.354  -2.093   8.104  1.00  0.00     0.167 C
ATOM     19  H1  UNL     1      28.512  -2.542   9.104  1.00  0.00     0.179 HD
ENDBRANCH  15  17
ENDBRANCH   1  15
TORSDOF 5
ENDMDL