MODEL 3
REMARK VINA RESULT: -5.129874146      0.955      1.860
REMARK  5 active torsions:
REMARK  status: ('A' for Active; 'I' for Inactive)
REMARK    1  A    between atoms: N1_1  and  C1_5
REMARK    2  A    between atoms: C1_5  and  C2_6
REMARK    3  A    between atoms: C2_6  and  N2_7
REMARK    4  A    between atoms: C2_6  and  C3_11
REMARK    5  A    between atoms: C3_11  and  N3_12
ROOT
HETATM    1  C3  UNL     1      26.919  -3.014   8.573  1.00  0.00     0.183 C
ENDROOT
BRANCH   1   2
HETATM    2  C2  UNL     1      26.389  -2.159   9.692  1.00  0.00     0.228 C
BRANCH   2   3
HETATM    3  C1  UNL     1      26.646  -2.753  11.052  1.00  0.00     0.264 C
BRANCH   3   4
HETATM    4  N1  UNL     1      25.944  -1.973  12.033  1.00  0.00    -0.077 N
ATOM      5  H13 UNL     1      25.903  -2.433  12.943  1.00  0.00     0.274 HD
ATOM      6  H12 UNL     1      26.466  -1.143  12.319  1.00  0.00     0.274 HD
ATOM      7  H11 UNL     1      25.019  -1.746  11.667  1.00  0.00     0.274 HD
ENDBRANCH   3   4
ENDBRANCH   2   3
BRANCH   2   8
HETATM    8  N2  UNL     1      24.960  -2.019   9.523  1.00  0.00    -0.072 N
ATOM      9  H23 UNL     1      24.714  -1.469   8.699  1.00  0.00     0.274 HD
ATOM     10  H22 UNL     1      24.510  -2.891   9.246  1.00  0.00     0.274 HD
ATOM     11  H21 UNL     1      24.574  -1.632  10.384  1.00  0.00     0.274 HD
ENDBRANCH   2   8
ENDBRANCH   1   2
BRANCH   1  12
HETATM   12  N3  UNL     1      27.486  -2.249   7.498  1.00  0.00    -0.254 N
HETATM   13  N4  UNL     1      28.651  -2.399   6.895  1.00  0.00    -0.017 NA
HETATM   14  N5  UNL     1      28.816  -1.494   5.945  1.00  0.00    -0.265 N
HETATM   15  C4  UNL     1      27.709  -0.707   5.913  1.00  0.00     0.180 A
ATOM     16  H5  UNL     1      29.632  -1.403   5.340  1.00  0.00     0.186 HD
HETATM   17  N6  UNL     1      26.805   0.237   5.607  1.00  0.00    -0.280 N
HETATM   18  C5  UNL     1      26.893  -1.202   6.895  1.00  0.00     0.183 A
HETATM   19  N7  UNL     1      26.014  -0.232   6.549  1.00  0.00    -0.280 N
ATOM     20  H6  UNL     1      26.751   0.997   4.930  1.00  0.00     0.188 HD
ATOM     21  H7  UNL     1      25.091   0.034   6.889  1.00  0.00     0.189 HD
ENDBRANCH   1  12
TORSDOF 5
ENDMDL