MODEL 3
REMARK VINA RESULT: -4.720428490      1.043      1.334
REMARK  5 active torsions:
REMARK  status: ('A' for Active; 'I' for Inactive)
REMARK    1  A    between atoms: C2_2  and  C3_3
REMARK    2  A    between atoms: C3_3  and  N1_4
REMARK    3  A    between atoms: C4_6  and  N2_7
REMARK    4  A    between atoms: N2_7  and  N3_9
REMARK    5  A    between atoms: N4_11  and  C5_13
ROOT
HETATM    1  N2  UNL     1      17.548  40.778  56.390  1.00  0.00    -0.282 N
ATOM      2  H2  UNL     1      16.889  40.013  56.247  1.00  0.00     0.189 HD
ENDROOT
BRANCH   1   3
HETATM    3  C4  UNL     1      17.048  42.105  56.417  1.00  0.00     0.194 C
HETATM    4  N1  UNL     1      16.379  42.528  55.414  1.00  0.00    -0.382 N
ATOM      5  H1  UNL     1      16.233  41.890  54.632  1.00  0.00     0.160 HD
BRANCH   4   6
HETATM    6  C3  UNL     1      15.817  43.855  55.319  1.00  0.00     0.147 C
BRANCH   6   7
HETATM    7  C2  UNL     1      15.954  44.464  53.991  1.00  0.00    -0.018 C
HETATM    8  C1  UNL     1      16.392  43.762  52.966  1.00  0.00     0.008 C
ENDBRANCH   6   7
ENDBRANCH   4   6
ENDBRANCH   1   3
BRANCH   1   9
HETATM    9  N3  UNL     1      18.901  40.470  56.549  1.00  0.00    -0.246 N
HETATM   10  N4  UNL     1      19.702  41.270  57.107  1.00  0.00    -0.317 N
ATOM     11  H4  UNL     1      19.360  42.165  57.455  1.00  0.00     0.182 HD
ATOM     12  H3  UNL     1      19.251  39.576  56.204  1.00  0.00     0.208 HD
BRANCH  10  13
HETATM   13  C5  UNL     1      21.101  40.928  57.260  1.00  0.00     0.101 A
HETATM   14  C6  UNL     1      22.120  42.009  56.888  1.00  0.00     0.029 A
HETATM   15  C7  UNL     1      21.952  40.854  55.998  1.00  0.00     0.029 A
ENDBRANCH  10  13
ENDBRANCH   1   9
TORSDOF 5
ENDMDL