MODEL 2
REMARK VINA RESULT: -3.797404715      2.635      4.405
REMARK  5 active torsions:
REMARK  status: ('A' for Active; 'I' for Inactive)
REMARK    1  A    between atoms: N2_4  and  C1_6
REMARK    2  A    between atoms: C3_8  and  C4_9
REMARK    3  A    between atoms: C3_8  and  C5_13
REMARK    4  A    between atoms: C5_13  and  C6_14
REMARK    5  A    between atoms: C6_14  and  C7_15
ROOT
HETATM    1  C1  UNL     1      18.204  40.675  54.064  1.00  0.00     0.113 A
HETATM    2  C2  UNL     1      17.492  39.582  54.844  1.00  0.00     0.045 A
HETATM    3  C3  UNL     1      17.913  40.843  55.506  1.00  0.00     0.015 A
ENDROOT
BRANCH   3   4
HETATM    4  C4  UNL     1      19.003  40.772  56.495  1.00  0.00     0.064 C
HETATM    5  N3  UNL     1      18.980  41.534  57.502  1.00  0.00    -0.410 N
ATOM      6  H32 UNL     1      18.206  42.188  57.615  1.00  0.00     0.155 HD
ATOM      7  H31 UNL     1      19.735  41.484  58.187  1.00  0.00     0.155 HD
ENDBRANCH   3   4
BRANCH   3   8
HETATM    8  C5  UNL     1      16.843  41.879  55.871  1.00  0.00     0.022 C
BRANCH   8   9
HETATM    9  C6  UNL     1      16.465  42.707  54.662  1.00  0.00     0.045 C
BRANCH   9  10
HETATM   10  C7  UNL     1      15.811  43.944  55.175  1.00  0.00     0.052 C
HETATM   11  N4  UNL     1      15.540  44.887  54.370  1.00  0.00    -0.411 N
ATOM     12  H42 UNL     1      15.775  44.784  53.383  1.00  0.00     0.155 HD
ATOM     13  H41 UNL     1      15.092  45.734  54.721  1.00  0.00     0.155 HD
ENDBRANCH   9  10
ENDBRANCH   8   9
ENDBRANCH   3   8
BRANCH   1  14
HETATM   14  N2  UNL     1      19.476  40.301  53.575  1.00  0.00    -0.337 N
HETATM   15  N1  UNL     1      19.861  40.365  52.407  1.00  0.00    -0.349 N
ATOM     16  H12 UNL     1      19.181  40.727  51.738  1.00  0.00     0.176 HD
ATOM     17  H11 UNL     1      20.779  40.095  52.054  1.00  0.00     0.176 HD
ATOM     18  H2  UNL     1      20.142  39.941  54.258  1.00  0.00     0.180 HD
ENDBRANCH   1  14
TORSDOF 5
ENDMDL