MODEL 3
REMARK VINA RESULT: -4.629383170      1.459      2.132
REMARK  6 active torsions:
REMARK  status: ('A' for Active; 'I' for Inactive)
REMARK    1  A    between atoms: C2_2  and  C3_3
REMARK    2  A    between atoms: C3_3  and  N1_4
REMARK    3  A    between atoms: N1_4  and  C4_7
REMARK    4  A    between atoms: C4_7  and  C5_8
REMARK    5  A    between atoms: N3_12  and  N4_14
REMARK    6  A    between atoms: N4_14  and  N5_16
ROOT
HETATM    1  C5  UNL     1      16.764  41.631  56.127  1.00  0.00     0.177 A
HETATM    2  N2  UNL     1      17.310  42.463  57.222  1.00  0.00    -0.364 N
ATOM      3  H2  UNL     1      17.230  43.279  57.830  1.00  0.00     0.161 HD
HETATM    4  C6  UNL     1      18.036  41.284  56.807  1.00  0.00     0.118 A
HETATM    5  N3  UNL     1      19.085  40.575  57.022  1.00  0.00    -0.273 N
ATOM      6  H3  UNL     1      19.756  40.836  57.744  1.00  0.00     0.190 HD
ENDROOT
BRANCH   1   7
HETATM    7  C4  UNL     1      16.874  42.280  54.773  1.00  0.00     0.265 C
BRANCH   7   8
HETATM    8  N1  UNL     1      15.662  42.986  54.404  1.00  0.00    -0.070 N
ATOM      9  H12 UNL     1      15.006  43.088  55.178  1.00  0.00     0.277 HD
ATOM     10  H11 UNL     1      15.055  42.443  53.789  1.00  0.00     0.277 HD
BRANCH   8  11
HETATM   11  C3  UNL     1      16.067  44.251  53.831  1.00  0.00     0.259 C
BRANCH  11  12
HETATM   12  C2  UNL     1      15.629  45.415  54.603  1.00  0.00    -0.010 C
HETATM   13  C1  UNL     1      14.827  45.265  55.641  1.00  0.00     0.008 C
ENDBRANCH  11  12
ENDBRANCH   8  11
ENDBRANCH   7   8
ENDBRANCH   1   7
BRANCH   5  14
HETATM   14  N4  UNL     1      19.281  39.430  56.234  1.00  0.00    -0.248 N
ATOM     15  H4  UNL     1      18.871  39.328  55.306  1.00  0.00     0.207 HD
BRANCH  14  16
HETATM   16  N5  UNL     1      20.016  38.520  56.768  1.00  0.00    -0.331 N
ATOM     17  H52 UNL     1      20.489  38.670  57.659  1.00  0.00     0.178 HD
ATOM     18  H51 UNL     1      20.086  37.653  56.235  1.00  0.00     0.178 HD
ENDBRANCH  14  16
ENDBRANCH   5  14
TORSDOF 6
ENDMDL