MODEL 5
REMARK VINA RESULT: -3.960474509      1.991      2.493
REMARK  6 active torsions:
REMARK  status: ('A' for Active; 'I' for Inactive)
REMARK    1  A    between atoms: C2_2  and  N1_3
REMARK    2  A    between atoms: N1_3  and  C3_4
REMARK    3  A    between atoms: N1_3  and  C4_6
REMARK    4  A    between atoms: C4_6  and  N2_7
REMARK    5  A    between atoms: N2_7  and  C5_9
REMARK    6  A    between atoms: N3_10  and  N4_12
ROOT
HETATM    1  N2  UNL     1      17.269  41.448  54.455  1.00  0.00    -0.372 N
ATOM      2  H2  UNL     1      17.086  41.548  53.456  1.00  0.00     0.161 HD
ENDROOT
BRANCH   1   3
HETATM    3  C4  UNL     1      16.687  42.352  55.399  1.00  0.00     0.225 C
BRANCH   3   4
HETATM    4  N1  UNL     1      15.874  43.373  54.792  1.00  0.00    -0.221 NA
BRANCH   4   5
HETATM    5  C2  UNL     1      15.577  44.480  55.582  1.00  0.00     0.059 C
HETATM    6  C1  UNL     1      15.225  45.618  55.014  1.00  0.00     0.024 C
ENDBRANCH   4   5
BRANCH   4   7
HETATM    7  C3  UNL     1      16.320  43.708  53.479  1.00  0.00     0.329 C
HETATM    8  O1  UNL     1      15.905  43.028  52.555  1.00  0.00    -0.289 OA
ENDBRANCH   4   7
ENDBRANCH   3   4
ENDBRANCH   1   3
BRANCH   1   9
HETATM    9  C5  UNL     1      18.105  40.411  54.941  1.00  0.00     0.193 C
HETATM   10  N3  UNL     1      17.840  39.186  54.653  1.00  0.00    -0.303 N
ATOM     11  H3  UNL     1      17.025  38.979  54.075  1.00  0.00     0.187 HD
BRANCH  10  12
HETATM   12  N4  UNL     1      18.635  38.132  55.109  1.00  0.00    -0.344 N
ATOM     13  H42 UNL     1      19.631  38.154  54.891  1.00  0.00     0.176 HD
ATOM     14  H41 UNL     1      18.245  37.356  55.645  1.00  0.00     0.176 HD
ENDBRANCH  10  12
ENDBRANCH   1   9
TORSDOF 6
ENDMDL