MODEL 2
REMARK VINA RESULT: -4.148731280      2.138      4.604
REMARK  5 active torsions:
REMARK  status: ('A' for Active; 'I' for Inactive)
REMARK    1  A    between atoms: N2_4  and  N3_6
REMARK    2  A    between atoms: C1_8  and  N4_9
REMARK    3  A    between atoms: C4_12  and  C5_13
REMARK    4  A    between atoms: C5_13  and  N5_14
REMARK    5  A    between atoms: N5_14  and  C6_16
ROOT
HETATM    1  N4  UNL     1      15.901  43.643  55.484  1.00  0.00    -0.319 N
HETATM    2  C2  UNL     1      15.343  44.803  56.055  1.00  0.00     0.100 A
HETATM    3  C3  UNL     1      15.478  45.372  54.728  1.00  0.00     0.045 A
HETATM    4  C4  UNL     1      15.987  44.277  54.254  1.00  0.00     0.036 A
ENDROOT
BRANCH   1   5
HETATM    5  C1  UNL     1      16.244  42.343  55.951  1.00  0.00     0.206 C
HETATM    6  N3  UNL     1      17.391  41.861  55.635  1.00  0.00    -0.282 N
ATOM      7  H3  UNL     1      18.021  42.423  55.062  1.00  0.00     0.189 HD
BRANCH   6   8
HETATM    8  N2  UNL     1      17.807  40.593  56.052  1.00  0.00    -0.248 N
HETATM    9  N1  UNL     1      17.734  39.583  55.289  1.00  0.00    -0.331 N
ATOM     10  H12 UNL     1      17.359  39.717  54.349  1.00  0.00     0.178 HD
ATOM     11  H11 UNL     1      18.037  38.657  55.593  1.00  0.00     0.178 HD
ATOM     12  H2  UNL     1      18.180  40.477  56.995  1.00  0.00     0.207 HD
ENDBRANCH   6   8
ENDBRANCH   1   5
BRANCH   4  13
HETATM   13  C5  UNL     1      16.484  43.852  52.888  1.00  0.00     0.179 C
BRANCH  13  14
HETATM   14  N5  UNL     1      15.902  42.604  52.499  1.00  0.00    -0.363 N
ATOM     15  H5  UNL     1      14.889  42.481  52.510  1.00  0.00     0.162 HD
BRANCH  14  16
HETATM   16  C6  UNL     1      16.745  41.541  52.100  1.00  0.00     0.348 C
HETATM   17  O1  UNL     1      17.687  41.122  52.827  1.00  0.00    -0.284 OA
ENDBRANCH  14  16
ENDBRANCH  13  14
ENDBRANCH   4  13
TORSDOF 5
ENDMDL