MODEL 2
REMARK VINA RESULT: -4.532875439      2.194      2.537
REMARK  5 active torsions:
REMARK  status: ('A' for Active; 'I' for Inactive)
REMARK    1  A    between atoms: N2_4  and  N3_6
REMARK    2  A    between atoms: C1_8  and  C2_9
REMARK    3  A    between atoms: C3_13  and  C4_14
REMARK    4  A    between atoms: C4_14  and  C5_15
REMARK    5  A    between atoms: C5_15  and  C6_16
ROOT
HETATM    1  C2  UNL     1      17.442  41.969  56.331  1.00  0.00     0.256 A
HETATM    2  N4  UNL     1      16.323  41.168  55.942  1.00  0.00    -0.058 N
ATOM      3  H41 UNL     1      15.657  40.562  56.421  1.00  0.00     0.278 HD
ATOM      4  H42 UNL     1      16.192  40.300  55.421  1.00  0.00     0.278 HD
HETATM    5  C3  UNL     1      16.390  42.615  55.600  1.00  0.00     0.222 A
ENDROOT
BRANCH   1   6
HETATM    6  C1  UNL     1      17.607  42.291  57.772  1.00  0.00     0.116 C
HETATM    7  N3  UNL     1      17.351  43.474  58.219  1.00  0.00    -0.300 N
ATOM      8  H3  UNL     1      17.031  44.180  57.556  1.00  0.00     0.187 HD
BRANCH   7   9
HETATM    9  N2  UNL     1      17.485  43.838  59.548  1.00  0.00    -0.250 N
HETATM   10  N1  UNL     1      17.511  45.053  59.902  1.00  0.00    -0.331 N
ATOM     11  H12 UNL     1      17.430  45.767  59.179  1.00  0.00     0.178 HD
ATOM     12  H11 UNL     1      17.610  45.321  60.881  1.00  0.00     0.178 HD
ATOM     13  H2  UNL     1      17.565  43.110  60.259  1.00  0.00     0.207 HD
ENDBRANCH   7   9
ENDBRANCH   1   6
BRANCH   5  14
HETATM   14  C4  UNL     1      16.382  42.851  54.124  1.00  0.00     0.041 C
BRANCH  14  15
HETATM   15  C5  UNL     1      16.013  44.293  53.850  1.00  0.00     0.046 C
BRANCH  15  16
HETATM   16  C6  UNL     1      15.551  44.897  55.124  1.00  0.00     0.052 C
HETATM   17  N5  UNL     1      14.513  45.632  55.155  1.00  0.00    -0.411 N
ATOM     18  H52 UNL     1      14.004  45.798  54.287  1.00  0.00     0.155 HD
ATOM     19  H51 UNL     1      14.195  46.047  56.032  1.00  0.00     0.155 HD
ENDBRANCH  15  16
ENDBRANCH  14  15
ENDBRANCH   5  14
TORSDOF 5
ENDMDL