MODEL 2
REMARK VINA RESULT: -4.604197421      0.873      1.250
REMARK  5 active torsions:
REMARK  status: ('A' for Active; 'I' for Inactive)
REMARK    1  A    between atoms: C2_2  and  C3_3
REMARK    2  A    between atoms: N1_4  and  C4_6
REMARK    3  A    between atoms: C4_6  and  N2_7
REMARK    4  A    between atoms: N2_7  and  N3_8
REMARK    5  A    between atoms: N3_8  and  C5_10
ROOT
HETATM    1  N2  UNL     1      17.954  41.861  57.027  1.00  0.00    -0.121 NA
ENDROOT
BRANCH   1   2
HETATM    2  C4  UNL     1      16.887  41.790  56.040  1.00  0.00     0.255 C
BRANCH   2   3
HETATM    3  N1  UNL     1      16.364  43.133  55.800  1.00  0.00    -0.384 N
HETATM    4  C3  UNL     1      16.183  43.554  54.612  1.00  0.00     0.083 C
ATOM      5  H1  UNL     1      16.141  43.738  56.591  1.00  0.00     0.160 HD
BRANCH   4   6
HETATM    6  C2  UNL     1      15.664  44.884  54.370  1.00  0.00     0.006 C
HETATM    7  C1  UNL     1      15.093  45.648  55.268  1.00  0.00     0.012 C
ENDBRANCH   4   6
ENDBRANCH   2   3
ENDBRANCH   1   2
BRANCH   1   8
HETATM    8  N3  UNL     1      18.662  40.658  56.933  1.00  0.00    -0.299 N
ATOM      9  H3  UNL     1      18.155  39.775  56.883  1.00  0.00     0.183 HD
BRANCH   8  10
HETATM   10  C5  UNL     1      20.084  40.658  56.907  1.00  0.00     0.191 C
HETATM   11  N4  UNL     1      20.706  40.356  55.824  1.00  0.00    -0.385 N
HETATM   12  C6  UNL     1      19.983  40.017  54.633  1.00  0.00     0.149 C
HETATM   13  C7  UNL     1      22.161  40.356  55.800  1.00  0.00     0.149 C
ENDBRANCH   8  10
ENDBRANCH   1   8
TORSDOF 5
ENDMDL