MODEL 1
REMARK VINA RESULT: -4.110185826      0.000      0.000
REMARK  6 active torsions:
REMARK  status: ('A' for Active; 'I' for Inactive)
REMARK    1  A    between atoms: N1_1  and  C1_5
REMARK    2  A    between atoms: C1_5  and  C2_6
REMARK    3  A    between atoms: C2_6  and  N2_7
REMARK    4  A    between atoms: N2_7  and  C3_9
REMARK    5  A    between atoms: C3_9  and  C4_10
REMARK    6  A    between atoms: N3_11  and  C5_13
ROOT
HETATM    1  C3  UNL     1      16.713  41.515  56.267  1.00  0.00     0.163 C
ENDROOT
BRANCH   1   2
HETATM    2  N2  UNL     1      16.475  42.773  55.651  1.00  0.00    -0.396 N
ATOM      3  H2  UNL     1      16.386  43.618  56.215  1.00  0.00     0.159 HD
BRANCH   2   4
HETATM    4  C2  UNL     1      16.365  42.834  54.250  1.00  0.00     0.082 C
BRANCH   4   5
HETATM    5  C1  UNL     1      16.118  44.160  53.602  1.00  0.00     0.273 C
BRANCH   5   6
HETATM    6  N1  UNL     1      15.541  45.130  54.482  1.00  0.00    -0.075 N
ATOM      7  H13 UNL     1      16.092  45.214  55.337  1.00  0.00     0.274 HD
ATOM      8  H12 UNL     1      15.662  46.072  54.108  1.00  0.00     0.274 HD
ATOM      9  H11 UNL     1      14.560  44.953  54.701  1.00  0.00     0.274 HD
ENDBRANCH   5   6
ENDBRANCH   4   5
ENDBRANCH   2   4
ENDBRANCH   1   2
BRANCH   1  10
HETATM   10  C4  UNL     1      18.060  40.959  55.847  1.00  0.00     0.081 C
HETATM   11  N3  UNL     1      18.772  40.497  56.776  1.00  0.00    -0.363 N
ATOM     12  H3  UNL     1      18.378  40.535  57.716  1.00  0.00     0.165 HD
BRANCH  11  13
HETATM   13  C5  UNL     1      20.052  39.936  56.654  1.00  0.00     0.200 C
HETATM   14  N4  UNL     1      21.106  40.644  56.993  1.00  0.00    -0.284 N
HETATM   15  C6  UNL     1      22.500  40.414  57.005  1.00  0.00     0.195 A
HETATM   16  N5  UNL     1      21.309  41.906  57.468  1.00  0.00    -0.311 N
HETATM   17  C7  UNL     1      22.557  41.769  57.506  1.00  0.00     0.102 A
ATOM     18  H5  UNL     1      20.682  42.674  57.705  1.00  0.00     0.186 HD
ENDBRANCH  11  13
ENDBRANCH   1  10
TORSDOF 6
ENDMDL