MODEL 1
REMARK VINA RESULT: -4.727151445      0.000      0.000
REMARK  5 active torsions:
REMARK  status: ('A' for Active; 'I' for Inactive)
REMARK    1  A    between atoms: N2_4  and  N3_6
REMARK    2  A    between atoms: C1_8  and  N4_9
REMARK    3  A    between atoms: N4_9  and  C2_11
REMARK    4  A    between atoms: C2_11  and  C3_12
REMARK    5  A    between atoms: C3_12  and  N5_13
ROOT
HETATM    1  N4  UNL     1      18.541  41.908  57.658  1.00  0.00    -0.383 N
ATOM      2  H4  UNL     1      19.012  42.390  58.422  1.00  0.00     0.160 HD
ENDROOT
BRANCH   1   3
HETATM    3  C1  UNL     1      19.252  40.903  56.950  1.00  0.00     0.194 C
HETATM    4  N3  UNL     1      20.535  40.912  56.987  1.00  0.00    -0.283 N
ATOM      5  H3  UNL     1      21.063  40.198  56.485  1.00  0.00     0.189 HD
BRANCH   4   6
HETATM    6  N2  UNL     1      21.212  41.899  57.717  1.00  0.00    -0.248 N
HETATM    7  N1  UNL     1      22.464  41.871  57.750  1.00  0.00    -0.331 N
ATOM      8  H12 UNL     1      22.966  41.137  57.251  1.00  0.00     0.178 HD
ATOM      9  H11 UNL     1      22.956  42.589  58.281  1.00  0.00     0.178 HD
ATOM     10  H2  UNL     1      20.696  42.626  58.211  1.00  0.00     0.207 HD
ENDBRANCH   4   6
ENDBRANCH   1   3
BRANCH   1  11
HETATM   11  C2  UNL     1      17.181  42.277  57.344  1.00  0.00     0.140 C
BRANCH  11  12
HETATM   12  C3  UNL     1      16.798  41.817  55.951  1.00  0.00     0.148 C
BRANCH  12  13
HETATM   13  N5  UNL     1      16.372  42.945  55.147  1.00  0.00    -0.350 N
HETATM   14  C4  UNL     1      15.856  44.104  55.619  1.00  0.00     0.108 A
HETATM   15  C5  UNL     1      15.595  44.877  54.509  1.00  0.00     0.106 A
HETATM   16  N6  UNL     1      15.942  44.214  53.388  1.00  0.00    -0.361 N
HETATM   17  C6  UNL     1      16.414  43.033  53.810  1.00  0.00     0.182 A
ATOM     18  H6  UNL     1      15.863  44.541  52.425  1.00  0.00     0.166 HD
ENDBRANCH  12  13
ENDBRANCH  11  12
ENDBRANCH   1  11
TORSDOF 5
ENDMDL