MODEL 3
REMARK VINA RESULT: -4.108654330      2.506      5.451
REMARK  5 active torsions:
REMARK  status: ('A' for Active; 'I' for Inactive)
REMARK    1  A    between atoms: N2_4  and  N3_6
REMARK    2  A    between atoms: C1_8  and  C2_9
REMARK    3  A    between atoms: C4_11  and  C5_12
REMARK    4  A    between atoms: C5_12  and  N4_13
REMARK    5  A    between atoms: N4_13  and  C6_15
ROOT
HETATM    1  C2  UNL     1      17.135  42.104  55.371  1.00  0.00     0.032 A
HETATM    2  C3  UNL     1      16.607  40.768  55.982  1.00  0.00     0.017 A
HETATM    3  C4  UNL     1      17.666  41.618  56.675  1.00  0.00     0.013 A
ENDROOT
BRANCH   1   4
HETATM    4  C1  UNL     1      16.152  43.213  55.367  1.00  0.00     0.086 C
HETATM    5  N3  UNL     1      16.066  43.988  54.346  1.00  0.00    -0.301 N
ATOM      6  H3  UNL     1      16.679  43.832  53.546  1.00  0.00     0.187 HD
BRANCH   5   7
HETATM    7  N2  UNL     1      15.165  45.023  54.313  1.00  0.00    -0.250 N
HETATM    8  N1  UNL     1      14.611  45.437  55.361  1.00  0.00    -0.331 N
ATOM      9  H12 UNL     1      14.847  44.985  56.244  1.00  0.00     0.178 HD
ATOM     10  H11 UNL     1      13.941  46.206  55.336  1.00  0.00     0.178 HD
ATOM     11  H2  UNL     1      14.941  45.463  53.420  1.00  0.00     0.207 HD
ENDBRANCH   5   7
ENDBRANCH   1   4
BRANCH   3  12
HETATM   12  C5  UNL     1      19.017  40.984  56.767  1.00  0.00     0.127 C
BRANCH  12  13
HETATM   13  N4  UNL     1      19.973  41.790  57.482  1.00  0.00    -0.368 N
ATOM     14  H4  UNL     1      19.638  42.451  58.182  1.00  0.00     0.161 HD
BRANCH  13  15
HETATM   15  C6  UNL     1      21.361  41.688  57.240  1.00  0.00     0.348 C
HETATM   16  O1  UNL     1      21.789  41.264  56.116  1.00  0.00    -0.284 OA
ENDBRANCH  13  15
ENDBRANCH  12  13
ENDBRANCH   3  12
TORSDOF 5
ENDMDL