MODEL 5
REMARK VINA RESULT: -7.354940414      1.926      4.649
REMARK  3 active torsions:
REMARK  status: ('A' for Active; 'I' for Inactive)
REMARK    1  A    between atoms: C5_5  and  O1_6
REMARK    2  A    between atoms: C6_8  and  O2_9
REMARK    3  A    between atoms: O2_9  and  O3_10
ROOT
HETATM    1  C1  UNL     1       8.072 -14.568  14.432  1.00  0.00     0.019 C
HETATM    2  C2  UNL     1       7.949 -13.085  14.142  1.00  0.00     0.004 C
HETATM    3  C3  UNL     1       6.701 -12.615  14.905  1.00  0.00     0.015 C
HETATM    4  C4  UNL     1       5.646 -13.361  14.074  1.00  0.00     0.036 C
HETATM    5  C5  UNL     1       6.063 -12.847  12.687  1.00  0.00     0.161 C
HETATM    6  C6  UNL     1       7.592 -12.808  12.742  1.00  0.00     0.153 C
HETATM    7  C7  UNL     1       7.987 -11.464  12.244  1.00  0.00    -0.029 C
HETATM    8  C8  UNL     1       8.715 -10.626  12.972  1.00  0.00    -0.007 C
HETATM    9  C9  UNL     1       9.071  -9.285  12.393  1.00  0.00     0.042 C
HETATM   10  C10 UNL     1       9.407  -9.585  10.926  1.00  0.00     0.005 C
HETATM   11  C11 UNL     1       8.110  -9.930  10.269  1.00  0.00     0.005 C
HETATM   12  C12 UNL     1       7.500 -11.142  10.876  1.00  0.00     0.038 C
HETATM   13  C13 UNL     1       9.165 -10.990  14.305  1.00  0.00     0.156 C
HETATM   14  O4  UNL     1       9.580 -10.124  15.109  1.00  0.00    -0.293 OA
HETATM   15  C14 UNL     1       9.128 -12.399  14.700  1.00  0.00     0.096 C
ENDROOT
BRANCH   6  16
HETATM   16  O2  UNL     1       8.041 -13.741  11.824  1.00  0.00    -0.224 OA
BRANCH  16  17
HETATM   17  O3  UNL     1       9.327 -13.621  11.573  1.00  0.00    -0.249 OA
ATOM     18  H3  UNL     1       9.777 -14.458  11.571  1.00  0.00     0.253 HD
ENDBRANCH  16  17
ENDBRANCH   6  16
BRANCH   5  19
HETATM   19  O1  UNL     1       5.595 -13.641  11.677  1.00  0.00    -0.392 OA
ATOM     20  H1  UNL     1       6.134 -13.587  10.897  1.00  0.00     0.210 HD
ENDBRANCH   5  19
TORSDOF 3
ENDMDL