MODEL 2
REMARK VINA RESULT: -7.254974549      1.187      1.200
REMARK  2 active torsions:
REMARK  status: ('A' for Active; 'I' for Inactive)
REMARK    1  A    between atoms: C2_2  and  C4_4
REMARK    2  A    between atoms: N1_10  and  O1_12
ROOT
HETATM    1  C4  UNL     1       8.433 -11.625  11.168  1.00  0.00     0.041 C
HETATM    2  C5  UNL     1       7.598 -10.399  11.546  1.00  0.00     0.016 C
HETATM    3  C6  UNL     1       6.838 -10.780  12.804  1.00  0.00    -0.006 C
HETATM    4  C7  UNL     1       5.452 -10.180  12.830  1.00  0.00     0.011 C
HETATM    5  C8  UNL     1       6.754 -12.288  12.744  1.00  0.00     0.064 C
HETATM    6  C9  UNL     1       6.570 -12.809  14.105  1.00  0.00     0.016 C
HETATM    7  N1  UNL     1       5.495 -12.490  14.718  1.00  0.00    -0.277 N
ATOM      8  H1  UNL     1       4.828 -11.892  14.228  1.00  0.00     0.193 HD
HETATM    9  C10 UNL     1       7.547 -13.672  14.801  1.00  0.00     0.062 C
HETATM   10  C11 UNL     1       8.958 -13.405  14.307  1.00  0.00     0.086 C
HETATM   11  C12 UNL     1       8.994 -13.414  12.838  1.00  0.00     0.148 C
HETATM   12  O2  UNL     1       9.945 -14.018  12.314  1.00  0.00    -0.296 OA
HETATM   13  C13 UNL     1       7.975 -12.757  12.026  1.00  0.00     0.095 C
HETATM   14  S1  UNL     1       7.351 -14.074  10.864  1.00  0.00    -0.077 SA
ENDROOT
BRANCH   7  15
HETATM   15  O1  UNL     1       5.178 -12.894  15.986  1.00  0.00    -0.290 OA
ATOM     16  H1  UNL     1       4.299 -12.888  16.348  1.00  0.00     0.244 HD
ENDBRANCH   7  15
BRANCH   1  17
HETATM   17  C2  UNL     1       9.869 -11.307  11.213  1.00  0.00    -0.087 C
HETATM   18  C1  UNL     1      10.667 -11.702  10.246  1.00  0.00     0.014 C
HETATM   19  C3  UNL     1      10.433 -10.506  12.321  1.00  0.00     0.043 C
ENDBRANCH   1  17
TORSDOF 2
ENDMDL