MODEL 4
REMARK VINA RESULT: -6.562411796      1.350      1.557
REMARK  2 active torsions:
REMARK  status: ('A' for Active; 'I' for Inactive)
REMARK    1  A    between atoms: N1_1  and  C1_4
REMARK    2  A    between atoms: C2_7  and  C3_8
ROOT
HETATM    1  C3  UNL     1       5.900 -11.888  12.566  1.00  0.00     0.099 C
HETATM    2  C4  UNL     1       6.752 -12.741  11.633  1.00  0.00     0.023 C
HETATM    3  C5  UNL     1       7.376 -11.747  10.708  1.00  0.00     0.027 C
HETATM    4  C6  UNL     1       8.184 -10.785  11.549  1.00  0.00     0.040 C
HETATM    5  C7  UNL     1       9.574 -11.283  11.816  1.00  0.00     0.027 C
HETATM    6  C8  UNL     1      10.373 -11.114  10.542  1.00  0.00     0.021 C
HETATM    7  C9  UNL     1      10.430  -9.645  10.252  1.00  0.00     0.119 C
HETATM    8  N3  UNL     1       9.143  -9.111  10.015  1.00  0.00    -0.401 N
ATOM      9  H3  UNL     1       8.958  -8.513   9.210  1.00  0.00     0.158 HD
HETATM   10  C10 UNL     1       8.126  -9.438  10.934  1.00  0.00     0.076 C
HETATM   11  S1  UNL     1       7.196 -10.722  13.089  1.00  0.00    -0.142 SA
ENDROOT
BRANCH   1  12
HETATM   12  C2  UNL     1       5.411 -12.709  13.726  1.00  0.00     0.031 A
HETATM   13  N2  UNL     1       4.315 -12.409  14.393  1.00  0.00    -0.339 N
HETATM   14  C1  UNL     1       3.966 -13.200  15.407  1.00  0.00     0.142 A
ATOM     15  H2  UNL     1       3.752 -11.598  14.141  1.00  0.00     0.168 HD
HETATM   16  S2  UNL     1       5.184 -14.386  15.437  1.00  0.00    -0.064 SA
HETATM   17  C11 UNL     1       6.111 -13.813  14.125  1.00  0.00     0.079 A
BRANCH  14  18
HETATM   18  N1  UNL     1       2.917 -13.075  16.193  1.00  0.00    -0.380 N
ATOM     19  H12 UNL     1       2.188 -12.361  16.177  1.00  0.00     0.158 HD
ATOM     20  H11 UNL     1       2.647 -13.683  16.967  1.00  0.00     0.158 HD
ENDBRANCH  14  18
ENDBRANCH   1  12
TORSDOF 2
ENDMDL