MODEL 3
REMARK VINA RESULT: -6.578531014      2.162      5.310
REMARK  4 active torsions:
REMARK  status: ('A' for Active; 'I' for Inactive)
REMARK    1  A    between atoms: C4_5  and  C6_8
REMARK    2  A    between atoms: N2_14  and  C12_15
REMARK    3  A    between atoms: C12_15  and  O1_16
REMARK    4  A    between atoms: C12_15  and  O2_18
ROOT
HETATM    1  C1  UNL     1       9.493 -13.150  10.799  1.00  0.00     0.068 C
HETATM    2  C2  UNL     1       8.765 -13.253  12.112  1.00  0.00     0.016 C
HETATM    3  C3  UNL     1       9.456 -13.205  13.228  1.00  0.00     0.073 C
HETATM    4  S1  UNL     1       8.330 -13.348  14.602  1.00  0.00    -0.092 SA
HETATM    5  C4  UNL     1       6.837 -13.109  13.546  1.00  0.00     0.182 C
HETATM    6  C5  UNL     1       6.432 -11.708  13.566  1.00  0.00     0.103 C
HETATM    7  N1  UNL     1       6.120 -10.596  13.584  1.00  0.00    -0.194 NA
HETATM    8  N2  UNL     1       7.362 -13.408  12.270  1.00  0.00    -0.304 N
ENDROOT
BRANCH   5   9
HETATM    9  C6  UNL     1       5.793 -13.920  14.169  1.00  0.00     0.040 C
HETATM   10  C7  UNL     1       6.184 -15.337  14.498  1.00  0.00     0.009 C
HETATM   11  C8  UNL     1       5.133 -16.055  15.292  1.00  0.00     0.001 C
HETATM   12  C9  UNL     1       4.678 -15.297  16.508  1.00  0.00     0.000 C
HETATM   13  C10 UNL     1       4.368 -13.854  16.154  1.00  0.00     0.001 C
HETATM   14  C11 UNL     1       5.610 -13.273  15.571  1.00  0.00     0.009 C
ENDBRANCH   5   9
BRANCH   8  15
HETATM   15  C12 UNL     1       6.538 -13.843  11.157  1.00  0.00     0.370 C
BRANCH  15  16
HETATM   16  O1  UNL     1       5.216 -13.494  11.247  1.00  0.00    -0.354 OA
ATOM     17  H1  UNL     1       4.737 -13.917  11.950  1.00  0.00     0.214 HD
ENDBRANCH  15  16
BRANCH  15  18
HETATM   18  O2  UNL     1       6.569 -15.219  11.022  1.00  0.00    -0.354 OA
ATOM     19  H2  UNL     1       6.691 -15.471  10.114  1.00  0.00     0.214 HD
ENDBRANCH  15  18
ENDBRANCH   8  15
TORSDOF 4
ENDMDL