MODEL 3
REMARK VINA RESULT: -7.259916576      4.133      6.380
REMARK  3 active torsions:
REMARK  status: ('A' for Active; 'I' for Inactive)
REMARK    1  A    between atoms: O1_1  and  C1_3
REMARK    2  A    between atoms: C4_6  and  O2_7
REMARK    3  A    between atoms: N1_9  and  C5_10
ROOT
HETATM    1  C1  UNL     1       8.184 -12.541  11.863  1.00  0.00     0.153 A
HETATM    2  C2  UNL     1       8.626 -11.267  11.589  1.00  0.00     0.008 A
HETATM    3  C3  UNL     1       7.939 -10.401  12.426  1.00  0.00     0.008 A
HETATM    4  C4  UNL     1       7.093 -11.143  13.197  1.00  0.00     0.153 A
HETATM    5  N1  UNL     1       7.261 -12.432  12.836  1.00  0.00    -0.280 N
HETATM    6  C9  UNL     1       8.315  -8.969  12.244  1.00  0.00     0.024 C
HETATM    7  C10 UNL     1       8.070  -8.660  10.774  1.00  0.00     0.010 C
HETATM    8  C11 UNL     1       8.874  -9.536   9.877  1.00  0.00     0.010 C
HETATM    9  C12 UNL     1       9.600 -10.631  10.671  1.00  0.00     0.024 C
HETATM   10  C13 UNL     1      10.564  -9.851  11.577  1.00  0.00     0.010 C
HETATM   11  C14 UNL     1       9.824  -8.906  12.463  1.00  0.00     0.010 C
ENDROOT
BRANCH   5  12
HETATM   12  C5  UNL     1       6.538 -13.537  13.425  1.00  0.00     0.232 C
HETATM   13  C6  UNL     1       7.343 -14.241  14.503  1.00  0.00     0.056 C
HETATM   14  C7  UNL     1       6.612 -15.573  14.592  1.00  0.00     0.031 C
HETATM   15  C8  UNL     1       5.709 -15.526  13.376  1.00  0.00     0.170 C
HETATM   16  O3  UNL     1       6.311 -14.572  12.527  1.00  0.00    -0.366 OA
ENDBRANCH   5  12
BRANCH   1  17
HETATM   17  O1  UNL     1       8.616 -13.713  11.246  1.00  0.00    -0.345 OA
ATOM     18  H1  UNL     1       8.531 -14.593  11.592  1.00  0.00     0.219 HD
ENDBRANCH   1  17
BRANCH   4  19
HETATM   19  O2  UNL     1       6.242 -10.616  14.154  1.00  0.00    -0.345 OA
ATOM     20  H2  UNL     1       6.105 -10.993  15.015  1.00  0.00     0.219 HD
ENDBRANCH   4  19
TORSDOF 3
ENDMDL