MODEL 2
REMARK VINA RESULT: -6.743087134      3.454      4.549
REMARK  2 active torsions:
REMARK  status: ('A' for Active; 'I' for Inactive)
REMARK    1  A    between atoms: S1_2  and  C2_3
REMARK    2  A    between atoms: C12_14  and  O1_15
ROOT
HETATM    1  C2  UNL     1       9.543 -10.635  12.017  1.00  0.00     0.016 A
HETATM    2  C3  UNL     1       9.844  -9.342  11.685  1.00  0.00     0.071 A
HETATM    3  S2  UNL     1       8.340  -8.552  11.759  1.00  0.00    -0.083 SA
HETATM    4  C4  UNL     1       7.354  -9.873  12.211  1.00  0.00     0.080 A
HETATM    5  C5  UNL     1       8.238 -10.906  12.292  1.00  0.00    -0.003 A
HETATM    6  C6  UNL     1       7.685 -12.274  12.693  1.00  0.00     0.031 C
HETATM    7  C7  UNL     1       8.595 -12.957  13.677  1.00  0.00     0.010 C
HETATM    8  C8  UNL     1       7.897 -13.628  14.812  1.00  0.00     0.001 C
HETATM    9  C9  UNL     1       6.591 -14.269  14.481  1.00  0.00     0.001 C
HETATM   10  C10 UNL     1       5.791 -13.540  13.432  1.00  0.00     0.010 C
HETATM   11  C11 UNL     1       6.371 -12.119  13.362  1.00  0.00     0.043 C
HETATM   12  C12 UNL     1       5.342 -11.324  12.576  1.00  0.00     0.223 C
HETATM   13  N1  UNL     1       5.929 -10.003  12.466  1.00  0.00    -0.357 N
ATOM     14  H1  UNL     1       5.347  -9.171  12.566  1.00  0.00     0.162 HD
ENDROOT
BRANCH   1  15
HETATM   15  S1  UNL     1      10.912 -11.860  12.041  1.00  0.00    -0.133 SA
HETATM   16  C1  UNL     1      10.921 -12.773  10.489  1.00  0.00     0.095 C
ENDBRANCH   1  15
BRANCH  12  17
HETATM   17  O1  UNL     1       4.162 -11.308  13.272  1.00  0.00    -0.376 OA
ATOM     18  H1  UNL     1       3.743 -10.464  13.155  1.00  0.00     0.212 HD
ENDBRANCH  12  17
TORSDOF 2
ENDMDL