MODEL 5
REMARK VINA RESULT: -7.260796508      2.988      5.092
REMARK  2 active torsions:
REMARK  status: ('A' for Active; 'I' for Inactive)
REMARK    1  A    between atoms: C3_4  and  C4_5
REMARK    2  A    between atoms: C7_9  and  O2_10
ROOT
HETATM    1  N1  UNL     1       9.130 -13.990  10.724  1.00  0.00    -0.197 NA
HETATM    2  C1  UNL     1       9.173 -13.210  11.592  1.00  0.00     0.067 C
HETATM    3  C2  UNL     1       9.197 -12.290  12.680  1.00  0.00     0.129 C
HETATM    4  C3  UNL     1       9.982 -11.030  12.479  1.00  0.00     0.048 C
HETATM    5  C8  UNL     1      11.396 -11.558  12.263  1.00  0.00     0.055 C
HETATM    6  C9  UNL     1      11.835 -12.065  13.636  1.00  0.00     0.057 C
HETATM    7  N2  UNL     1      10.912 -12.777  14.387  1.00  0.00    -0.392 N
ATOM      8  H2  UNL     1      11.225 -13.247  15.236  1.00  0.00     0.159 HD
HETATM    9  C10 UNL     1       9.575 -12.870  14.020  1.00  0.00     0.046 C
HETATM   10  C11 UNL     1       9.121 -14.323  14.067  1.00  0.00     0.032 C
HETATM   11  C12 UNL     1       7.680 -14.281  14.492  1.00  0.00     0.002 C
HETATM   12  C13 UNL     1       7.374 -12.923  15.024  1.00  0.00     0.002 C
HETATM   13  C14 UNL     1       8.706 -12.202  15.069  1.00  0.00     0.032 C
ENDROOT
BRANCH   4  14
HETATM   14  C4  UNL     1       9.444 -10.224  11.386  1.00  0.00     0.008 A
HETATM   15  C5  UNL     1       9.937 -10.082  10.114  1.00  0.00     0.037 A
HETATM   16  C6  UNL     1       9.099  -9.142   9.463  1.00  0.00     0.145 A
HETATM   17  O1  UNL     1       8.192  -8.762  10.309  1.00  0.00    -0.300 OA
HETATM   18  C7  UNL     1       8.337  -9.358  11.443  1.00  0.00     0.189 A
BRANCH  18  19
HETATM   19  O2  UNL     1       7.566  -9.226  12.585  1.00  0.00    -0.340 OA
ATOM     20  H2  UNL     1       7.840  -9.581  13.423  1.00  0.00     0.220 HD
ENDBRANCH  18  19
ENDBRANCH   4  14
TORSDOF 2
ENDMDL