MODEL 4
REMARK VINA RESULT: -6.621274262      0.803      1.571
REMARK  5 active torsions:
REMARK  status: ('A' for Active; 'I' for Inactive)
REMARK    1  A    between atoms: O1_1  and  N1_3
REMARK    2  A    between atoms: C1_5  and  N2_6
REMARK    3  A    between atoms: C1_5  and  O2_13
REMARK    4  A    between atoms: N2_6  and  C2_8
REMARK    5  A    between atoms: O2_13  and  C6_14
ROOT
HETATM    1  N1  UNL     1       5.173 -10.368  12.732  1.00  0.00    -0.232 N
ATOM      2  H1  UNL     1       4.976  -9.604  12.086  1.00  0.00     0.198 HD
HETATM    3  C1  UNL     1       6.226 -10.303  13.468  1.00  0.00     0.245 C
ENDROOT
BRANCH   3   4
HETATM    4  N2  UNL     1       7.121  -9.180  13.397  1.00  0.00    -0.315 N
ATOM      5  H2  UNL     1       7.041  -8.404  14.053  1.00  0.00     0.170 HD
BRANCH   4   6
HETATM    6  C2  UNL     1       8.138  -9.180  12.370  1.00  0.00     0.076 A
HETATM    7  C3  UNL     1       7.955  -9.071  11.016  1.00  0.00     0.038 A
HETATM    8  C4  UNL     1       9.058  -9.095  10.245  1.00  0.00     0.010 A
HETATM    9  C5  UNL     1      10.263  -9.225  10.873  1.00  0.00     0.052 A
HETATM   10  S1  UNL     1       9.832  -9.311  12.517  1.00  0.00    -0.084 SA
ENDBRANCH   4   6
ENDBRANCH   3   4
BRANCH   3  11
HETATM   11  O2  UNL     1       6.500 -11.314  14.332  1.00  0.00    -0.308 OA
BRANCH  11  12
HETATM   12  C6  UNL     1       7.012 -12.575  13.848  1.00  0.00     0.079 A
HETATM   13  C7  UNL     1       7.840 -12.502  12.683  1.00  0.00     0.047 A
HETATM   14  C8  UNL     1       8.580 -12.701  13.931  1.00  0.00     0.024 A
HETATM   15  C9  UNL     1       8.814 -14.147  14.413  1.00  0.00     0.012 C
HETATM   16  C10 UNL     1       7.534 -14.768  14.053  1.00  0.00    -0.007 A
HETATM   17  C11 UNL     1       6.314 -14.999  14.727  1.00  0.00     0.013 A
HETATM   18  C12 UNL     1       6.702 -13.648  14.789  1.00  0.00     0.026 A
ENDBRANCH  11  12
ENDBRANCH   3  11
BRANCH   1  19
HETATM   19  O1  UNL     1       4.311 -11.423  12.786  1.00  0.00    -0.287 OA
ATOM     20  H1  UNL     1       3.541 -11.477  12.232  1.00  0.00     0.244 HD
ENDBRANCH   1  19
TORSDOF 5
ENDMDL