MODEL 1
REMARK VINA RESULT: -7.377694175      0.000      0.000
REMARK  2 active torsions:
REMARK  status: ('A' for Active; 'I' for Inactive)
REMARK    1  A    between atoms: C13_15  and  O3_16
REMARK    2  A    between atoms: O3_16  and  O4_17
ROOT
HETATM    1  C1  UNL     1       5.701 -10.448  12.553  1.00  0.00     0.017 C
HETATM    2  C2  UNL     1       7.063 -10.893  13.035  1.00  0.00     0.046 C
HETATM    3  C3  UNL     1       8.098 -10.532  11.997  1.00  0.00    -0.071 C
HETATM    4  C4  UNL     1       9.133 -11.252  11.587  1.00  0.00    -0.074 C
HETATM    5  C5  UNL     1      10.111 -10.822  10.554  1.00  0.00     0.034 C
HETATM    6  C6  UNL     1       9.972  -9.352  10.315  1.00  0.00     0.005 C
HETATM    7  C7  UNL     1       8.486  -9.103  10.072  1.00  0.00     0.005 C
HETATM    8  C8  UNL     1       7.826  -9.166  11.429  1.00  0.00     0.035 C
HETATM    9  C9  UNL     1       9.471 -12.619  12.108  1.00  0.00     0.072 C
HETATM   10  C10 UNL     1       9.470 -12.630  13.588  1.00  0.00     0.204 C
HETATM   11  O1  UNL     1       9.511 -11.442  14.276  1.00  0.00    -0.231 OA
HETATM   12  O2  UNL     1       8.567 -11.905  15.104  1.00  0.00    -0.224 OA
HETATM   13  C11 UNL     1       8.112 -12.844  14.198  1.00  0.00     0.151 C
HETATM   14  C12 UNL     1       7.943 -14.249  14.662  1.00  0.00     0.055 C
HETATM   15  C13 UNL     1       6.994 -12.369  13.298  1.00  0.00     0.207 C
ENDROOT
BRANCH  15  16
HETATM   16  O3  UNL     1       5.812 -12.575  14.044  1.00  0.00    -0.234 OA
BRANCH  16  17
HETATM   17  O4  UNL     1       5.926 -11.866  15.135  1.00  0.00    -0.250 OA
ATOM     18  H4  UNL     1       5.192 -12.099  15.691  1.00  0.00     0.253 HD
ENDBRANCH  16  17
ENDBRANCH  15  16
TORSDOF 2
ENDMDL