MODEL 5
REMARK VINA RESULT: -4.546060184      1.820      3.804
REMARK  3 active torsions:
REMARK  status: ('A' for Active; 'I' for Inactive)
REMARK    1  A    between atoms: N1_1  and  C1_4
REMARK    2  A    between atoms: C2_7  and  S1_8
REMARK    3  A    between atoms: S1_8  and  N3_9
ROOT
HETATM    1  C1  UNL     1      15.727   8.545  53.931  1.00  0.00     0.679 A
HETATM    2  N2  UNL     1      16.911   7.912  54.014  1.00  0.00    -0.177 N
ATOM      3  H2  UNL     1      17.247   7.626  54.934  1.00  0.00     0.185 HD
HETATM    4  C2  UNL     1      17.670   7.638  52.940  1.00  0.00     0.193 A
HETATM    5  C3  UNL     1      17.166   8.048  51.711  1.00  0.00     0.155 A
HETATM    6  N4  UNL     1      17.943   7.774  50.561  1.00  0.00    -0.093 NA
HETATM    7  C4  UNL     1      15.947   8.698  51.645  1.00  0.00     0.286 A
HETATM    8  O3  UNL     1      15.506   9.062  50.511  1.00  0.00    -0.265 OA
HETATM    9  N5  UNL     1      15.241   8.940  52.740  1.00  0.00    -0.155 N
ATOM     10  H5  UNL     1      14.343   9.420  52.680  1.00  0.00     0.187 HD
ENDROOT
BRANCH   4  11
HETATM   11  S1  UNL     1      19.203   6.822  53.014  1.00  0.00     0.275 S
HETATM   12  O1  UNL     1      19.302   5.678  52.055  1.00  0.00    -0.199 OA
HETATM   13  O2  UNL     1      19.378   6.233  54.402  1.00  0.00    -0.199 OA
BRANCH  11  14
HETATM   14  N3  UNL     1      20.530   7.900  52.772  1.00  0.00    -0.323 N
ATOM     15  H32 UNL     1      20.653   8.758  53.308  1.00  0.00     0.169 HD
ATOM     16  H31 UNL     1      21.161   7.576  52.039  1.00  0.00     0.169 HD
ENDBRANCH  11  14
ENDBRANCH   4  11
BRANCH   1  17
HETATM   17  N1  UNL     1      14.997   8.808  54.964  1.00  0.00    -0.234 N
ATOM     18  H12 UNL     1      15.418   8.621  55.874  1.00  0.00     0.174 HD
ATOM     19  H11 UNL     1      14.051   9.181  54.894  1.00  0.00     0.174 HD
ENDBRANCH   1  17
TORSDOF 3
ENDMDL