MODEL 3
REMARK VINA RESULT: -4.849876690      2.039      3.395
REMARK  1 active torsions:
REMARK  status: ('A' for Active; 'I' for Inactive)
REMARK       I    between atoms: N1_1  and  C1_5
REMARK       I    between atoms: C1_5  and  N2_6
REMARK       I    between atoms: C1_5  and  N3_10
REMARK    1  A    between atoms: N3_10  and  C2_12
ROOT
HETATM    1  N1  UNL     1      15.411   7.226  55.440  1.00  0.00    -0.033 N
ATOM      2  H11 UNL     1      15.216   6.797  54.535  1.00  0.00     0.278 HD
ATOM      3  H12 UNL     1      14.756   7.982  55.639  1.00  0.00     0.278 HD
ATOM      4  H13 UNL     1      15.171   6.597  56.206  1.00  0.00     0.278 HD
HETATM    5  C1  UNL     1      16.784   7.679  55.543  1.00  0.00     0.482 C
HETATM    6  N2  UNL     1      17.061   8.289  56.831  1.00  0.00    -0.033 N
ATOM      7  H21 UNL     1      18.027   8.608  56.904  1.00  0.00     0.278 HD
ATOM      8  H22 UNL     1      16.821   7.661  57.598  1.00  0.00     0.278 HD
ATOM      9  H23 UNL     1      16.406   9.046  57.031  1.00  0.00     0.278 HD
HETATM   10  N3  UNL     1      17.099   8.674  54.534  1.00  0.00    -0.321 N
ATOM     11  H3  UNL     1      17.209   9.660  54.770  1.00  0.00     0.165 HD
ENDROOT
BRANCH  10  12
HETATM   12  C2  UNL     1      17.234   8.244  53.317  1.00  0.00     0.156 A
HETATM   13  N4  UNL     1      18.187   7.357  52.973  1.00  0.00    -0.288 N
HETATM   14  C3  UNL     1      18.396   6.866  51.758  1.00  0.00     0.329 A
ATOM     15  H4  UNL     1      18.806   7.032  53.715  1.00  0.00     0.172 HD
HETATM   16  O1  UNL     1      19.360   6.029  51.646  1.00  0.00    -0.247 OA
HETATM   17  N5  UNL     1      17.725   7.141  50.644  1.00  0.00    -0.269 N
HETATM   18  C4  UNL     1      16.688   7.980  50.533  1.00  0.00     0.295 A
ATOM     19  H5  UNL     1      18.028   6.666  49.794  1.00  0.00     0.174 HD
HETATM   20  O2  UNL     1      16.124   8.167  49.429  1.00  0.00    -0.259 OA
HETATM   21  S1  UNL     1      16.248   8.733  52.013  1.00  0.00     0.007 SA
ENDBRANCH  10  12
TORSDOF 1
ENDMDL