MODEL 4
REMARK VINA RESULT: -4.657332088      1.910      3.596
REMARK  4 active torsions:
REMARK  status: ('A' for Active; 'I' for Inactive)
REMARK    1  A    between atoms: N1_1  and  C1_4
REMARK    2  A    between atoms: N4_12  and  N5_14
REMARK    3  A    between atoms: C4_17  and  N6_18
REMARK    4  A    between atoms: N6_18  and  C5_20
ROOT
HETATM    1  C1  UNL     1      16.960   7.839  50.567  1.00  0.00     0.681 C
HETATM    2  N2  UNL     1      18.028   7.021  50.729  1.00  0.00    -0.141 N
ATOM      3  H2  UNL     1      18.361   6.534  49.897  1.00  0.00     0.189 HD
HETATM    4  C2  UNL     1      18.696   6.782  51.874  1.00  0.00     0.340 C
HETATM    5  O1  UNL     1      19.857   6.294  51.802  1.00  0.00    -0.246 OA
HETATM    6  N3  UNL     1      18.228   7.021  53.128  1.00  0.00    -0.290 N
ATOM      7  H3  UNL     1      18.614   6.422  53.858  1.00  0.00     0.172 HD
HETATM    8  C3  UNL     1      17.328   7.937  53.551  1.00  0.00     0.169 C
HETATM    9  N4  UNL     1      17.182   8.058  54.846  1.00  0.00    -0.289 N
ATOM     10  H4  UNL     1      16.511   8.741  55.196  1.00  0.00     0.188 HD
HETATM   11  C4  UNL     1      16.537   8.765  52.787  1.00  0.00     0.169 C
HETATM   12  N7  UNL     1      16.346   8.648  51.460  1.00  0.00    -0.173 N
ATOM     13  H7  UNL     1      15.631   9.261  51.069  1.00  0.00     0.186 HD
ENDROOT
BRANCH   9  14
HETATM   14  N5  UNL     1      17.888   7.314  55.754  1.00  0.00    -0.344 N
ATOM     15  H52 UNL     1      17.727   6.307  55.760  1.00  0.00     0.176 HD
ATOM     16  H51 UNL     1      18.554   7.719  56.413  1.00  0.00     0.176 HD
ENDBRANCH   9  14
BRANCH  11  17
HETATM   17  N6  UNL     1      15.950   9.713  53.424  1.00  0.00    -0.317 N
ATOM     18  H6  UNL     1      15.283   9.461  54.153  1.00  0.00     0.169 HD
BRANCH  17  19
HETATM   19  C5  UNL     1      16.177  11.088  53.172  1.00  0.00     0.354 C
HETATM   20  O2  UNL     1      16.917  11.489  52.240  1.00  0.00    -0.283 OA
ENDBRANCH  17  19
ENDBRANCH  11  17
BRANCH   1  21
HETATM   21  N1  UNL     1      16.492   7.813  49.376  1.00  0.00    -0.234 N
ATOM     22  H12 UNL     1      16.258   6.901  48.983  1.00  0.00     0.174 HD
ATOM     23  H11 UNL     1      16.413   8.742  48.962  1.00  0.00     0.174 HD
ENDBRANCH   1  21
TORSDOF 4
ENDMDL