MODEL 4
REMARK VINA RESULT: -4.704681845      0.480      1.415
REMARK  4 active torsions:
REMARK  status: ('A' for Active; 'I' for Inactive)
REMARK    1  A    between atoms: N1_1  and  C1_4
REMARK    2  A    between atoms: C3_11  and  N4_12
REMARK    3  A    between atoms: N4_12  and  N5_14
REMARK    4  A    between atoms: N7_18  and  N8_19
ROOT
HETATM    1  C1  UNL     1      16.436   8.756  52.602  1.00  0.00     0.694 A
HETATM    2  N2  UNL     1      15.951   8.726  51.311  1.00  0.00    -0.141 N
ATOM      3  H2  UNL     1      15.120   9.273  51.087  1.00  0.00     0.189 HD
HETATM    4  C2  UNL     1      16.524   8.010  50.345  1.00  0.00     0.352 A
HETATM    5  O1  UNL     1      16.059   8.002  49.173  1.00  0.00    -0.246 OA
HETATM    6  N3  UNL     1      17.616   7.284  50.619  1.00  0.00    -0.139 N
ATOM      7  H3  UNL     1      18.051   6.736  49.877  1.00  0.00     0.189 HD
HETATM    8  C3  UNL     1      18.146   7.261  51.844  1.00  0.00     0.718 A
HETATM    9  N9  UNL     1      17.555   7.984  52.790  1.00  0.00    -0.021 N
ATOM     10  H9  UNL     1      17.963   7.964  53.724  1.00  0.00     0.203 HD
ENDROOT
BRANCH   8  11
HETATM   11  N4  UNL     1      19.211   6.536  52.073  1.00  0.00    -0.093 N
ATOM     12  H4  UNL     1      19.188   5.518  52.001  1.00  0.00     0.209 HD
BRANCH  11  13
HETATM   13  N5  UNL     1      20.376   7.212  52.421  1.00  0.00    -0.093 N
HETATM   14  N6  UNL     1      21.427   7.631  51.734  1.00  0.00    -0.254 N
HETATM   15  C4  UNL     1      21.924   8.110  52.877  1.00  0.00     0.249 A
ATOM     16  H6  UNL     1      21.727   7.601  50.759  1.00  0.00     0.191 HD
HETATM   17  N7  UNL     1      20.832   7.671  53.570  1.00  0.00    -0.160 N
BRANCH  17  18
HETATM   18  N8  UNL     1      20.362   7.675  54.877  1.00  0.00    -0.320 N
ATOM     19  H82 UNL     1      20.407   8.273  55.702  1.00  0.00     0.179 HD
ATOM     20  H81 UNL     1      19.794   7.040  55.437  1.00  0.00     0.179 HD
ENDBRANCH  17  18
ENDBRANCH  11  13
ENDBRANCH   8  11
BRANCH   1  21
HETATM   21  N1  UNL     1      15.910   9.414  53.481  1.00  0.00    -0.234 N
ATOM     22  H12 UNL     1      16.353  10.212  53.937  1.00  0.00     0.174 HD
ATOM     23  H11 UNL     1      14.971   9.212  53.826  1.00  0.00     0.174 HD
ENDBRANCH   1  21
TORSDOF 4
ENDMDL