MODEL 2
REMARK VINA RESULT: -4.503916624      1.488      5.021
REMARK  3 active torsions:
REMARK  status: ('A' for Active; 'I' for Inactive)
REMARK    1  A    between atoms: N3_7  and  N4_9
REMARK       I    between atoms: N4_9  and  C4_11
REMARK    2  A    between atoms: C5_16  and  N7_17
REMARK    3  A    between atoms: N7_17  and  N8_19
ROOT
HETATM    1  C1  UNL     1      20.266   6.878  51.375  1.00  0.00     0.200 C
HETATM    2  N1  UNL     1      18.965   7.500  51.498  1.00  0.00    -0.237 N
HETATM    3  N2  UNL     1      18.689   8.160  52.612  1.00  0.00    -0.293 N
ATOM      4  H2  UNL     1      19.402   8.205  53.340  1.00  0.00     0.187 HD
HETATM    5  C2  UNL     1      17.511   8.775  52.827  1.00  0.00     0.143 A
HETATM    6  C3  UNL     1      16.582   8.671  51.784  1.00  0.00     0.111 A
HETATM    7  N3  UNL     1      15.448   9.240  51.947  1.00  0.00    -0.293 N
ATOM      8  H3  UNL     1      14.760   9.174  51.197  1.00  0.00     0.187 HD
HETATM    9  C5  UNL     1      16.867   7.989  50.632  1.00  0.00     0.165 A
HETATM   10  N9  UNL     1      18.064   7.412  50.510  1.00  0.00    -0.266 N
ATOM     11  H9  UNL     1      18.295   6.899  49.659  1.00  0.00     0.190 HD
ENDROOT
BRANCH   7  12
HETATM   12  N4  UNL     1      15.108   9.943  53.091  1.00  0.00    -0.273 N
HETATM   13  C4  UNL     1      13.980   9.664  53.903  1.00  0.00     0.200 C
HETATM   14  N5  UNL     1      12.994  10.488  53.848  1.00  0.00    -0.372 N
HETATM   15  N6  UNL     1      13.898   8.533  54.758  1.00  0.00    -0.062 NA
ATOM     16  H52 UNL     1      13.053  11.300  53.234  1.00  0.00     0.158 HD
ATOM     17  H51 UNL     1      12.183  10.287  54.432  1.00  0.00     0.158 HD
ATOM     18  H4  UNL     1      15.711  10.717  53.369  1.00  0.00     0.189 HD
ENDBRANCH   7  12
BRANCH   9  19
HETATM   19  N7  UNL     1      16.033   7.895  49.695  1.00  0.00    -0.289 N
ATOM     20  H7  UNL     1      15.056   8.034  49.953  1.00  0.00     0.188 HD
BRANCH  19  21
HETATM   21  N8  UNL     1      16.270   7.628  48.368  1.00  0.00    -0.344 N
ATOM     22  H82 UNL     1      16.758   8.370  47.865  1.00  0.00     0.176 HD
ATOM     23  H81 UNL     1      16.022   6.794  47.837  1.00  0.00     0.176 HD
ENDBRANCH  19  21
ENDBRANCH   9  19
TORSDOF 3
ENDMDL