MODEL 5
REMARK VINA RESULT: -4.432519664      1.339      3.218
REMARK  2 active torsions:
REMARK  status: ('A' for Active; 'I' for Inactive)
REMARK    1  A    between atoms: C3_5  and  N2_6
REMARK    2  A    between atoms: N6_16  and  N7_17
ROOT
HETATM    1  C1  UNL     1      16.288  11.432  53.108  1.00  0.00     0.071 C
HETATM    2  C2  UNL     1      16.707  10.094  53.549  1.00  0.00     0.049 C
HETATM    3  N1  UNL     1      16.882   9.862  54.867  1.00  0.00    -0.194 N
ATOM      4  H1  UNL     1      16.548  10.601  55.485  1.00  0.00     0.184 HD
HETATM    5  C3  UNL     1      17.436   8.790  55.494  1.00  0.00     0.677 C
HETATM    6  N3  UNL     1      18.250   7.881  54.928  1.00  0.00    -0.173 N
ATOM      7  H3  UNL     1      18.926   7.449  55.558  1.00  0.00     0.186 HD
HETATM    8  C4  UNL     1      18.303   7.455  53.639  1.00  0.00     0.169 A
HETATM    9  N4  UNL     1      18.965   6.384  53.181  1.00  0.00    -0.267 N
ATOM     10  H4  UNL     1      19.524   5.732  53.730  1.00  0.00     0.190 HD
HETATM   11  N5  UNL     1      18.752   6.338  51.888  1.00  0.00    -0.220 N
ATOM     12  H5  UNL     1      19.136   5.623  51.271  1.00  0.00     0.210 HD
HETATM   13  N6  UNL     1      17.985   7.326  51.482  1.00  0.00    -0.183 N
HETATM   14  C5  UNL     1      17.686   8.048  52.559  1.00  0.00     0.147 A
HETATM   15  C6  UNL     1      16.881   9.191  52.526  1.00  0.00     0.103 C
HETATM   16  N8  UNL     1      16.181   9.447  51.331  1.00  0.00    -0.098 NA
ENDROOT
BRANCH   5  17
HETATM   17  N2  UNL     1      17.150   8.635  56.749  1.00  0.00    -0.234 N
ATOM     18  H22 UNL     1      16.505   7.884  56.994  1.00  0.00     0.174 HD
ATOM     19  H21 UNL     1      17.593   9.280  57.404  1.00  0.00     0.174 HD
ENDBRANCH   5  17
BRANCH  13  20
HETATM   20  N7  UNL     1      17.542   7.607  50.174  1.00  0.00    -0.322 N
ATOM     21  H72 UNL     1      18.117   7.538  49.335  1.00  0.00     0.179 HD
ATOM     22  H71 UNL     1      16.616   7.911  49.871  1.00  0.00     0.179 HD
ENDBRANCH  13  20
TORSDOF 2
ENDMDL