MODEL 5
REMARK VINA RESULT: -4.034294507      4.009      5.105
REMARK  4 active torsions:
REMARK  status: ('A' for Active; 'I' for Inactive)
REMARK    1  A    between atoms: N1_1  and  C1_4
REMARK    2  A    between atoms: C3_10  and  N4_11
REMARK    3  A    between atoms: N4_11  and  N5_13
REMARK    4  A    between atoms: N5_13  and  C4_15
ROOT
HETATM    1  C1  UNL     1      16.769   7.960  50.754  1.00  0.00     0.691 A
HETATM    2  N2  UNL     1      15.851   8.722  51.366  1.00  0.00    -0.187 N
ATOM      3  H2  UNL     1      15.092   9.144  50.831  1.00  0.00     0.185 HD
HETATM    4  C2  UNL     1      15.940   8.924  52.694  1.00  0.00     0.215 A
HETATM    5  N3  UNL     1      16.935   8.372  53.412  1.00  0.00    -0.185 N
ATOM      6  H3  UNL     1      16.985   8.537  54.417  1.00  0.00     0.185 HD
HETATM    7  C3  UNL     1      17.859   7.609  52.818  1.00  0.00     0.712 A
HETATM    8  N8  UNL     1      17.764   7.413  51.493  1.00  0.00    -0.021 N
ATOM      9  H8  UNL     1      18.464   6.833  51.029  1.00  0.00     0.203 HD
ENDROOT
BRANCH   7  10
HETATM   10  N4  UNL     1      18.837   7.061  53.486  1.00  0.00    -0.134 N
ATOM     11  H4  UNL     1      18.898   6.048  53.594  1.00  0.00     0.205 HD
BRANCH  10  12
HETATM   12  N5  UNL     1      19.796   7.904  54.046  1.00  0.00    -0.297 N
ATOM     13  H5  UNL     1      19.523   8.765  54.519  1.00  0.00     0.183 HD
BRANCH  12  14
HETATM   14  C4  UNL     1      21.185   7.526  53.938  1.00  0.00     0.216 C
HETATM   15  C5  UNL     1      21.607   7.660  52.492  1.00  0.00     0.168 C
HETATM   16  N6  UNL     1      22.157   8.995  52.458  1.00  0.00    -0.383 N
HETATM   17  C6  UNL     1      22.398   9.453  53.630  1.00  0.00     0.173 C
ATOM     18  H6  UNL     1      22.333   9.515  51.598  1.00  0.00     0.160 HD
HETATM   19  N7  UNL     1      22.040   8.485  54.580  1.00  0.00    -0.363 N
ATOM     20  H7  UNL     1      22.336   8.466  55.555  1.00  0.00     0.162 HD
ENDBRANCH  12  14
ENDBRANCH  10  12
ENDBRANCH   7  10
BRANCH   1  21
HETATM   21  N1  UNL     1      16.692   7.758  49.465  1.00  0.00    -0.234 N
ATOM     22  H12 UNL     1      15.965   7.164  49.064  1.00  0.00     0.174 HD
ATOM     23  H11 UNL     1      17.367   8.200  48.841  1.00  0.00     0.174 HD
ENDBRANCH   1  21
TORSDOF 4
ENDMDL