MODEL 3
REMARK VINA RESULT: -4.860393127      1.233      4.436
REMARK  3 active torsions:
REMARK  status: ('A' for Active; 'I' for Inactive)
REMARK    1  A    between atoms: N1_1  and  C1_5
REMARK    2  A    between atoms: C1_5  and  N2_6
REMARK    3  A    between atoms: C1_5  and  C2_10
ROOT
HETATM    1  C2  UNL     1      19.561   8.155  52.574  1.00  0.00     0.114 A
HETATM    2  C3  UNL     1      18.418   8.910  52.691  1.00  0.00     0.145 A
HETATM    3  N3  UNL     1      17.440   8.413  51.910  1.00  0.00    -0.186 N
HETATM    4  N4  UNL     1      17.956   7.345  51.296  1.00  0.00    -0.253 N
ATOM      5  H4  UNL     1      17.448   6.757  50.635  1.00  0.00     0.191 HD
HETATM    6  C4  UNL     1      19.226   7.151  51.664  1.00  0.00     0.274 A
HETATM    7  O1  UNL     1      20.004   6.230  51.270  1.00  0.00    -0.266 OA
HETATM    8  C5  UNL     1      16.154   9.027  51.860  1.00  0.00     0.344 C
HETATM    9  O2  UNL     1      15.234   8.566  51.130  1.00  0.00    -0.245 OA
HETATM   10  N5  UNL     1      15.891  10.183  52.645  1.00  0.00    -0.325 N
ATOM     11  H5  UNL     1      15.125  10.815  52.416  1.00  0.00     0.165 HD
HETATM   12  C6  UNL     1      16.756  10.428  53.782  1.00  0.00     0.249 C
HETATM   13  N6  UNL     1      18.130  10.078  53.475  1.00  0.00    -0.358 N
ATOM     14  H6  UNL     1      18.892  10.662  53.817  1.00  0.00     0.162 HD
ENDROOT
BRANCH   1  15
HETATM   15  C1  UNL     1      20.880   8.331  53.248  1.00  0.00     0.420 C
BRANCH  15  16
HETATM   16  N1  UNL     1      21.981   8.211  52.284  1.00  0.00    -0.046 N
ATOM     17  H13 UNL     1      22.515   9.074  52.173  1.00  0.00     0.277 HD
ATOM     18  H12 UNL     1      22.748   7.629  52.621  1.00  0.00     0.277 HD
ATOM     19  H11 UNL     1      21.573   7.876  51.412  1.00  0.00     0.277 HD
ENDBRANCH  15  16
BRANCH  15  20
HETATM   20  N2  UNL     1      21.063   7.275  54.226  1.00  0.00    -0.046 N
ATOM     21  H23 UNL     1      21.685   7.538  54.990  1.00  0.00     0.277 HD
ATOM     22  H22 UNL     1      20.231   7.102  54.791  1.00  0.00     0.277 HD
ATOM     23  H21 UNL     1      21.380   6.452  53.714  1.00  0.00     0.277 HD
ENDBRANCH  15  20
ENDBRANCH   1  15
TORSDOF 3
ENDMDL