MODEL 1
REMARK VINA RESULT: -5.280150509      0.000      0.000
REMARK  3 active torsions:
REMARK  status: ('A' for Active; 'I' for Inactive)
REMARK    1  A    between atoms: N1_1  and  C1_5
REMARK    2  A    between atoms: C1_5  and  N2_6
REMARK    3  A    between atoms: C1_5  and  C2_10
ROOT
HETATM    1  C2  UNL     1      17.696   8.123  53.558  1.00  0.00     0.146 C
HETATM    2  N3  UNL     1      16.695   8.795  52.956  1.00  0.00    -0.305 N
ATOM      3  H3  UNL     1      16.288   9.550  53.507  1.00  0.00     0.170 HD
HETATM    4  C3  UNL     1      16.150   8.620  51.738  1.00  0.00     0.315 C
HETATM    5  O1  UNL     1      14.992   9.086  51.522  1.00  0.00    -0.262 OA
HETATM    6  C4  UNL     1      16.772   7.960  50.684  1.00  0.00     0.317 C
HETATM    7  O2  UNL     1      16.217   8.067  49.570  1.00  0.00    -0.262 OA
HETATM    8  N4  UNL     1      17.897   7.214  50.696  1.00  0.00    -0.271 N
ATOM      9  H4  UNL     1      18.287   6.978  49.784  1.00  0.00     0.174 HD
HETATM   10  C5  UNL     1      18.567   6.743  51.763  1.00  0.00     0.328 C
HETATM   11  O3  UNL     1      19.460   5.910  51.527  1.00  0.00    -0.247 OA
HETATM   12  N5  UNL     1      18.380   7.074  53.066  1.00  0.00    -0.295 N
ATOM     13  H5  UNL     1      18.808   6.453  53.753  1.00  0.00     0.172 HD
ENDROOT
BRANCH   1  14
HETATM   14  C1  UNL     1      18.122   8.551  54.904  1.00  0.00     0.444 C
BRANCH  14  15
HETATM   15  N1  UNL     1      18.552   7.407  55.648  1.00  0.00    -0.043 N
ATOM     16  H13 UNL     1      17.916   7.192  56.416  1.00  0.00     0.277 HD
ATOM     17  H12 UNL     1      18.443   6.544  55.115  1.00  0.00     0.277 HD
ATOM     18  H11 UNL     1      19.510   7.533  55.974  1.00  0.00     0.277 HD
ENDBRANCH  14  15
BRANCH  14  19
HETATM   19  N2  UNL     1      17.093   9.258  55.619  1.00  0.00    -0.043 N
ATOM     20  H23 UNL     1      16.231   9.325  55.077  1.00  0.00     0.277 HD
ATOM     21  H22 UNL     1      16.736   8.716  56.405  1.00  0.00     0.277 HD
ATOM     22  H21 UNL     1      17.428  10.175  55.912  1.00  0.00     0.277 HD
ENDBRANCH  14  19
ENDBRANCH   1  14
TORSDOF 3
ENDMDL