MODEL 4
REMARK VINA RESULT: -5.732663830      3.226      5.664
REMARK  3 active torsions:
REMARK  status: ('A' for Active; 'I' for Inactive)
REMARK    1  A    between atoms: N1_1  and  N2_4
REMARK    2  A    between atoms: N2_4  and  N3_5
REMARK       I    between atoms: N3_5  and  C1_7
REMARK       I    between atoms: C1_7  and  N5_9
REMARK    3  A    between atoms: N5_9  and  C2_11
ROOT
HETATM    1  C2  UNL     1      18.678   8.122  52.131  1.00  0.00     0.152 A
HETATM    2  N6  UNL     1      17.954   8.078  51.000  1.00  0.00    -0.302 N
ATOM      3  H6  UNL     1      18.439   7.876  50.126  1.00  0.00     0.171 HD
HETATM    4  C3  UNL     1      16.619   8.286  50.952  1.00  0.00     0.315 A
HETATM    5  O1  UNL     1      15.958   8.242  49.893  1.00  0.00    -0.262 OA
HETATM    6  C4  UNL     1      15.994   8.556  52.147  1.00  0.00     0.315 A
HETATM    7  O2  UNL     1      14.736   8.762  52.163  1.00  0.00    -0.262 OA
HETATM    8  N7  UNL     1      16.654   8.621  53.346  1.00  0.00    -0.304 N
ATOM      9  H7  UNL     1      16.170   8.826  54.220  1.00  0.00     0.170 HD
HETATM   10  C5  UNL     1      17.983   8.400  53.301  1.00  0.00     0.164 A
HETATM   11  N8  UNL     1      18.726   8.449  54.512  1.00  0.00    -0.079 NA
ENDROOT
BRANCH   1  12
HETATM   12  N5  UNL     1      20.011   7.917  52.168  1.00  0.00    -0.312 N
HETATM   13  C1  UNL     1      20.988   7.369  51.709  1.00  0.00     0.220 C
HETATM   14  N3  UNL     1      22.319   7.586  52.284  1.00  0.00    -0.187 N
HETATM   15  N4  UNL     1      20.873   6.495  50.585  1.00  0.00    -0.061 NA
ATOM     16  H3  UNL     1      23.129   7.093  51.910  1.00  0.00     0.206 HD
ATOM     17  H5  UNL     1      20.355   8.489  52.940  1.00  0.00     0.170 HD
BRANCH  14  18
HETATM   18  N2  UNL     1      22.462   8.451  53.316  1.00  0.00    -0.241 NA
BRANCH  18  19
HETATM   19  N1  UNL     1      22.604   9.161  54.183  1.00  0.00    -0.260 N
ATOM     20  H12 UNL     1      22.986   8.225  54.046  1.00  0.00     0.193 HD
ATOM     21  H11 UNL     1      22.718   9.818  54.954  1.00  0.00     0.193 HD
ENDBRANCH  18  19
ENDBRANCH  14  18
ENDBRANCH   1  12
TORSDOF 3
ENDMDL