MODEL 3
REMARK VINA RESULT: -4.357534123      2.767      3.574
REMARK  5 active torsions:
REMARK  status: ('A' for Active; 'I' for Inactive)
REMARK    1  A    between atoms: C2_2  and  C3_3
REMARK    2  A    between atoms: C3_3  and  N1_4
REMARK    3  A    between atoms: N1_4  and  C4_6
REMARK    4  A    between atoms: C4_6  and  C5_7
REMARK    5  A    between atoms: C8_18  and  O1_19
ROOT
HETATM    1  C5  UNL     1      16.037  17.962  56.702  1.00  0.00     0.138 C
HETATM    2  N2  UNL     1      16.155  18.561  57.974  1.00  0.00    -0.355 N
ATOM      3  H2  UNL     1      16.295  17.942  58.773  1.00  0.00     0.162 HD
HETATM    4  C6  UNL     1      16.092  19.970  58.234  1.00  0.00     0.190 C
HETATM    5  N3  UNL     1      16.362  20.426  59.559  1.00  0.00    -0.063 NA
HETATM    6  N4  UNL     1      15.797  20.813  57.319  1.00  0.00    -0.318 N
ATOM      7  H4  UNL     1      15.752  21.811  57.521  1.00  0.00     0.169 HD
HETATM    8  C7  UNL     1      15.534  20.321  56.015  1.00  0.00     0.108 C
HETATM    9  N5  UNL     1      15.513  21.171  55.016  1.00  0.00    -0.387 N
ATOM     10  H51 UNL     1      15.323  20.817  54.078  1.00  0.00     0.157 HD
ATOM     11  H52 UNL     1      15.694  22.163  55.173  1.00  0.00     0.157 HD
HETATM   12  C8  UNL     1      15.271  18.883  55.787  1.00  0.00     0.209 C
ENDROOT
BRANCH   1  13
HETATM   13  C4  UNL     1      17.401  17.607  56.121  1.00  0.00     0.147 C
BRANCH  13  14
HETATM   14  N1  UNL     1      17.762  16.313  56.568  1.00  0.00    -0.397 N
ATOM     15  H1  UNL     1      18.737  16.111  56.789  1.00  0.00     0.158 HD
BRANCH  14  16
HETATM   16  C3  UNL     1      16.810  15.316  56.710  1.00  0.00     0.082 C
BRANCH  16  17
HETATM   17  C2  UNL     1      16.880  14.075  55.943  1.00  0.00     0.006 C
HETATM   18  C1  UNL     1      17.830  13.666  55.158  1.00  0.00     0.012 C
ENDBRANCH  16  17
ENDBRANCH  14  16
ENDBRANCH  13  14
ENDBRANCH   1  13
BRANCH  12  19
HETATM   19  O1  UNL     1      13.896  18.631  56.011  1.00  0.00    -0.386 OA
ATOM     20  H1  UNL     1      13.624  17.996  55.359  1.00  0.00     0.210 HD
ENDBRANCH  12  19
TORSDOF 5
ENDMDL