MODEL 1
REMARK VINA RESULT: -4.621401181      0.000      0.000
REMARK  6 active torsions:
REMARK  status: ('A' for Active; 'I' for Inactive)
REMARK    1  A    between atoms: C3_3  and  N1_4
REMARK    2  A    between atoms: N1_4  and  C4_7
REMARK    3  A    between atoms: C4_7  and  C5_8
REMARK    4  A    between atoms: C5_8  and  N2_9
REMARK    5  A    between atoms: C6_10  and  N3_11
REMARK    6  A    between atoms: C7_16  and  N5_17
ROOT
HETATM    1  C1  UNL     1      17.799  14.377  54.875  1.00  0.00     0.013 C
HETATM    2  C2  UNL     1      18.319  14.911  53.952  1.00  0.00    -0.090 C
HETATM    3  C3  UNL     1      18.936  15.580  52.795  1.00  0.00     0.324 C
ENDROOT
BRANCH   3   4
HETATM    4  N1  UNL     1      17.932  15.939  51.822  1.00  0.00    -0.064 N
ATOM      5  H12 UNL     1      18.339  16.030  50.892  1.00  0.00     0.278 HD
ATOM      6  H11 UNL     1      17.296  15.162  51.647  1.00  0.00     0.278 HD
BRANCH   4   7
HETATM    7  C4  UNL     1      17.208  17.130  52.192  1.00  0.00     0.254 C
BRANCH   7   8
HETATM    8  C5  UNL     1      17.118  18.057  51.003  1.00  0.00     0.180 C
BRANCH   8   9
HETATM    9  N2  UNL     1      16.035  17.690  50.117  1.00  0.00    -0.130 N
HETATM   10  C6  UNL     1      16.233  17.195  48.874  1.00  0.00     0.696 A
HETATM   11  N4  UNL     1      15.209  16.867  48.068  1.00  0.00    -0.022 N
HETATM   12  C7  UNL     1      13.956  17.026  48.482  1.00  0.00     0.694 A
ATOM     13  H4  UNL     1      15.394  16.496  47.136  1.00  0.00     0.203 HD
HETATM   14  N6  UNL     1      13.721  17.511  49.700  1.00  0.00    -0.140 N
HETATM   15  C8  UNL     1      14.760  17.842  50.513  1.00  0.00     0.355 A
ATOM     16  H6  UNL     1      12.761  17.636  50.022  1.00  0.00     0.189 HD
HETATM   17  O1  UNL     1      14.440  18.292  51.646  1.00  0.00    -0.245 OA
BRANCH  10  18
HETATM   18  N3  UNL     1      17.451  17.043  48.474  1.00  0.00    -0.234 N
ATOM     19  H32 UNL     1      17.929  16.152  48.609  1.00  0.00     0.174 HD
ATOM     20  H31 UNL     1      17.907  17.837  48.026  1.00  0.00     0.174 HD
ENDBRANCH  10  18
BRANCH  12  21
HETATM   21  N5  UNL     1      12.953  16.721  47.730  1.00  0.00    -0.234 N
ATOM     22  H52 UNL     1      12.906  17.113  46.790  1.00  0.00     0.174 HD
ATOM     23  H51 UNL     1      12.211  16.100  48.055  1.00  0.00     0.174 HD
ENDBRANCH  12  21
ENDBRANCH   8   9
ENDBRANCH   7   8
ENDBRANCH   4   7
ENDBRANCH   3   4
TORSDOF 6
ENDMDL