MODEL 4
REMARK VINA RESULT: -4.048945727      3.008      4.404
REMARK  7 active torsions:
REMARK  status: ('A' for Active; 'I' for Inactive)
REMARK    1  A    between atoms: C2_2  and  C3_3
REMARK    2  A    between atoms: C3_3  and  N1_4
REMARK    3  A    between atoms: N1_4  and  C4_6
REMARK    4  A    between atoms: C5_9  and  C6_10
REMARK    5  A    between atoms: C6_10  and  O1_11
REMARK    6  A    between atoms: C8_14  and  N3_15
REMARK    7  A    between atoms: C9_19  and  N4_20
ROOT
HETATM    1  C4  UNL     1      17.103  16.714  56.859  1.00  0.00     0.206 C
HETATM    2  N2  UNL     1      15.858  17.449  56.945  1.00  0.00    -0.394 N
ATOM      3  H2  UNL     1      14.960  16.969  56.995  1.00  0.00     0.155 HD
HETATM    4  C5  UNL     1      15.938  18.859  56.959  1.00  0.00     0.104 C
HETATM    5  C7  UNL     1      17.239  19.481  56.646  1.00  0.00     0.061 C
HETATM    6  C8  UNL     1      18.458  18.783  57.165  1.00  0.00     0.219 C
HETATM    7  C9  UNL     1      18.224  17.344  57.581  1.00  0.00     0.255 C
ENDROOT
BRANCH   1   8
HETATM    8  N1  UNL     1      16.800  15.366  57.185  1.00  0.00    -0.397 N
ATOM      9  H1  UNL     1      16.757  15.048  58.153  1.00  0.00     0.155 HD
BRANCH   8  10
HETATM   10  C3  UNL     1      16.559  14.479  56.099  1.00  0.00     0.142 C
BRANCH  10  11
HETATM   11  C2  UNL     1      17.874  13.988  55.509  1.00  0.00    -0.018 C
HETATM   12  C1  UNL     1      18.316  14.460  54.365  1.00  0.00     0.008 C
ENDBRANCH  10  11
ENDBRANCH   8  10
ENDBRANCH   1   8
BRANCH   7  13
HETATM   13  N4  UNL     1      19.453  16.648  57.262  1.00  0.00    -0.069 N
ATOM     14  H43 UNL     1      19.317  15.933  56.548  1.00  0.00     0.275 HD
ATOM     15  H42 UNL     1      20.110  17.238  56.753  1.00  0.00     0.275 HD
ATOM     16  H41 UNL     1      19.858  16.267  58.117  1.00  0.00     0.275 HD
ENDBRANCH   7  13
BRANCH   4  17
HETATM   17  C6  UNL     1      14.848  19.370  55.999  1.00  0.00     0.189 C
BRANCH  17  18
HETATM   18  O1  UNL     1      13.735  18.554  55.980  1.00  0.00    -0.399 OA
ATOM     19  H1  UNL     1      12.970  18.990  55.621  1.00  0.00     0.209 HD
ENDBRANCH  17  18
ENDBRANCH   4  17
BRANCH   6  20
HETATM   20  N3  UNL     1      19.513  18.781  56.157  1.00  0.00    -0.073 N
ATOM     21  H33 UNL     1      19.149  18.990  55.228  1.00  0.00     0.274 HD
ATOM     22  H32 UNL     1      20.137  19.582  56.259  1.00  0.00     0.274 HD
ATOM     23  H31 UNL     1      20.022  17.898  56.176  1.00  0.00     0.274 HD
ENDBRANCH   6  20
TORSDOF 7
ENDMDL