MODEL 5
REMARK VINA RESULT: -4.310816042      2.594      3.748
REMARK  7 active torsions:
REMARK  status: ('A' for Active; 'I' for Inactive)
REMARK    1  A    between atoms: C2_7  and  C3_8
REMARK    2  A    between atoms: C3_8  and  C4_9
REMARK    3  A    between atoms: C4_9  and  O1_10
REMARK    4  A    between atoms: C5_14  and  N4_15
REMARK    5  A    between atoms: N4_15  and  C6_17
REMARK    6  A    between atoms: C6_17  and  C7_18
REMARK    7  A    between atoms: C7_18  and  N5_19
ROOT
HETATM    1  N1  UNL     1      15.619  20.316  58.270  1.00  0.00    -0.234 N
ATOM      2  H11 UNL     1      14.705  20.256  57.822  1.00  0.00     0.174 HD
ATOM      3  H12 UNL     1      15.915  21.188  58.711  1.00  0.00     0.174 HD
HETATM    4  C1  UNL     1      16.411  19.300  58.289  1.00  0.00     0.691 A
HETATM    5  N2  UNL     1      17.637  19.381  58.890  1.00  0.00    -0.180 N
ATOM      6  H2  UNL     1      17.913  20.261  59.325  1.00  0.00     0.185 HD
HETATM    7  C2  UNL     1      18.491  18.344  58.931  1.00  0.00     0.115 A
HETATM    8  N3  UNL     1      18.066  17.211  58.339  1.00  0.00    -0.180 N
ATOM      9  H3  UNL     1      18.679  16.396  58.344  1.00  0.00     0.185 HD
HETATM   10  C5  UNL     1      16.863  17.112  57.741  1.00  0.00     0.694 A
HETATM   11  N6  UNL     1      16.023  18.154  57.709  1.00  0.00    -0.023 N
ATOM     12  H6  UNL     1      15.112  18.079  57.256  1.00  0.00     0.203 HD
ENDROOT
BRANCH  10  13
HETATM   13  N4  UNL     1      16.469  16.003  57.171  1.00  0.00    -0.224 N
ATOM     14  H4  UNL     1      15.657  15.505  57.537  1.00  0.00     0.177 HD
BRANCH  13  15
HETATM   15  C6  UNL     1      17.177  15.479  56.026  1.00  0.00     0.165 C
BRANCH  15  16
HETATM   16  C7  UNL     1      16.901  14.005  55.823  1.00  0.00     0.249 C
BRANCH  16  17
HETATM   17  N5  UNL     1      17.970  13.352  55.094  1.00  0.00    -0.078 N
ATOM     18  H53 UNL     1      17.812  13.395  54.087  1.00  0.00     0.274 HD
ATOM     19  H52 UNL     1      18.835  13.889  55.143  1.00  0.00     0.274 HD
ATOM     20  H51 UNL     1      18.111  12.391  55.407  1.00  0.00     0.274 HD
ENDBRANCH  16  17
ENDBRANCH  15  16
ENDBRANCH  13  15
ENDBRANCH  10  13
BRANCH   7  21
HETATM   21  C3  UNL     1      19.819  18.420  59.580  1.00  0.00     0.103 C
BRANCH  21  22
HETATM   22  C4  UNL     1      20.436  17.093  59.878  1.00  0.00     0.171 C
BRANCH  22  23
HETATM   23  O1  UNL     1      19.764  16.336  60.801  1.00  0.00    -0.400 OA
ATOM     24  H1  UNL     1      20.273  15.635  61.192  1.00  0.00     0.209 HD
ENDBRANCH  22  23
ENDBRANCH  21  22
ENDBRANCH   7  21
TORSDOF 7
ENDMDL