MODEL 2
REMARK VINA RESULT: -4.237741974      1.436      1.810
REMARK  4 active torsions:
REMARK  status: ('A' for Active; 'I' for Inactive)
REMARK    1  A    between atoms: C2_3  and  C3_4
REMARK    2  A    between atoms: C2_3  and  N5_18
REMARK    3  A    between atoms: C3_4  and  C4_5
REMARK    4  A    between atoms: N5_18  and  C8_20
ROOT
HETATM    1  N1  UNL     1      20.312  18.034  51.339  1.00  0.00    -0.195 NA
HETATM    2  C1  UNL     1      19.394  17.404  51.732  1.00  0.00     0.084 C
HETATM    3  C2  UNL     1      18.305  16.620  52.246  1.00  0.00     0.192 C
ENDROOT
BRANCH   3   4
HETATM    4  C3  UNL     1      18.824  15.261  52.761  1.00  0.00     0.141 C
BRANCH   4   5
HETATM    5  C4  UNL     1      18.784  15.113  54.219  1.00  0.00     0.451 C
HETATM    6  N2  UNL     1      18.144  13.906  54.707  1.00  0.00    -0.013 N
HETATM    7  C5  UNL     1      17.756  14.199  56.096  1.00  0.00     0.272 C
ATOM      8  H22 UNL     1      17.369  13.588  54.123  1.00  0.00     0.282 HD
ATOM      9  H21 UNL     1      18.718  13.069  54.610  1.00  0.00     0.282 HD
HETATM   10  C6  UNL     1      18.090  15.649  56.220  1.00  0.00     0.242 C
HETATM   11  C7  UNL     1      19.588  15.797  56.298  1.00  0.00     0.272 C
HETATM   12  N4  UNL     1      17.880  16.108  54.846  1.00  0.00    -0.008 N
HETATM   13  N3  UNL     1      19.982  15.322  54.958  1.00  0.00    -0.013 N
ATOM     14  H32 UNL     1      20.583  14.499  54.986  1.00  0.00     0.282 HD
ATOM     15  H31 UNL     1      20.638  15.947  54.489  1.00  0.00     0.282 HD
ATOM     16  H42 UNL     1      18.050  17.094  54.646  1.00  0.00     0.282 HD
ATOM     17  H41 UNL     1      16.920  16.155  54.506  1.00  0.00     0.282 HD
ENDBRANCH   4   5
ENDBRANCH   3   4
BRANCH   3  18
HETATM   18  N5  UNL     1      17.274  16.341  51.353  1.00  0.00    -0.378 N
ATOM     19  H5  UNL     1      16.821  15.430  51.421  1.00  0.00     0.156 HD
BRANCH  18  20
HETATM   20  C8  UNL     1      16.820  17.221  50.377  1.00  0.00     0.306 A
HETATM   21  C9  UNL     1      15.583  16.913  49.585  1.00  0.00     0.288 A
HETATM   22  N6  UNL     1      16.866  16.859  48.968  1.00  0.00    -0.049 N
ATOM     23  H62 UNL     1      17.267  17.304  48.142  1.00  0.00     0.279 HD
ATOM     24  H61 UNL     1      17.363  16.136  48.446  1.00  0.00     0.279 HD
ENDBRANCH  18  20
ENDBRANCH   3  18
TORSDOF 4
ENDMDL