MODEL 2
REMARK VINA RESULT: -4.001130281      1.846      4.914
REMARK  6 active torsions:
REMARK  status: ('A' for Active; 'I' for Inactive)
REMARK    1  A    between atoms: N1_1  and  C1_5
REMARK    2  A    between atoms: C1_5  and  C2_6
REMARK    3  A    between atoms: C2_6  and  C3_7
REMARK    4  A    between atoms: C3_7  and  N2_8
REMARK       I    between atoms: C4_10  and  N4_12
REMARK    5  A    between atoms: N4_12  and  C5_14
REMARK    6  A    between atoms: C7_18  and  N7_19
ROOT
HETATM    1  N2  UNL     1      16.646  17.812  57.832  1.00  0.00    -0.365 N
ATOM      2  H2  UNL     1      15.879  17.730  58.499  1.00  0.00     0.162 HD
HETATM    3  C4  UNL     1      17.219  16.732  57.486  1.00  0.00     0.185 C
HETATM    4  N3  UNL     1      16.779  15.506  58.025  1.00  0.00    -0.064 NA
HETATM    5  N4  UNL     1      18.295  16.715  56.568  1.00  0.00    -0.343 N
ATOM      6  H4  UNL     1      18.990  17.459  56.633  1.00  0.00     0.164 HD
ENDROOT
BRANCH   1   7
HETATM    7  C3  UNL     1      16.967  19.131  57.382  1.00  0.00     0.124 C
BRANCH   7   8
HETATM    8  C2  UNL     1      15.674  19.856  57.092  1.00  0.00     0.047 C
BRANCH   8   9
HETATM    9  C1  UNL     1      15.028  19.236  55.898  1.00  0.00     0.231 C
BRANCH   9  10
HETATM   10  N1  UNL     1      13.595  19.303  56.039  1.00  0.00    -0.079 N
ATOM     11  H13 UNL     1      13.313  19.604  56.972  1.00  0.00     0.274 HD
ATOM     12  H12 UNL     1      13.191  20.075  55.509  1.00  0.00     0.274 HD
ATOM     13  H11 UNL     1      13.187  18.404  55.785  1.00  0.00     0.274 HD
ENDBRANCH   9  10
ENDBRANCH   8   9
ENDBRANCH   7   8
ENDBRANCH   1   7
BRANCH   5  14
HETATM   14  C5  UNL     1      18.469  15.721  55.555  1.00  0.00     0.226 C
HETATM   15  N5  UNL     1      17.317  15.561  54.704  1.00  0.00    -0.121 NA
HETATM   16  N6  UNL     1      17.734  15.531  53.391  1.00  0.00    -0.144 NA
HETATM   17  C6  UNL     1      19.159  15.249  53.389  1.00  0.00     0.166 C
HETATM   18  C7  UNL     1      19.594  16.051  54.600  1.00  0.00     0.238 C
BRANCH  18  19
HETATM   19  N7  UNL     1      20.878  15.652  55.105  1.00  0.00    -0.070 N
ATOM     20  H73 UNL     1      21.000  15.948  56.073  1.00  0.00     0.274 HD
ATOM     21  H72 UNL     1      20.923  14.642  55.236  1.00  0.00     0.274 HD
ATOM     22  H71 UNL     1      21.646  15.982  54.520  1.00  0.00     0.274 HD
ENDBRANCH  18  19
ENDBRANCH   5  14
TORSDOF 6
ENDMDL