MODEL 1
REMARK VINA RESULT: -4.006935872      0.000      0.000
REMARK  7 active torsions:
REMARK  status: ('A' for Active; 'I' for Inactive)
REMARK    1  A    between atoms: N1_2  and  C2_4
REMARK    2  A    between atoms: C4_6  and  N2_7
REMARK    3  A    between atoms: N2_7  and  C5_9
REMARK    4  A    between atoms: C5_9  and  C6_10
REMARK    5  A    between atoms: C6_10  and  N3_11
REMARK    6  A    between atoms: C8_16  and  N4_17
REMARK    7  A    between atoms: C9_21  and  O1_22
ROOT
HETATM    1  C2  UNL     1      17.683  17.279  58.339  1.00  0.00     0.112 C
HETATM    2  C3  UNL     1      18.670  18.101  57.570  1.00  0.00     0.052 C
HETATM    3  C4  UNL     1      18.267  18.448  56.182  1.00  0.00     0.084 C
HETATM    4  C7  UNL     1      17.748  17.295  55.357  1.00  0.00     0.060 C
HETATM    5  C8  UNL     1      17.317  16.103  56.142  1.00  0.00     0.216 C
HETATM    6  C9  UNL     1      16.779  16.430  57.497  1.00  0.00     0.171 C
ENDROOT
BRANCH   3   7
HETATM    7  N2  UNL     1      17.398  19.532  55.995  1.00  0.00    -0.396 N
ATOM      8  H2  UNL     1      17.652  20.472  56.297  1.00  0.00     0.159 HD
BRANCH   7   9
HETATM    9  C5  UNL     1      16.160  19.273  55.374  1.00  0.00     0.082 C
BRANCH   9  10
HETATM   10  C6  UNL     1      15.006  19.641  56.252  1.00  0.00     0.273 C
BRANCH  10  11
HETATM   11  N3  UNL     1      13.763  18.965  55.860  1.00  0.00    -0.075 N
ATOM     12  H33 UNL     1      12.974  19.612  55.874  1.00  0.00     0.274 HD
ATOM     13  H32 UNL     1      13.769  18.733  54.867  1.00  0.00     0.274 HD
ATOM     14  H31 UNL     1      13.571  18.141  56.429  1.00  0.00     0.274 HD
ENDBRANCH  10  11
ENDBRANCH   9  10
ENDBRANCH   7   9
ENDBRANCH   3   7
BRANCH   1  15
HETATM   15  N1  UNL     1      16.907  18.103  59.243  1.00  0.00    -0.401 N
HETATM   16  C1  UNL     1      17.317  19.237  59.658  1.00  0.00     0.112 C
ATOM     17  H1  UNL     1      15.998  17.764  59.558  1.00  0.00     0.158 HD
ENDBRANCH   1  15
BRANCH   5  18
HETATM   18  N4  UNL     1      18.390  15.124  56.257  1.00  0.00    -0.072 N
ATOM     19  H43 UNL     1      19.142  15.314  55.593  1.00  0.00     0.274 HD
ATOM     20  H42 UNL     1      18.913  15.244  57.124  1.00  0.00     0.274 HD
ATOM     21  H41 UNL     1      18.039  14.172  56.161  1.00  0.00     0.274 HD
ENDBRANCH   5  18
BRANCH   6  22
HETATM   22  O1  UNL     1      16.505  15.222  58.143  1.00  0.00    -0.391 OA
ATOM     23  H1  UNL     1      15.766  15.322  58.732  1.00  0.00     0.210 HD
ENDBRANCH   6  22
TORSDOF 7
ENDMDL