MODEL 3
REMARK VINA RESULT: -4.748365172      1.906      6.444
REMARK  6 active torsions:
REMARK  status: ('A' for Active; 'I' for Inactive)
REMARK    1  A    between atoms: N1_1  and  N2_4
REMARK    2  A    between atoms: N2_4  and  C1_6
REMARK    3  A    between atoms: C1_6  and  N3_7
REMARK       I    between atoms: N3_7  and  C2_9
REMARK       I    between atoms: C2_9  and  N5_11
REMARK    4  A    between atoms: N5_11  and  N6_13
REMARK    5  A    between atoms: N6_13  and  C3_15
REMARK    6  A    between atoms: C3_15  and  C4_16
ROOT
HETATM    1  N3  UNL     1      16.736  14.562  56.968  1.00  0.00    -0.324 N
ATOM      2  H3  UNL     1      16.696  13.999  57.817  1.00  0.00     0.169 HD
HETATM    3  C2  UNL     1      16.751  15.967  57.054  1.00  0.00     0.208 C
HETATM    4  N4  UNL     1      16.792  16.737  55.875  1.00  0.00    -0.062 NA
HETATM    5  N5  UNL     1      16.726  16.520  58.214  1.00  0.00    -0.274 N
ATOM      6  H5  UNL     1      16.695  15.937  59.051  1.00  0.00     0.189 HD
ENDROOT
BRANCH   5   7
HETATM    7  N6  UNL     1      16.739  17.891  58.338  1.00  0.00    -0.307 N
ATOM      8  H6  UNL     1      16.210  18.433  57.655  1.00  0.00     0.186 HD
BRANCH   7   9
HETATM    9  C3  UNL     1      17.369  18.535  59.249  1.00  0.00     0.140 C
BRANCH   9  10
HETATM   10  C4  UNL     1      16.622  19.321  60.217  1.00  0.00     0.091 A
HETATM   11  N7  UNL     1      16.436  19.079  61.506  1.00  0.00    -0.348 N
HETATM   12  C5  UNL     1      15.688  20.026  62.089  1.00  0.00     0.182 A
ATOM     13  H7  UNL     1      16.815  18.269  61.996  1.00  0.00     0.167 HD
HETATM   14  N8  UNL     1      15.394  20.904  61.115  1.00  0.00    -0.339 N
HETATM   15  C6  UNL     1      15.945  20.509  59.958  1.00  0.00     0.145 A
ATOM     16  H8  UNL     1      14.834  21.747  61.238  1.00  0.00     0.167 HD
HETATM   17  N9  UNL     1      15.870  21.158  58.693  1.00  0.00    -0.080 NA
ENDBRANCH   9  10
ENDBRANCH   7   9
ENDBRANCH   5   7
BRANCH   1  18
HETATM   18  C1  UNL     1      16.772  13.990  55.821  1.00  0.00     0.199 C
BRANCH  18  19
HETATM   19  N2  UNL     1      18.060  13.671  55.278  1.00  0.00    -0.303 N
ATOM     20  H2  UNL     1      18.586  12.856  55.595  1.00  0.00     0.187 HD
BRANCH  19  21
HETATM   21  N1  UNL     1      18.562  14.523  54.298  1.00  0.00    -0.344 N
ATOM     22  H12 UNL     1      19.476  14.350  53.880  1.00  0.00     0.176 HD
ATOM     23  H11 UNL     1      17.977  15.314  54.027  1.00  0.00     0.176 HD
ENDBRANCH  19  21
ENDBRANCH  18  19
ENDBRANCH   1  18
TORSDOF 6
ENDMDL