MODEL 5
REMARK VINA RESULT: -6.800373767      3.093      7.164
REMARK  6 active torsions:
REMARK  status: ('A' for Active; 'I' for Inactive)
REMARK       I    between atoms: N2_6  and  C4_8
REMARK       I    between atoms: C4_8  and  N3_9
REMARK       I    between atoms: C4_8  and  N4_13
REMARK    1  A    between atoms: N6_19  and  O1_20
REMARK    2  A    between atoms: C5_22  and  C6_23
REMARK    3  A    between atoms: C6_23  and  C7_24
REMARK    4  A    between atoms: C8_29  and  C9_30
REMARK       I    between atoms: C9_30  and  N9_32
REMARK    5  A    between atoms: N9_32  and  O3_33
REMARK    6  A    between atoms: O3_33  and  C10_34
ROOT
HETATM    1  C1  UNL     1      -2.520  16.723  10.440  1.00  0.00     0.071 C
HETATM    2  C2  UNL     1      -1.189  16.473   9.768  1.00  0.00     0.050 A
HETATM    3  N1  UNL     1      -0.379  15.590  10.388  1.00  0.00    -0.193 N
ATOM      4  H1  UNL     1      -0.718  15.086  11.208  1.00  0.00     0.184 HD
HETATM    5  C3  UNL     1       0.858  15.366   9.944  1.00  0.00     0.698 A
HETATM    6  N2  UNL     1       1.568  14.504  10.448  1.00  0.00    -0.172 N
ATOM      7  H2  UNL     1       2.457  14.509   9.949  1.00  0.00     0.181 HD
HETATM    8  C4  UNL     1       1.647  13.535  11.413  1.00  0.00     0.494 C
HETATM    9  N3  UNL     1       2.142  13.925  12.752  1.00  0.00    -0.032 N
ATOM     10  H31 UNL     1       2.200  13.203  13.471  1.00  0.00     0.278 HD
ATOM     11  H32 UNL     1       1.580  14.701  13.103  1.00  0.00     0.278 HD
ATOM     12  H33 UNL     1       3.052  14.373  12.654  1.00  0.00     0.278 HD
HETATM   13  N4  UNL     1       2.636  12.534  10.906  1.00  0.00    -0.032 N
ATOM     14  H41 UNL     1       2.694  11.813  11.625  1.00  0.00     0.278 HD
ATOM     15  H42 UNL     1       3.538  12.941  10.661  1.00  0.00     0.278 HD
ATOM     16  H43 UNL     1       2.410  12.171   9.980  1.00  0.00     0.278 HD
HETATM   17  N5  UNL     1       1.279  16.079   8.823  1.00  0.00    -0.106 N
ATOM     18  H5  UNL     1       2.222  15.932   8.463  1.00  0.00     0.208 HD
HETATM   19  N6  UNL     1       0.498  16.927   8.230  1.00  0.00    -0.151 N
HETATM   20  C5  UNL     1      -0.772  17.157   8.675  1.00  0.00     0.089 A
ENDROOT
BRANCH  20  21
HETATM   21  C6  UNL     1      -1.670  17.945   7.841  1.00  0.00     0.141 C
BRANCH  21  22
HETATM   22  C7  UNL     1      -2.595  17.075   7.055  1.00  0.00     0.103 A
HETATM   23  N7  UNL     1      -3.885  17.157   6.775  1.00  0.00    -0.287 N
HETATM   24  N8  UNL     1      -4.201  16.054   6.068  1.00  0.00    -0.279 N
ATOM     25  H7  UNL     1      -4.519  17.910   7.042  1.00  0.00     0.188 HD
HETATM   26  C8  UNL     1      -3.121  15.306   5.915  1.00  0.00     0.208 A
ATOM     27  H8  UNL     1      -5.129  15.830   5.707  1.00  0.00     0.189 HD
HETATM   28  N12 UNL     1      -2.135  15.958   6.531  1.00  0.00    -0.324 N
ATOM     29  H12 UNL     1      -1.168  15.639   6.589  1.00  0.00     0.169 HD
BRANCH  26  30
HETATM   30  C9  UNL     1      -2.969  13.958   5.246  1.00  0.00     0.389 C
HETATM   31  O2  UNL     1      -3.985  13.240   5.263  1.00  0.00    -0.245 OA
HETATM   32  N9  UNL     1      -1.772  13.682   4.712  1.00  0.00    -0.225 NA
BRANCH  32  33
HETATM   33  O3  UNL     1      -0.594  13.407   4.185  1.00  0.00    -0.128 OA
BRANCH  33  34
HETATM   34  C10 UNL     1       0.608  13.905   4.733  1.00  0.00     0.264 C
HETATM   35  N10 UNL     1       1.637  13.668   4.033  1.00  0.00    -0.365 N
ATOM     36 2H10 UNL     1       1.627  13.169   3.144  1.00  0.00     0.159 HD
ATOM     37 1H10 UNL     1       2.506  14.028   4.429  1.00  0.00     0.159 HD
HETATM   38  N11 UNL     1       0.621  14.597   5.966  1.00  0.00    -0.054 NA
ENDBRANCH  33  34
ENDBRANCH  32  33
ENDBRANCH  26  30
ENDBRANCH  21  22
ENDBRANCH  20  21
BRANCH  19  39
HETATM   39  O1  UNL     1       0.976  17.599   7.120  1.00  0.00    -0.267 OA
ATOM     40  H1  UNL     1       0.621  17.376   6.267  1.00  0.00     0.247 HD
ENDBRANCH  19  39
TORSDOF 6
ENDMDL