MODEL 3
REMARK VINA RESULT: -6.053733602      0.975      1.043
REMARK  9 active torsions:
REMARK  status: ('A' for Active; 'I' for Inactive)
REMARK    1  A    between atoms: N1_1  and  C1_4
REMARK    2  A    between atoms: C4_9  and  S1_10
REMARK    3  A    between atoms: C5_16  and  N4_17
REMARK    4  A    between atoms: C7_23  and  N6_24
REMARK    5  A    between atoms: N6_24  and  O4_25
REMARK    6  A    between atoms: N6_24  and  O5_27
REMARK    7  A    between atoms: C8_29  and  C9_30
REMARK    8  A    between atoms: C9_30  and  C10_31
REMARK    9  A    between atoms: C10_31  and  O6_32
ROOT
HETATM    1  C1  UNL     1      -3.078  12.803   4.531  1.00  0.00     0.678 A
HETATM    2  N2  UNL     1      -2.652  13.509   5.578  1.00  0.00    -0.174 N
ATOM      3  H2  UNL     1      -3.313  13.771   6.309  1.00  0.00     0.186 HD
HETATM    4  C2  UNL     1      -1.367  13.882   5.686  1.00  0.00     0.161 A
HETATM    5  C3  UNL     1      -0.469  13.522   4.684  1.00  0.00     0.096 A
HETATM    6  C4  UNL     1      -0.876  12.786   3.575  1.00  0.00     0.183 A
HETATM    7  N3  UNL     1      -2.211  12.463   3.574  1.00  0.00    -0.177 N
ATOM      8  H3  UNL     1      -2.566  11.923   2.785  1.00  0.00     0.185 HD
HETATM    9  C5  UNL     1       0.835  13.904   4.836  1.00  0.00     0.117 A
HETATM   10  N5  UNL     1       1.186  14.610   5.938  1.00  0.00    -0.325 N
ATOM     11  H5  UNL     1       2.158  14.897   6.049  1.00  0.00     0.169 HD
HETATM   12  C6  UNL     1       0.300  14.946   6.890  1.00  0.00     0.159 A
HETATM   13  C7  UNL     1       0.374  15.642   8.086  1.00  0.00     0.135 A
HETATM   14  C8  UNL     1      -0.873  15.690   8.674  1.00  0.00     0.058 A
HETATM   15  N7  UNL     1      -1.684  15.019   7.818  1.00  0.00    -0.293 N
ATOM     16  H7  UNL     1      -2.684  14.868   7.954  1.00  0.00     0.187 HD
HETATM   17  N8  UNL     1      -0.986  14.590   6.782  1.00  0.00    -0.220 N
ENDROOT
BRANCH  13  18
HETATM   18  N6  UNL     1       1.574  16.213   8.604  1.00  0.00    -0.030 NA
BRANCH  18  19
HETATM   19  O4  UNL     1       2.459  16.503   7.594  1.00  0.00    -0.284 OA
ATOM     20  H4  UNL     1       2.018  16.923   6.865  1.00  0.00     0.240 HD
ENDBRANCH  18  19
BRANCH  18  21
HETATM   21  O5  UNL     1       2.135  15.390   9.510  1.00  0.00    -0.284 OA
ATOM     22  H5  UNL     1       2.868  14.924   9.126  1.00  0.00     0.240 HD
ENDBRANCH  18  21
ENDBRANCH  13  18
BRANCH  14  23
HETATM   23  C9  UNL     1      -1.262  16.332   9.964  1.00  0.00     0.086 C
BRANCH  23  24
HETATM   24  C10 UNL     1      -2.474  17.204   9.826  1.00  0.00     0.170 C
BRANCH  24  25
HETATM   25  O6  UNL     1      -2.281  18.013   8.700  1.00  0.00    -0.400 OA
ATOM     26  H6  UNL     1      -3.133  18.157   8.305  1.00  0.00     0.209 HD
ENDBRANCH  24  25
ENDBRANCH  23  24
ENDBRANCH  14  23
BRANCH   9  27
HETATM   27  N4  UNL     1       1.692  13.578   3.962  1.00  0.00    -0.385 N
ATOM     28  H42 UNL     1       1.758  12.621   3.615  1.00  0.00     0.157 HD
ATOM     29  H41 UNL     1       2.321  14.285   3.581  1.00  0.00     0.157 HD
ENDBRANCH   9  27
BRANCH   6  30
HETATM   30  S1  UNL     1       0.175  12.376   2.310  1.00  0.00     0.156 S
HETATM   31  O1  UNL     1      -0.736  11.682   1.263  1.00  0.00    -0.590 OA
HETATM   32  O2  UNL     1       1.121  11.229   2.517  1.00  0.00    -0.590 OA
HETATM   33  O3  UNL     1       0.742  13.597   1.314  1.00  0.00    -0.590 OA
ENDBRANCH   6  30
BRANCH   1  34
HETATM   34  N1  UNL     1      -4.322  12.442   4.425  1.00  0.00    -0.234 N
ATOM     35  H12 UNL     1      -4.912  12.873   3.713  1.00  0.00     0.174 HD
ATOM     36  H11 UNL     1      -4.719  11.735   5.043  1.00  0.00     0.174 HD
ENDBRANCH   1  34
TORSDOF 9
ENDMDL