MODEL 3
REMARK VINA RESULT: -5.549110330      3.875      6.023
REMARK  6 active torsions:
REMARK  status: ('A' for Active; 'I' for Inactive)
REMARK       I    between atoms: C1_4  and  N2_5
REMARK       I    between atoms: C1_4  and  N4_10
REMARK    1  A    between atoms: N2_5  and  N3_7
REMARK    2  A    between atoms: N4_10  and  S1_12
REMARK    3  A    between atoms: S1_12  and  C2_14
REMARK    4  A    between atoms: C2_14  and  C3_15
REMARK    5  A    between atoms: C4_19  and  N6_20
REMARK    6  A    between atoms: C8_31  and  N11_32
ROOT
HETATM    1  C3  UNL     1      -0.559  14.689  12.844  1.00  0.00     0.343 C
HETATM    2  N5  UNL     1      -1.722  14.006  12.322  1.00  0.00    -0.002 N
ATOM      3  H51 UNL     1      -2.326  13.439  12.917  1.00  0.00     0.285 HD
ATOM      4  H52 UNL     1      -1.641  13.199  11.704  1.00  0.00     0.285 HD
HETATM    5  C4  UNL     1      -2.131  15.310  11.834  1.00  0.00     0.455 C
HETATM    6  O4  UNL     1      -0.844  15.808  12.030  1.00  0.00    -0.308 OA
ENDROOT
BRANCH   5   7
HETATM    7  N6  UNL     1      -2.561  15.260  10.454  1.00  0.00    -0.204 N
HETATM    8  N7  UNL     1      -3.245  14.215   9.827  1.00  0.00    -0.014 NA
HETATM    9  N8  UNL     1      -3.995  14.851   8.832  1.00  0.00    -0.277 N
HETATM   10  C5  UNL     1      -3.279  16.010   8.421  1.00  0.00     0.135 A
ATOM     11  H8  UNL     1      -4.894  14.539   8.466  1.00  0.00     0.184 HD
HETATM   12  C6  UNL     1      -2.383  16.258   9.443  1.00  0.00     0.158 A
HETATM   13  C8  UNL     1      -3.348  16.804   7.299  1.00  0.00     0.132 A
HETATM   14  N9  UNL     1      -1.553  17.305   9.345  1.00  0.00    -0.335 N
HETATM   15  C7  UNL     1      -1.619  18.083   8.250  1.00  0.00     0.183 A
ATOM     16  H9  UNL     1      -0.883  17.508  10.087  1.00  0.00     0.168 HD
HETATM   17  N10 UNL     1      -2.502  17.845   7.236  1.00  0.00    -0.337 N
ATOM     18  H10 UNL     1      -2.519  18.462   6.424  1.00  0.00     0.168 HD
BRANCH  13  19
HETATM   19  N11 UNL     1      -4.177  16.587   6.338  1.00  0.00    -0.383 N
ATOM     20 2H11 UNL     1      -3.841  16.228   5.444  1.00  0.00     0.157 HD
ATOM     21 1H11 UNL     1      -5.179  16.759   6.421  1.00  0.00     0.157 HD
ENDBRANCH  13  19
ENDBRANCH   5   7
BRANCH   1  22
HETATM   22  C2  UNL     1       0.773  14.097  12.426  1.00  0.00     0.194 C
BRANCH  22  23
HETATM   23  S1  UNL     1       1.397  15.069  11.079  1.00  0.00     0.132 S
HETATM   24  O3  UNL     1       3.062  14.772  10.976  1.00  0.00    -0.235 OA
BRANCH  23  25
HETATM   25  N4  UNL     1       0.624  14.519   9.638  1.00  0.00    -0.137 N
HETATM   26  C1  UNL     1       1.076  14.926   8.352  1.00  0.00     0.703 C
HETATM   27  N1  UNL     1       1.583  16.120   8.240  1.00  0.00    -0.233 N
HETATM   28  N2  UNL     1       0.986  14.079   7.216  1.00  0.00    -0.072 N
ATOM     29  H12 UNL     1       1.907  16.412   7.318  1.00  0.00     0.174 HD
ATOM     30  H11 UNL     1       1.647  16.728   9.057  1.00  0.00     0.174 HD
ATOM     31  H2  UNL     1       1.464  13.178   7.220  1.00  0.00     0.212 HD
ATOM     32  H4  UNL     1      -0.175  13.887   9.710  1.00  0.00     0.195 HD
BRANCH  28  33
HETATM   33  N3  UNL     1       0.251  14.467   6.095  1.00  0.00    -0.024 N
HETATM   34  O1  UNL     1      -0.750  15.215   6.291  1.00  0.00    -0.516 OA
HETATM   35  O2  UNL     1       0.590  14.062   4.838  1.00  0.00    -0.516 OA
ENDBRANCH  28  33
ENDBRANCH  23  25
ENDBRANCH  22  23
ENDBRANCH   1  22
TORSDOF 6
ENDMDL