MODEL 3
REMARK VINA RESULT: -5.943730944      5.900      8.829
REMARK  8 active torsions:
REMARK  status: ('A' for Active; 'I' for Inactive)
REMARK    1  A    between atoms: N1_1  and  C1_4
REMARK    2  A    between atoms: C4_9  and  N3_10
REMARK       I    between atoms: N5_16  and  C6_17
REMARK    3  A    between atoms: C6_17  and  C7_19
REMARK    4  A    between atoms: C7_19  and  N6_20
REMARK    5  A    between atoms: C8_23  and  C9_24
REMARK    6  A    between atoms: C9_24  and  N8_25
REMARK    7  A    between atoms: N9_28  and  N10_29
REMARK    8  A    between atoms: C10_32  and  O4_33
ROOT
HETATM    1  C1  UNL     1      -2.577  17.448   7.729  1.00  0.00     0.677 A
HETATM    2  N2  UNL     1      -2.581  16.598   8.787  1.00  0.00    -0.195 N
ATOM      3  H2  UNL     1      -3.477  16.313   9.183  1.00  0.00     0.184 HD
HETATM    4  C2  UNL     1      -1.459  16.119   9.332  1.00  0.00     0.040 A
HETATM    5  C3  UNL     1      -0.251  16.491   8.813  1.00  0.00     0.027 A
HETATM    6  C4  UNL     1      -0.255  17.362   7.728  1.00  0.00     0.124 A
HETATM    7  N4  UNL     1      -1.391  17.834   7.194  1.00  0.00    -0.177 N
ATOM      8  H4  UNL     1      -1.364  18.472   6.398  1.00  0.00     0.185 HD
HETATM    9  C5  UNL     1       0.993  15.987   9.389  1.00  0.00     0.170 C
HETATM   10  N5  UNL     1       0.828  14.836  10.240  1.00  0.00    -0.346 N
HETATM   11  C6  UNL     1       2.007  14.306  10.831  1.00  0.00     0.239 C
HETATM   12  O1  UNL     1       3.143  14.854  10.593  1.00  0.00    -0.271 OA
HETATM   13  C11 UNL     1      -0.431  14.208  10.517  1.00  0.00     0.132 C
HETATM   14  C12 UNL     1      -1.588  15.187  10.485  1.00  0.00     0.078 C
ENDROOT
BRANCH  11  15
HETATM   15  C7  UNL     1       1.903  13.130  11.712  1.00  0.00     0.250 C
BRANCH  15  16
HETATM   16  N6  UNL     1       3.217  12.765  12.256  1.00  0.00    -0.270 N
HETATM   17  N7  UNL     1       3.933  13.319  13.278  1.00  0.00    -0.284 N
HETATM   18  C8  UNL     1       5.102  12.788  13.421  1.00  0.00     0.141 C
ATOM     19  H7  UNL     1       3.581  14.073  13.868  1.00  0.00     0.188 HD
HETATM   20  N9  UNL     1       5.221  11.788  12.427  1.00  0.00    -0.235 N
HETATM   21  C10 UNL     1       3.959  11.659  11.694  1.00  0.00     0.367 C
BRANCH  18  22
HETATM   22  C9  UNL     1       6.132  13.161  14.439  1.00  0.00     0.280 C
BRANCH  22  23
HETATM   23  N8  UNL     1       6.038  14.499  14.894  1.00  0.00    -0.148 N
HETATM   24  O2  UNL     1       6.914  15.370  14.624  1.00  0.00    -0.536 OA
HETATM   25  O3  UNL     1       4.988  14.918  15.655  1.00  0.00    -0.536 OA
ENDBRANCH  22  23
ENDBRANCH  18  22
BRANCH  20  26
HETATM   26  N10 UNL     1       6.336  10.987  12.124  1.00  0.00    -0.338 N
ATOM     27 2H10 UNL     1       7.206  11.059  12.651  1.00  0.00     0.177 HD
ATOM     28 1H10 UNL     1       6.429  10.283  11.392  1.00  0.00     0.177 HD
ENDBRANCH  20  26
BRANCH  21  29
HETATM   29  O4  UNL     1       4.158  11.859  10.328  1.00  0.00    -0.357 OA
ATOM     30  H4  UNL     1       4.694  11.162   9.971  1.00  0.00     0.214 HD
ENDBRANCH  21  29
ENDBRANCH  15  16
ENDBRANCH  11  15
BRANCH   6  31
HETATM   31  N3  UNL     1       0.869  17.732   7.216  1.00  0.00    -0.385 N
ATOM     32  H32 UNL     1       1.729  17.531   7.727  1.00  0.00     0.157 HD
ATOM     33  H31 UNL     1       0.871  18.212   6.316  1.00  0.00     0.157 HD
ENDBRANCH   6  31
BRANCH   1  34
HETATM   34  N1  UNL     1      -3.671  17.901   7.217  1.00  0.00    -0.234 N
ATOM     35  H12 UNL     1      -4.556  17.469   7.479  1.00  0.00     0.174 HD
ATOM     36  H11 UNL     1      -3.673  18.679   6.556  1.00  0.00     0.174 HD
ENDBRANCH   1  34
TORSDOF 8
ENDMDL