MODEL 3
REMARK VINA RESULT: -6.025691489      3.017      4.136
REMARK  5 active torsions:
REMARK  status: ('A' for Active; 'I' for Inactive)
REMARK    1  A    between atoms: N4_10  and  C4_11
REMARK    2  A    between atoms: C4_11  and  O1_12
REMARK    3  A    between atoms: C4_11  and  C5_14
REMARK    4  A    between atoms: C5_14  and  N5_15
REMARK    5  A    between atoms: N5_15  and  N6_16
REMARK       I    between atoms: N6_16  and  C6_18
ROOT
HETATM    1  C1  UNL     1       2.699  11.271   4.441  1.00  0.00     0.158 C
HETATM    2  N1  UNL     1       1.425  11.908   4.274  1.00  0.00    -0.330 N
HETATM    3  C2  UNL     1       0.747  12.498   5.270  1.00  0.00     0.141 A
HETATM    4  N2  UNL     1       0.969  12.733   6.590  1.00  0.00    -0.175 N
ATOM      5  H2  UNL     1       1.824  12.372   7.013  1.00  0.00     0.186 HD
HETATM    6  C3  UNL     1       0.116  13.415   7.354  1.00  0.00     0.688 A
HETATM    7  N3  UNL     1       0.395  13.588   8.584  1.00  0.00    -0.234 N
ATOM      8  H31 UNL     1      -0.257  14.110   9.169  1.00  0.00     0.174 HD
ATOM      9  H32 UNL     1       1.256  13.212   8.981  1.00  0.00     0.174 HD
HETATM   10  N4  UNL     1      -1.067  13.932   6.808  1.00  0.00    -0.092 N
HETATM   11  C7  UNL     1      -1.276  13.689   5.515  1.00  0.00     0.284 A
HETATM   12  O2  UNL     1      -2.347  14.115   4.960  1.00  0.00    -0.266 OA
HETATM   13  C8  UNL     1      -0.415  12.996   4.721  1.00  0.00     0.107 A
HETATM   14  C9  UNL     1      -0.420  12.690   3.362  1.00  0.00     0.085 A
HETATM   15  N9  UNL     1      -1.258  12.935   2.338  1.00  0.00    -0.349 N
ATOM     16  H9  UNL     1      -2.125  13.440   2.524  1.00  0.00     0.166 HD
HETATM   17  C10 UNL     1      -0.994  12.536   1.065  1.00  0.00     0.184 A
HETATM   18  N10 UNL     1       0.155  11.850   0.778  1.00  0.00    -0.318 N
ATOM     19  H10 UNL     1       0.365  11.543  -0.172  1.00  0.00     0.169 HD
HETATM   20  C11 UNL     1       0.995  11.598   1.795  1.00  0.00     0.275 A
HETATM   21  O3  UNL     1       2.064  10.969   1.564  1.00  0.00    -0.266 OA
HETATM   22  C12 UNL     1       0.748  12.004   3.106  1.00  0.00     0.132 A
ENDROOT
BRANCH  10  23
HETATM   23  C4  UNL     1      -1.878  14.687   7.667  1.00  0.00     0.159 C
BRANCH  23  24
HETATM   24  O1  UNL     1      -2.567  13.991   8.559  1.00  0.00    -0.347 OA
ATOM     25  H1  UNL     1      -3.245  14.473   9.018  1.00  0.00     0.219 HD
ENDBRANCH  23  24
BRANCH  23  26
HETATM   26  C5  UNL     1      -2.121  16.107   7.773  1.00  0.00     0.220 C
BRANCH  26  27
HETATM   27  N5  UNL     1      -1.086  16.854   7.083  1.00  0.00    -0.131 NA
BRANCH  27  28
HETATM   28  N6  UNL     1      -0.118  17.387   7.933  1.00  0.00    -0.277 N
HETATM   29  C6  UNL     1       1.275  17.345   7.721  1.00  0.00     0.197 C
HETATM   30  N7  UNL     1       1.808  18.256   7.039  1.00  0.00    -0.373 N
HETATM   31  N8  UNL     1       2.114  16.321   8.254  1.00  0.00    -0.063 NA
ATOM     32  H72 UNL     1       1.208  18.988   6.658  1.00  0.00     0.158 HD
ATOM     33  H71 UNL     1       2.816  18.226   6.884  1.00  0.00     0.158 HD
ATOM     34  H6  UNL     1      -0.447  17.846   8.782  1.00  0.00     0.185 HD
ENDBRANCH  27  28
ENDBRANCH  26  27
ENDBRANCH  23  26
ENDBRANCH  10  23
TORSDOF 5
ENDMDL