MODEL 1
REMARK VINA RESULT: -6.744379341      0.000      0.000
REMARK  8 active torsions:
REMARK  status: ('A' for Active; 'I' for Inactive)
REMARK    1  A    between atoms: N4_14  and  C7_15
REMARK    2  A    between atoms: C7_15  and  C8_16
REMARK    3  A    between atoms: C8_16  and  O2_17
REMARK    4  A    between atoms: C8_16  and  O3_19
REMARK    5  A    between atoms: C8_16  and  C9_21
REMARK    6  A    between atoms: C9_21  and  O4_22
REMARK    7  A    between atoms: C9_21  and  N5_24
REMARK    8  A    between atoms: N5_24  and  O5_25
ROOT
HETATM    1  N1  UNL     1      -4.746  13.285   2.891  1.00  0.00    -0.083 NA
HETATM    2  C1  UNL     1      -4.104  13.837   4.055  1.00  0.00     0.121 A
HETATM    3  C2  UNL     1      -4.764  14.627   4.935  1.00  0.00     0.077 A
HETATM    4  C3  UNL     1      -4.097  15.141   6.049  1.00  0.00     0.070 A
HETATM    5  N2  UNL     1      -4.774  15.879   6.930  1.00  0.00    -0.338 N
ATOM      6  H2  UNL     1      -5.758  16.096   6.771  1.00  0.00     0.167 HD
HETATM    7  C4  UNL     1      -4.131  16.352   8.063  1.00  0.00     0.144 A
HETATM    8  N3  UNL     1      -4.710  17.046   9.017  1.00  0.00    -0.301 N
ATOM      9  H3  UNL     1      -5.692  17.308   8.942  1.00  0.00     0.171 HD
HETATM   10  C5  UNL     1      -3.998  17.401  10.077  1.00  0.00     0.291 A
HETATM   11  O1  UNL     1      -4.365  18.064  11.093  1.00  0.00    -0.260 OA
HETATM   12  S1  UNL     1      -2.474  16.746   9.732  1.00  0.00    -0.007 SA
HETATM   13  C6  UNL     1      -2.823  16.023   8.194  1.00  0.00     0.130 A
HETATM   14  N4  UNL     1      -2.069  15.270   7.319  1.00  0.00    -0.305 N
HETATM   15  C10 UNL     1      -2.753  14.815   6.216  1.00  0.00     0.135 A
HETATM   16  C11 UNL     1      -2.151  14.023   5.311  1.00  0.00     0.276 A
HETATM   17  O6  UNL     1      -0.959  13.714   5.456  1.00  0.00    -0.266 OA
HETATM   18  N6  UNL     1      -2.828  13.544   4.243  1.00  0.00    -0.310 N
ATOM     19  H6  UNL     1      -2.347  12.946   3.571  1.00  0.00     0.170 HD
ENDROOT
BRANCH  14  20
HETATM   20  C7  UNL     1      -0.700  15.066   7.561  1.00  0.00     0.143 C
BRANCH  20  21
HETATM   21  C8  UNL     1       0.340  16.088   7.269  1.00  0.00     0.238 C
BRANCH  21  22
HETATM   22  O2  UNL     1       1.244  15.515   6.288  1.00  0.00    -0.358 OA
ATOM     23  H2  UNL     1       1.471  16.205   5.676  1.00  0.00     0.213 HD
ENDBRANCH  21  22
BRANCH  21  24
HETATM   24  O3  UNL     1      -0.037  17.356   6.893  1.00  0.00    -0.358 OA
ATOM     25  H3  UNL     1       0.532  18.092   7.084  1.00  0.00     0.213 HD
ENDBRANCH  21  24
BRANCH  21  26
HETATM   26  C9  UNL     1       1.350  16.351   8.406  1.00  0.00     0.306 C
BRANCH  26  27
HETATM   27  O4  UNL     1       2.639  16.546   7.850  1.00  0.00    -0.372 OA
ATOM     28  H4  UNL     1       3.070  17.260   8.304  1.00  0.00     0.212 HD
ENDBRANCH  26  27
BRANCH  26  29
HETATM   29  N5  UNL     1       1.576  15.087   9.151  1.00  0.00    -0.065 NA
BRANCH  29  30
HETATM   30  O5  UNL     1       2.496  15.323  10.071  1.00  0.00    -0.294 OA
ATOM     31  H5  UNL     1       2.113  15.128  10.919  1.00  0.00     0.238 HD
ENDBRANCH  29  30
ENDBRANCH  26  29
ENDBRANCH  21  26
ENDBRANCH  20  21
ENDBRANCH  14  20
TORSDOF 8
ENDMDL