MODEL 1
REMARK VINA RESULT: -5.690955584      0.000      0.000
REMARK  9 active torsions:
REMARK  status: ('A' for Active; 'I' for Inactive)
REMARK       I    between atoms: N1_1  and  C1_4
REMARK       I    between atoms: C1_4  and  N3_6
REMARK    1  A    between atoms: N3_6  and  C2_8
REMARK    2  A    between atoms: C6_18  and  N7_19
REMARK    3  A    between atoms: N7_19  and  C7_21
REMARK    4  A    between atoms: C7_21  and  C8_22
REMARK    5  A    between atoms: C8_22  and  O1_23
REMARK    6  A    between atoms: C9_25  and  N8_26
REMARK    7  A    between atoms: N8_26  and  O2_28
REMARK    8  A    between atoms: O2_28  and  C10_29
REMARK    9  A    between atoms: N10_34  and  N11_35
ROOT
HETATM    1  C2  UNL     1       0.524  14.619   7.639  1.00  0.00     0.139 A
HETATM    2  N4  UNL     1       0.551  14.588   8.984  1.00  0.00    -0.337 N
ATOM      3  H4  UNL     1       0.370  15.444   9.507  1.00  0.00     0.168 HD
HETATM    4  C3  UNL     1       0.813  13.446   9.654  1.00  0.00     0.183 A
HETATM    5  N5  UNL     1       1.052  12.309   8.997  1.00  0.00    -0.335 N
ATOM      6  H5  UNL     1       1.247  11.461   9.528  1.00  0.00     0.168 HD
HETATM    7  C4  UNL     1       1.043  12.255   7.661  1.00  0.00     0.162 A
HETATM    8  C5  UNL     1       0.773  13.435   6.976  1.00  0.00     0.125 A
HETATM    9  N6  UNL     1       0.714  13.611   5.623  1.00  0.00    -0.335 N
ATOM     10  H6  UNL     1       0.125  14.374   5.291  1.00  0.00     0.168 HD
HETATM   11  C6  UNL     1       1.346  12.890   4.679  1.00  0.00     0.136 C
HETATM   12  C9  UNL     1       1.535  11.504   4.782  1.00  0.00     0.168 C
HETATM   13  C11 UNL     1       1.446  10.695   5.895  1.00  0.00     0.300 C
HETATM   14  O4  UNL     1       1.502   9.455   5.670  1.00  0.00    -0.263 OA
HETATM   15  N10 UNL     1       1.310  11.008   7.181  1.00  0.00    -0.206 N
ENDROOT
BRANCH   1  16
HETATM   16  N3  UNL     1       0.276  15.697   6.974  1.00  0.00    -0.315 N
HETATM   17  C1  UNL     1       0.857  16.925   7.450  1.00  0.00     0.187 C
HETATM   18  N1  UNL     1       0.156  17.993   7.618  1.00  0.00    -0.373 N
HETATM   19  N2  UNL     1       2.233  17.001   7.754  1.00  0.00    -0.064 NA
ATOM     20  H12 UNL     1       0.567  18.862   7.956  1.00  0.00     0.158 HD
ATOM     21  H11 UNL     1      -0.839  17.938   7.399  1.00  0.00     0.158 HD
ATOM     22  H3  UNL     1      -0.310  15.679   6.140  1.00  0.00     0.170 HD
ENDBRANCH   1  16
BRANCH  15  23
HETATM   23  N11 UNL     1       1.440  10.024   8.161  1.00  0.00    -0.334 N
ATOM     24 2H11 UNL     1       2.077  10.162   8.945  1.00  0.00     0.177 HD
ATOM     25 1H11 UNL     1       0.859   9.199   8.014  1.00  0.00     0.177 HD
ENDBRANCH  15  23
BRANCH  11  26
HETATM   26  N7  UNL     1       1.862  13.495   3.530  1.00  0.00    -0.372 N
ATOM     27  H7  UNL     1       2.866  13.445   3.363  1.00  0.00     0.161 HD
BRANCH  26  28
HETATM   28  C7  UNL     1       1.039  14.183   2.575  1.00  0.00     0.147 C
BRANCH  28  29
HETATM   29  C8  UNL     1       0.188  13.279   1.740  1.00  0.00     0.183 C
BRANCH  29  30
HETATM   30  O1  UNL     1       0.927  12.197   1.238  1.00  0.00    -0.399 OA
ATOM     31  H1  UNL     1       1.097  12.295   0.308  1.00  0.00     0.209 HD
ENDBRANCH  29  30
ENDBRANCH  28  29
ENDBRANCH  26  28
ENDBRANCH  11  26
BRANCH  12  32
HETATM   32  N8  UNL     1       1.832  10.951   3.651  1.00  0.00    -0.247 N
ATOM     33  H8  UNL     1       1.117  10.468   3.107  1.00  0.00     0.195 HD
BRANCH  32  34
HETATM   34  O2  UNL     1       3.127  11.025   3.193  1.00  0.00    -0.183 OA
BRANCH  34  35
HETATM   35  C10 UNL     1       3.539  10.133   2.202  1.00  0.00     0.394 C
HETATM   36  N9  UNL     1       2.760   9.881   1.050  1.00  0.00    -0.031 NA
HETATM   37  O3  UNL     1       4.649   9.544   2.363  1.00  0.00    -0.240 OA
ENDBRANCH  34  35
ENDBRANCH  32  34
ENDBRANCH  12  32
TORSDOF 9
ENDMDL