MODEL 5
REMARK VINA RESULT: -6.534065263      2.224      3.244
REMARK  7 active torsions:
REMARK  status: ('A' for Active; 'I' for Inactive)
REMARK    1  A    between atoms: C4_9  and  N3_10
REMARK    2  A    between atoms: N7_20  and  C6_21
REMARK    3  A    between atoms: C6_21  and  C7_22
REMARK    4  A    between atoms: C7_22  and  N8_23
REMARK    5  A    between atoms: C9_27  and  C10_28
REMARK    6  A    between atoms: C10_28  and  O1_29
REMARK    7  A    between atoms: C11_31  and  O2_32
ROOT
HETATM    1  N1  UNL     1      -2.502   9.446   4.512  1.00  0.00    -0.234 N
ATOM      2  H11 UNL     1      -3.222   8.893   4.047  1.00  0.00     0.174 HD
ATOM      3  H12 UNL     1      -2.275   9.224   5.481  1.00  0.00     0.174 HD
HETATM    4  C1  UNL     1      -1.893  10.399   3.897  1.00  0.00     0.679 A
HETATM    5  N2  UNL     1      -0.939  11.131   4.514  1.00  0.00    -0.173 N
ATOM      6  H2  UNL     1      -0.723  10.896   5.483  1.00  0.00     0.186 HD
HETATM    7  C2  UNL     1      -0.261  12.128   3.967  1.00  0.00     0.168 A
HETATM    8  C3  UNL     1      -0.548  12.451   2.651  1.00  0.00     0.124 A
HETATM    9  C4  UNL     1      -1.530  11.696   2.019  1.00  0.00     0.145 A
HETATM   10  N4  UNL     1      -2.193  10.692   2.618  1.00  0.00    -0.175 N
ATOM     11  H4  UNL     1      -2.907  10.164   2.115  1.00  0.00     0.186 HD
HETATM   12  N5  UNL     1       0.145  13.499   1.996  1.00  0.00    -0.345 N
ATOM     13  H5  UNL     1      -0.091  13.710   1.027  1.00  0.00     0.167 HD
HETATM   14  C5  UNL     1       1.060  14.196   2.573  1.00  0.00     0.198 A
HETATM   15  N6  UNL     1       1.380  13.885   3.940  1.00  0.00    -0.292 N
ATOM     16  H6  UNL     1       2.104  14.432   4.406  1.00  0.00     0.188 HD
HETATM   17  N7  UNL     1       0.745  12.868   4.660  1.00  0.00    -0.272 N
ENDROOT
BRANCH  17  18
HETATM   18  C6  UNL     1       1.051  12.589   6.043  1.00  0.00     0.172 C
BRANCH  18  19
HETATM   19  C7  UNL     1      -0.077  12.818   6.989  1.00  0.00     0.172 C
BRANCH  19  20
HETATM   20  N8  UNL     1      -0.152  14.249   7.240  1.00  0.00    -0.284 N
HETATM   21  C8  UNL     1      -1.350  14.942   6.894  1.00  0.00     0.196 C
HETATM   22  N9  UNL     1      -1.710  16.085   7.365  1.00  0.00    -0.375 N
HETATM   23  C9  UNL     1      -1.031  16.909   8.309  1.00  0.00     0.143 C
ATOM     24  H9  UNL     1      -2.597  16.449   7.017  1.00  0.00     0.160 HD
HETATM   25  C11 UNL     1       0.358  17.335   7.929  1.00  0.00     0.236 C
HETATM   26  C12 UNL     1       1.310  16.195   7.872  1.00  0.00     0.267 C
HETATM   27  O3  UNL     1       2.509  16.547   7.876  1.00  0.00    -0.269 OA
HETATM   28  N10 UNL     1       1.035  14.781   7.815  1.00  0.00    -0.265 N
ATOM     29  H10 UNL     1       1.720  14.134   8.204  1.00  0.00     0.190 HD
BRANCH  23  30
HETATM   30  C10 UNL     1      -1.858  18.154   8.532  1.00  0.00     0.192 C
BRANCH  30  31
HETATM   31  O1  UNL     1      -2.329  18.566   7.269  1.00  0.00    -0.399 OA
ATOM     32  H1  UNL     1      -3.271  18.440   7.271  1.00  0.00     0.209 HD
ENDBRANCH  30  31
ENDBRANCH  23  30
BRANCH  25  33
HETATM   33  O2  UNL     1       0.365  18.077   6.758  1.00  0.00    -0.384 OA
ATOM     34  H2  UNL     1      -0.220  17.710   6.105  1.00  0.00     0.210 HD
ENDBRANCH  25  33
ENDBRANCH  19  20
ENDBRANCH  18  19
ENDBRANCH  17  18
BRANCH   9  35
HETATM   35  N3  UNL     1      -1.824  11.967   0.803  1.00  0.00    -0.383 N
ATOM     36  H32 UNL     1      -1.809  11.203   0.127  1.00  0.00     0.157 HD
ATOM     37  H31 UNL     1      -2.064  12.928   0.560  1.00  0.00     0.157 HD
ENDBRANCH   9  35
TORSDOF 7
ENDMDL