MODEL 3
REMARK VINA RESULT: -6.205956057      2.809      7.918
REMARK  7 active torsions:
REMARK  status: ('A' for Active; 'I' for Inactive)
REMARK       I    between atoms: C1_4  and  N2_5
REMARK       I    between atoms: C1_4  and  N12_35
REMARK       I    between atoms: C2_7  and  N4_9
REMARK    1  A    between atoms: N5_11  and  N6_13
REMARK    2  A    between atoms: C4_15  and  C5_16
REMARK    3  A    between atoms: C5_16  and  C6_17
REMARK    4  A    between atoms: C6_17  and  N7_18
REMARK    5  A    between atoms: C7_24  and  N9_25
REMARK    6  A    between atoms: C9_32  and  O2_33
REMARK    7  A    between atoms: N12_35  and  N13_37
ROOT
HETATM    1  N6  UNL     1       1.509  11.618   5.215  1.00  0.00    -0.276 N
HETATM    2  C3  UNL     1       0.491  11.772   4.189  1.00  0.00     0.172 C
HETATM    3  C4  UNL     1       1.209  12.420   2.997  1.00  0.00     0.104 C
HETATM    4  N8  UNL     1       2.336  11.565   2.685  1.00  0.00    -0.368 N
ATOM      5  H8  UNL     1       2.683  11.578   1.726  1.00  0.00     0.161 HD
HETATM    6  C7  UNL     1       2.930  10.797   3.514  1.00  0.00     0.157 C
HETATM    7  C9  UNL     1       2.559  10.654   4.948  1.00  0.00     0.307 C
ENDROOT
BRANCH   1   8
HETATM    8  N5  UNL     1       1.515  12.329   6.395  1.00  0.00    -0.240 N
HETATM    9  N4  UNL     1       0.685  12.070   7.289  1.00  0.00    -0.259 N
HETATM   10  C2  UNL     1       0.574  12.709   8.540  1.00  0.00     0.222 C
ATOM     11  H4  UNL     1       0.021  11.320   7.096  1.00  0.00     0.191 HD
HETATM   12  N2  UNL     1       0.377  13.966   8.597  1.00  0.00    -0.161 N
HETATM   13  N3  UNL     1       0.677  11.966   9.736  1.00  0.00    -0.061 NA
HETATM   14  C1  UNL     1       0.272  14.718   7.409  1.00  0.00     0.697 C
ATOM     15  H2  UNL     1       0.296  14.429   9.502  1.00  0.00     0.187 HD
HETATM   16  N1  UNL     1      -0.690  14.577   6.549  1.00  0.00    -0.233 N
HETATM   17  N12 UNL     1       1.252  15.720   7.064  1.00  0.00    -0.072 N
ATOM     18  H12 UNL     1      -1.383  13.870   6.793  1.00  0.00     0.174 HD
ATOM     19  H11 UNL     1      -0.766  15.121   5.689  1.00  0.00     0.174 HD
ATOM     20  H12 UNL     1       2.048  15.501   6.465  1.00  0.00     0.212 HD
ATOM     21  H5  UNL     1       2.201  13.070   6.538  1.00  0.00     0.208 HD
BRANCH  17  22
HETATM   22  N13 UNL     1       1.063  16.989   7.582  1.00  0.00    -0.024 N
HETATM   23  O3  UNL     1       0.075  17.230   8.282  1.00  0.00    -0.516 OA
HETATM   24  O4  UNL     1       1.968  17.972   7.320  1.00  0.00    -0.516 OA
ENDBRANCH  17  22
ENDBRANCH   1   8
BRANCH   7  25
HETATM   25  O2  UNL     1       2.105   9.357   5.194  1.00  0.00    -0.368 OA
ATOM     26  H2  UNL     1       2.636   8.940   5.862  1.00  0.00     0.212 HD
ENDBRANCH   7  25
BRANCH   3  27
HETATM   27  C5  UNL     1       0.222  12.471   1.864  1.00  0.00     0.054 C
BRANCH  27  28
HETATM   28  C6  UNL     1       0.318  13.794   1.147  1.00  0.00     0.231 C
BRANCH  28  29
HETATM   29  N7  UNL     1       1.058  14.736   1.966  1.00  0.00    -0.079 N
ATOM     30  H73 UNL     1       0.444  15.301   2.553  1.00  0.00     0.274 HD
ATOM     31  H72 UNL     1       1.583  14.272   2.708  1.00  0.00     0.274 HD
ATOM     32  H71 UNL     1       1.657  15.308   1.371  1.00  0.00     0.274 HD
ENDBRANCH  28  29
ENDBRANCH  27  28
ENDBRANCH   3  27
BRANCH   6  33
HETATM   33  N9  UNL     1       4.044   9.989   3.085  1.00  0.00    -0.173 N
HETATM   34  N10 UNL     1       5.132   9.473   3.634  1.00  0.00    -0.226 N
HETATM   35  N11 UNL     1       5.509   8.920   2.503  1.00  0.00    -0.234 N
ATOM     36  H10 UNL     1       5.527   9.497   4.574  1.00  0.00     0.209 HD
HETATM   37  C8  UNL     1       4.415   9.430   1.921  1.00  0.00     0.364 A
ATOM     38  H11 UNL     1       6.298   8.348   2.199  1.00  0.00     0.193 HD
HETATM   39  O1  UNL     1       3.864   9.447   0.778  1.00  0.00    -0.243 OA
ENDBRANCH   6  33
TORSDOF 7
ENDMDL