MODEL 2
REMARK VINA RESULT: -6.353905153      2.314      6.857
REMARK  6 active torsions:
REMARK  status: ('A' for Active; 'I' for Inactive)
REMARK    1  A    between atoms: C5_7  and  O1_8
REMARK    2  A    between atoms: C5_7  and  N3_10
REMARK    3  A    between atoms: N3_10  and  C6_12
REMARK    4  A    between atoms: C6_12  and  C8_15
REMARK       I    between atoms: C8_15  and  N5_17
REMARK       I    between atoms: N5_17  and  C9_18
REMARK    5  A    between atoms: C10_21  and  N8_22
REMARK    6  A    between atoms: N8_22  and  N9_23
ROOT
HETATM    1  N1  UNL     1      -5.679  17.676  10.226  1.00  0.00    -0.191 NA
HETATM    2  C1  UNL     1      -4.622  17.353   9.836  1.00  0.00     0.105 C
HETATM    3  C2  UNL     1      -3.333  16.967   9.332  1.00  0.00     0.113 A
HETATM    4  C3  UNL     1      -2.369  16.454  10.167  1.00  0.00     0.089 A
HETATM    5  N2  UNL     1      -2.655  16.308  11.547  1.00  0.00    -0.100 NA
HETATM    6  C4  UNL     1      -1.089  16.061   9.710  1.00  0.00     0.087 A
HETATM    7  C5  UNL     1      -0.149  15.544  10.627  1.00  0.00     0.153 C
HETATM    8  C10 UNL     1      -0.890  16.228   8.386  1.00  0.00     0.155 A
HETATM    9  N11 UNL     1      -1.867  16.746   7.555  1.00  0.00    -0.325 N
ATOM     10  H11 UNL     1      -1.659  16.851   6.562  1.00  0.00     0.169 HD
HETATM   11  C12 UNL     1      -3.066  17.112   7.995  1.00  0.00     0.123 A
HETATM   12  N12 UNL     1      -3.955  17.594   7.167  1.00  0.00    -0.384 N
ATOM     13 1H12 UNL     1      -3.756  17.701   6.173  1.00  0.00     0.157 HD
ATOM     14 2H12 UNL     1      -4.875  17.875   7.505  1.00  0.00     0.157 HD
ENDROOT
BRANCH   7  15
HETATM   15  O1  UNL     1      -0.604  15.494  11.874  1.00  0.00    -0.346 OA
ATOM     16  H1  UNL     1      -0.190  16.125  12.451  1.00  0.00     0.219 HD
ENDBRANCH   7  15
BRANCH   7  17
HETATM   17  N3  UNL     1       1.143  15.069  10.563  1.00  0.00    -0.345 N
ATOM     18  H3  UNL     1       1.896  15.680  10.248  1.00  0.00     0.163 HD
BRANCH  17  19
HETATM   19  C6  UNL     1       1.439  13.671  10.952  1.00  0.00     0.299 C
HETATM   20  C7  UNL     1       0.988  12.778   9.907  1.00  0.00     0.095 C
HETATM   21  N4  UNL     1       0.623  12.081   9.059  1.00  0.00    -0.195 NA
BRANCH  19  22
HETATM   22  C8  UNL     1       2.923  13.480  11.123  1.00  0.00     0.331 C
HETATM   23  O2  UNL     1       3.625  14.542  11.289  1.00  0.00    -0.253 OA
HETATM   24  N5  UNL     1       3.470  12.286  11.103  1.00  0.00    -0.338 NA
HETATM   25  C9  UNL     1       3.956  11.228  10.805  1.00  0.00     0.278 C
HETATM   26  N6  UNL     1       4.421  10.202  11.721  1.00  0.00    -0.052 NA
HETATM   27  N7  UNL     1       4.129  10.860   9.414  1.00  0.00    -0.052 NA
ENDBRANCH  19  22
ENDBRANCH  17  19
ENDBRANCH   7  17
BRANCH   8  28
HETATM   28  N8  UNL     1       0.310  15.907   7.732  1.00  0.00    -0.179 N
HETATM   29  C11 UNL     1       1.295  16.883   7.592  1.00  0.00     0.206 C
HETATM   30  N10 UNL     1       2.114  17.723   7.479  1.00  0.00    -0.170 NA
BRANCH  28  31
HETATM   31  N9  UNL     1       0.468  14.638   7.185  1.00  0.00    -0.328 N
ATOM     32  H92 UNL     1       0.057  14.395   6.284  1.00  0.00     0.178 HD
ATOM     33  H91 UNL     1       0.967  13.924   7.717  1.00  0.00     0.178 HD
ENDBRANCH  28  31
ENDBRANCH   8  28
TORSDOF 6
ENDMDL