MODEL 5
REMARK VINA RESULT: -7.207459974      1.530      2.589
REMARK  5 active torsions:
REMARK  status: ('A' for Active; 'I' for Inactive)
REMARK    1  A    between atoms: C2_5  and  C3_6
REMARK    2  A    between atoms: C3_6  and  N4_9
REMARK    3  A    between atoms: C5_11  and  C6_12
REMARK    4  A    between atoms: C7_17  and  N7_18
REMARK    5  A    between atoms: C9_25  and  N9_26
ROOT
HETATM    1  C3  UNL     1     -10.049 -14.410   9.806  1.00  0.00     0.245 C
HETATM    2  C4  UNL     1     -11.193 -14.935  10.499  1.00  0.00     0.091 C
HETATM    3  N3  UNL     1     -12.122 -15.337  11.058  1.00  0.00    -0.195 NA
ENDROOT
BRANCH   1   4
HETATM    4  C2  UNL     1      -8.971 -15.403   9.671  1.00  0.00     0.108 A
HETATM    5  N2  UNL     1      -9.000 -16.577  10.345  1.00  0.00    -0.282 N
HETATM    6  N1  UNL     1      -7.926 -17.285  10.054  1.00  0.00    -0.237 N
ATOM      7  H2  UNL     1      -9.742 -16.870  10.981  1.00  0.00     0.188 HD
HETATM    8  C1  UNL     1      -7.584 -18.610  10.573  1.00  0.00     0.200 C
HETATM    9  N10 UNL     1      -7.199 -16.587   9.199  1.00  0.00    -0.268 N
HETATM   10  C9  UNL     1      -7.817 -15.416   8.941  1.00  0.00     0.142 A
ATOM     11  H10 UNL     1      -6.310 -16.887   8.798  1.00  0.00     0.190 HD
BRANCH  10  12
HETATM   12  N9  UNL     1      -7.436 -14.460   8.165  1.00  0.00    -0.383 N
ATOM     13  H92 UNL     1      -7.848 -14.155   7.282  1.00  0.00     0.157 HD
ATOM     14  H91 UNL     1      -6.633 -13.857   8.344  1.00  0.00     0.157 HD
ENDBRANCH  10  12
ENDBRANCH   1   4
BRANCH   1  15
HETATM   15  N4  UNL     1      -9.504 -13.239  10.440  1.00  0.00    -0.375 N
HETATM   16  C5  UNL     1      -9.462 -12.129   9.795  1.00  0.00     0.121 C
ATOM     17  H4  UNL     1      -9.153 -13.290  11.396  1.00  0.00     0.160 HD
BRANCH  16  18
HETATM   18  C6  UNL     1      -8.917 -10.929  10.410  1.00  0.00     0.132 A
HETATM   19  N5  UNL     1      -9.022 -10.804  11.759  1.00  0.00    -0.280 N
HETATM   20  N6  UNL     1      -8.534  -9.727  12.324  1.00  0.00    -0.132 N
ATOM     21  H5  UNL     1      -9.469 -11.531  12.318  1.00  0.00     0.188 HD
HETATM   22  C7  UNL     1      -7.935  -8.751  11.589  1.00  0.00     0.693 A
ATOM     23  H6  UNL     1      -8.605  -9.618  13.336  1.00  0.00     0.205 HD
HETATM   24  N8  UNL     1      -7.817  -8.846  10.256  1.00  0.00    -0.153 N
HETATM   25  C8  UNL     1      -8.311  -9.941   9.668  1.00  0.00     0.289 A
ATOM     26  H8  UNL     1      -7.367  -8.110   9.711  1.00  0.00     0.187 HD
HETATM   27  O1  UNL     1      -8.236 -10.098   8.425  1.00  0.00    -0.265 OA
BRANCH  22  28
HETATM   28  N7  UNL     1      -7.494  -7.740  12.251  1.00  0.00    -0.233 N
ATOM     29  H72 UNL     1      -6.946  -7.842  13.106  1.00  0.00     0.174 HD
ATOM     30  H71 UNL     1      -7.725  -6.822  11.870  1.00  0.00     0.174 HD
ENDBRANCH  22  28
ENDBRANCH  16  18
ENDBRANCH   1  15
TORSDOF 5
ENDMDL