MODEL 3
REMARK VINA RESULT: -6.619766898      2.087      3.983
REMARK  5 active torsions:
REMARK  status: ('A' for Active; 'I' for Inactive)
REMARK    1  A    between atoms: N1_1  and  O1_4
REMARK    2  A    between atoms: O1_4  and  C1_5
REMARK    3  A    between atoms: C1_5  and  C2_6
REMARK    4  A    between atoms: C5_15  and  C6_16
REMARK    5  A    between atoms: C7_23  and  N7_24
ROOT
HETATM    1  C2  UNL     1      -9.752 -14.415   7.773  1.00  0.00     0.058 A
HETATM    2  N2  UNL     1     -10.471 -15.565   7.982  1.00  0.00    -0.309 N
ATOM      3  H2  UNL     1     -10.987 -15.960   7.196  1.00  0.00     0.170 HD
HETATM    4  C3  UNL     1     -10.530 -16.193   9.152  1.00  0.00     0.327 A
HETATM    5  O2  UNL     1     -11.208 -17.248   9.283  1.00  0.00    -0.247 OA
HETATM    6  N3  UNL     1      -9.856 -15.680  10.191  1.00  0.00    -0.275 N
ATOM      7  H3  UNL     1      -9.888 -16.142  11.100  1.00  0.00     0.173 HD
HETATM    8  C4  UNL     1      -9.142 -14.563  10.034  1.00  0.00     0.264 A
HETATM    9  O3  UNL     1      -8.513 -14.082  10.998  1.00  0.00    -0.267 OA
HETATM   10  C5  UNL     1      -9.058 -13.871   8.795  1.00  0.00     0.089 A
ENDROOT
BRANCH  10  11
HETATM   11  C6  UNL     1      -8.195 -12.733   8.703  1.00  0.00     0.118 A
HETATM   12  N4  UNL     1      -6.832 -12.873   8.509  1.00  0.00    -0.281 N
HETATM   13  N5  UNL     1      -6.290 -11.688   8.367  1.00  0.00    -0.240 N
ATOM     14  H4  UNL     1      -6.328 -13.759   8.481  1.00  0.00     0.188 HD
HETATM   15  N6  UNL     1      -7.201 -10.751   8.449  1.00  0.00    -0.264 N
ATOM     16  H5  UNL     1      -5.297 -11.519   8.213  1.00  0.00     0.208 HD
HETATM   17  C7  UNL     1      -8.407 -11.405   8.658  1.00  0.00     0.218 A
ATOM     18  H6  UNL     1      -7.055  -9.745   8.376  1.00  0.00     0.190 HD
BRANCH  17  19
HETATM   19  N7  UNL     1      -9.587 -10.624   8.710  1.00  0.00    -0.094 N
HETATM   20  O4  UNL     1     -10.096 -10.146   7.684  1.00  0.00    -0.530 OA
HETATM   21  O5  UNL     1     -10.172 -10.344   9.914  1.00  0.00    -0.530 OA
ENDBRANCH  17  19
ENDBRANCH  10  11
BRANCH   1  22
HETATM   22  C1  UNL     1      -9.908 -13.834   6.429  1.00  0.00     0.258 C
BRANCH  22  23
HETATM   23  O1  UNL     1     -11.176 -13.236   6.262  1.00  0.00    -0.281 OA
BRANCH  23  24
HETATM   24  N1  UNL     1     -10.919 -12.014   5.728  1.00  0.00    -0.311 N
ATOM     25  H12 UNL     1     -10.010 -11.654   5.436  1.00  0.00     0.184 HD
ATOM     26  H11 UNL     1     -11.826 -11.549   5.686  1.00  0.00     0.184 HD
ENDBRANCH  23  24
ENDBRANCH  22  23
ENDBRANCH   1  22
TORSDOF 5
ENDMDL