MODEL 3
REMARK VINA RESULT: -6.598190777      4.062      7.294
REMARK  7 active torsions:
REMARK  status: ('A' for Active; 'I' for Inactive)
REMARK    1  A    between atoms: N1_1  and  C1_4
REMARK    2  A    between atoms: C2_7  and  N3_8
REMARK    3  A    between atoms: C5_11  and  N4_12
REMARK    4  A    between atoms: N4_12  and  N5_14
REMARK    5  A    between atoms: C6_16  and  C7_17
REMARK    6  A    between atoms: C9_27  and  N10_28
REMARK    7  A    between atoms: N10_28  and  N11_30
ROOT
HETATM    1  C1  UNL     1      -5.475 -14.797   6.976  1.00  0.00     0.692 C
HETATM    2  N2  UNL     1      -6.816 -14.688   6.928  1.00  0.00    -0.173 N
ATOM      3  H2  UNL     1      -7.271 -15.126   6.127  1.00  0.00     0.186 HD
HETATM    4  C2  UNL     1      -7.644 -14.064   7.816  1.00  0.00     0.165 C
HETATM    5  C5  UNL     1      -7.336 -13.500   9.036  1.00  0.00     0.180 C
HETATM    6  N9  UNL     1      -6.133 -13.547   9.639  1.00  0.00    -0.170 N
ATOM      7  H9  UNL     1      -6.078 -13.031  10.517  1.00  0.00     0.186 HD
HETATM    8  C9  UNL     1      -4.993 -14.160   9.277  1.00  0.00     0.712 C
HETATM    9  N12 UNL     1      -4.717 -14.714   8.085  1.00  0.00    -0.021 N
ATOM     10  H12 UNL     1      -3.791 -15.136   8.008  1.00  0.00     0.203 HD
ENDROOT
BRANCH   5  11
HETATM   11  N4  UNL     1      -8.308 -12.883   9.620  1.00  0.00    -0.282 N
ATOM     12  H4  UNL     1      -9.272 -13.206   9.541  1.00  0.00     0.188 HD
BRANCH  11  13
HETATM   13  N5  UNL     1      -7.973 -11.750  10.366  1.00  0.00    -0.308 N
HETATM   14  C6  UNL     1      -8.291 -10.558  10.043  1.00  0.00     0.139 C
ATOM     15  H5  UNL     1      -7.440 -11.885  11.225  1.00  0.00     0.186 HD
BRANCH  14  16
HETATM   16  C7  UNL     1      -7.862  -9.473  10.938  1.00  0.00     0.083 A
HETATM   17  C8  UNL     1      -6.587  -9.181  11.358  1.00  0.00     0.141 A
HETATM   18  N6  UNL     1      -6.626  -8.114  12.166  1.00  0.00    -0.295 N
HETATM   19  N7  UNL     1      -7.884  -7.748  12.250  1.00  0.00    -0.243 N
ATOM     20  H6  UNL     1      -5.831  -7.671  12.627  1.00  0.00     0.187 HD
HETATM   21  N8  UNL     1      -8.652  -8.541  11.526  1.00  0.00    -0.284 N
ATOM     22  H7  UNL     1      -8.223  -6.958  12.800  1.00  0.00     0.208 HD
ATOM     23  H8  UNL     1      -9.665  -8.467  11.427  1.00  0.00     0.188 HD
ENDBRANCH  14  16
ENDBRANCH  11  13
ENDBRANCH   5  11
BRANCH   4  24
HETATM   24  N3  UNL     1      -9.016 -13.959   7.479  1.00  0.00    -0.361 N
HETATM   25  C3  UNL     1     -10.090 -13.225   6.722  1.00  0.00     0.144 A
HETATM   26  C4  UNL     1     -10.398 -14.383   7.539  1.00  0.00     0.144 A
ENDBRANCH   4  24
BRANCH   8  27
HETATM   27  N10 UNL     1      -4.108 -14.189  10.209  1.00  0.00    -0.138 N
ATOM     28  H10 UNL     1      -3.906 -13.320  10.705  1.00  0.00     0.205 HD
BRANCH  27  29
HETATM   29  N11 UNL     1      -3.409 -15.327  10.582  1.00  0.00    -0.331 N
ATOM     30 2H11 UNL     1      -3.551 -16.163  10.014  1.00  0.00     0.177 HD
ATOM     31 1H11 UNL     1      -2.773 -15.373  11.379  1.00  0.00     0.177 HD
ENDBRANCH  27  29
ENDBRANCH   8  27
BRANCH   1  32
HETATM   32  N1  UNL     1      -4.840 -15.002   5.857  1.00  0.00    -0.234 N
ATOM     33  H12 UNL     1      -5.308 -15.598   5.174  1.00  0.00     0.174 HD
ATOM     34  H11 UNL     1      -3.928 -14.561   5.738  1.00  0.00     0.174 HD
ENDBRANCH   1  32
TORSDOF 7
ENDMDL