MODEL 1
REMARK VINA RESULT: -7.243157596      0.000      0.000
REMARK  5 active torsions:
REMARK  status: ('A' for Active; 'I' for Inactive)
REMARK    1  A    between atoms: N1_1  and  C1_4
REMARK    2  A    between atoms: C5_15  and  N5_16
REMARK    3  A    between atoms: N5_16  and  C6_18
REMARK    4  A    between atoms: C6_18  and  C7_19
REMARK    5  A    between atoms: C7_19  and  N6_20
ROOT
HETATM    1  C1  UNL     1      -8.663 -10.367  11.104  1.00  0.00     0.680 A
HETATM    2  N2  UNL     1      -8.879  -9.965   9.835  1.00  0.00    -0.154 N
ATOM      3  H2  UNL     1      -8.740  -8.985   9.588  1.00  0.00     0.187 HD
HETATM    4  C2  UNL     1      -9.274 -10.836   8.890  1.00  0.00     0.292 A
HETATM    5  O1  UNL     1      -9.456 -10.389   7.727  1.00  0.00    -0.265 OA
HETATM    6  C3  UNL     1      -9.475 -12.169   9.166  1.00  0.00     0.172 A
HETATM    7  C4  UNL     1      -9.253 -12.577  10.472  1.00  0.00     0.157 A
HETATM    8  N3  UNL     1      -8.861 -11.669  11.372  1.00  0.00    -0.174 N
ATOM      9  H3  UNL     1      -8.703 -11.985  12.328  1.00  0.00     0.186 HD
HETATM   10  N4  UNL     1      -9.444 -13.878  10.766  1.00  0.00    -0.323 N
ATOM     11  H4  UNL     1      -9.284 -14.197  11.722  1.00  0.00     0.169 HD
HETATM   12  C5  UNL     1      -9.838 -14.771   9.840  1.00  0.00     0.151 A
HETATM   13  C8  UNL     1     -10.045 -14.310   8.559  1.00  0.00     0.189 A
HETATM   14  N7  UNL     1     -10.442 -14.989   7.445  1.00  0.00    -0.265 N
ATOM     15  H7  UNL     1     -10.658 -15.983   7.370  1.00  0.00     0.190 HD
HETATM   16  N8  UNL     1     -10.485 -14.084   6.482  1.00  0.00    -0.226 N
ATOM     17  H8  UNL     1     -10.749 -14.282   5.517  1.00  0.00     0.210 HD
HETATM   18  N9  UNL     1     -10.142 -12.892   6.929  1.00  0.00    -0.219 N
ATOM     19  H9  UNL     1     -10.097 -12.030   6.386  1.00  0.00     0.210 HD
HETATM   20  N10 UNL     1      -9.871 -13.024   8.206  1.00  0.00    -0.210 N
ENDROOT
BRANCH  12  21
HETATM   21  N5  UNL     1     -10.015 -16.019  10.152  1.00  0.00    -0.371 N
ATOM     22  H5  UNL     1     -10.926 -16.342  10.475  1.00  0.00     0.161 HD
BRANCH  21  23
HETATM   23  C6  UNL     1      -8.924 -16.939  10.041  1.00  0.00     0.148 C
BRANCH  23  24
HETATM   24  C7  UNL     1      -9.524 -18.349  10.107  1.00  0.00     0.249 C
BRANCH  24  25
HETATM   25  N6  UNL     1      -9.312 -18.917   8.766  1.00  0.00    -0.078 N
ATOM     26  H63 UNL     1     -10.074 -18.733   8.114  1.00  0.00     0.274 HD
ATOM     27  H62 UNL     1      -8.584 -18.447   8.229  1.00  0.00     0.274 HD
ATOM     28  H61 UNL     1      -9.133 -19.909   8.925  1.00  0.00     0.274 HD
ENDBRANCH  24  25
ENDBRANCH  23  24
ENDBRANCH  21  23
ENDBRANCH  12  21
BRANCH   1  29
HETATM   29  N1  UNL     1      -8.283  -9.519  12.009  1.00  0.00    -0.234 N
ATOM     30  H12 UNL     1      -7.666  -8.733  11.801  1.00  0.00     0.174 HD
ATOM     31  H11 UNL     1      -8.595  -9.617  12.975  1.00  0.00     0.174 HD
ENDBRANCH   1  29
TORSDOF 5
ENDMDL