MODEL 3
REMARK VINA RESULT: -6.710619786      1.041      1.072
REMARK  5 active torsions:
REMARK  status: ('A' for Active; 'I' for Inactive)
REMARK    1  A    between atoms: C2_3  and  O1_4
REMARK    2  A    between atoms: O1_4  and  C3_5
REMARK    3  A    between atoms: C3_5  and  N2_6
REMARK    4  A    between atoms: C4_9  and  O2_10
REMARK    5  A    between atoms: C8_19  and  N5_20
ROOT
HETATM    1  N1  UNL     1     -11.253 -11.864   5.404  1.00  0.00    -0.195 NA
HETATM    2  C1  UNL     1     -10.543 -12.015   6.307  1.00  0.00     0.085 C
HETATM    3  C2  UNL     1      -9.640 -12.218   7.444  1.00  0.00     0.293 C
ENDROOT
BRANCH   3   4
HETATM    4  O1  UNL     1      -9.313 -10.957   7.942  1.00  0.00    -0.357 OA
BRANCH   4   5
HETATM    5  C3  UNL     1      -9.157 -11.095   9.318  1.00  0.00     0.319 C
BRANCH   5   6
HETATM    6  N2  UNL     1      -8.137 -10.266   9.876  1.00  0.00    -0.249 N
HETATM    7  N3  UNL     1      -8.446  -9.171  10.593  1.00  0.00    -0.271 N
HETATM    8  C4  UNL     1      -7.517  -8.374  11.143  1.00  0.00     0.207 A
ATOM      9  H3  UNL     1      -9.429  -8.935  10.723  1.00  0.00     0.189 HD
HETATM   10  C5  UNL     1      -6.194  -8.694  10.965  1.00  0.00     0.243 A
HETATM   11  O3  UNL     1      -5.311  -7.959  11.473  1.00  0.00    -0.282 OA
HETATM   12  C6  UNL     1      -5.820  -9.799  10.243  1.00  0.00     0.133 A
HETATM   13  C7  UNL     1      -4.487 -10.132  10.052  1.00  0.00     0.277 A
HETATM   14  C9  UNL     1      -6.839 -10.583   9.700  1.00  0.00     0.159 A
HETATM   15  O4  UNL     1      -3.599  -9.402  10.557  1.00  0.00    -0.266 OA
HETATM   16  N4  UNL     1      -4.233 -11.232   9.325  1.00  0.00    -0.155 N
HETATM   17  C8  UNL     1      -5.216 -11.987   8.801  1.00  0.00     0.680 A
ATOM     18  H4  UNL     1      -3.264 -11.504   9.165  1.00  0.00     0.187 HD
HETATM   19  N6  UNL     1      -6.526 -11.667   8.984  1.00  0.00    -0.174 N
ATOM     20  H6  UNL     1      -7.261 -12.248   8.580  1.00  0.00     0.186 HD
BRANCH   8  21
HETATM   21  O2  UNL     1      -7.917  -7.245  11.879  1.00  0.00    -0.342 OA
ATOM     22  H2  UNL     1      -7.423  -6.986  12.647  1.00  0.00     0.219 HD
ENDBRANCH   8  21
BRANCH  17  23
HETATM   23  N5  UNL     1      -4.983 -13.051   8.098  1.00  0.00    -0.234 N
ATOM     24  H52 UNL     1      -4.705 -13.881   8.622  1.00  0.00     0.174 HD
ATOM     25  H51 UNL     1      -5.070 -13.070   7.082  1.00  0.00     0.174 HD
ENDBRANCH  17  23
ENDBRANCH   5   6
ENDBRANCH   4   5
ENDBRANCH   3   4
TORSDOF 5
ENDMDL