MODEL 5
REMARK VINA RESULT: -7.118120984      1.317      1.657
REMARK  6 active torsions:
REMARK  status: ('A' for Active; 'I' for Inactive)
REMARK    1  A    between atoms: N1_2  and  N2_4
REMARK    2  A    between atoms: N2_4  and  C2_6
REMARK    3  A    between atoms: C5_13  and  N5_14
REMARK    4  A    between atoms: N5_14  and  C6_16
REMARK    5  A    between atoms: C6_16  and  N6_17
REMARK    6  A    between atoms: C7_24  and  N10_25
ROOT
HETATM    1  C2  UNL     1      -8.744 -13.353   7.784  1.00  0.00     0.712 A
HETATM    2  N3  UNL     1      -9.593 -13.311   6.745  1.00  0.00    -0.178 N
ATOM      3  H3  UNL     1      -9.699 -14.120   6.132  1.00  0.00     0.185 HD
HETATM    4  C3  UNL     1     -10.303 -12.189   6.522  1.00  0.00     0.109 A
HETATM    5  C4  UNL     1     -11.254 -12.104   5.382  1.00  0.00     0.090 C
HETATM    6  N4  UNL     1     -10.141 -11.137   7.352  1.00  0.00    -0.180 N
ATOM      7  H4  UNL     1     -10.684 -10.292   7.174  1.00  0.00     0.185 HD
HETATM    8  C5  UNL     1      -9.301 -11.146   8.402  1.00  0.00     0.695 A
HETATM    9  N11 UNL     1      -8.598 -12.296   8.598  1.00  0.00    -0.021 N
ATOM     10  H11 UNL     1      -7.946 -12.355   9.381  1.00  0.00     0.203 HD
ENDROOT
BRANCH   8  11
HETATM   11  N5  UNL     1      -9.145 -10.138   9.197  1.00  0.00    -0.207 N
ATOM     12  H5  UNL     1      -9.150  -9.179   8.848  1.00  0.00     0.179 HD
BRANCH  11  13
HETATM   13  C6  UNL     1      -8.963 -10.432  10.607  1.00  0.00     0.309 C
BRANCH  13  14
HETATM   14  N6  UNL     1      -8.167  -9.451  11.277  1.00  0.00    -0.088 N
HETATM   15  N7  UNL     1      -8.623  -8.307  11.755  1.00  0.00    -0.209 N
HETATM   16  N8  UNL     1      -7.585  -7.696  12.290  1.00  0.00    -0.213 N
ATOM     17  H7  UNL     1      -9.583  -7.966  11.717  1.00  0.00     0.210 HD
HETATM   18  N9  UNL     1      -6.497  -8.435  12.156  1.00  0.00    -0.115 N
ATOM     19  H8  UNL     1      -7.617  -6.783  12.744  1.00  0.00     0.210 HD
HETATM   20  C7  UNL     1      -6.842  -9.553  11.514  1.00  0.00     0.711 A
ATOM     21  H9  UNL     1      -5.562  -8.194  12.485  1.00  0.00     0.207 HD
BRANCH  20  22
HETATM   22  N10 UNL     1      -6.123 -10.562  11.163  1.00  0.00    -0.232 N
ATOM     23 2H10 UNL     1      -5.206 -10.861  11.493  1.00  0.00     0.174 HD
ATOM     24 1H10 UNL     1      -6.402 -11.243  10.456  1.00  0.00     0.174 HD
ENDBRANCH  20  22
ENDBRANCH  13  14
ENDBRANCH  11  13
ENDBRANCH   8  11
BRANCH   1  25
HETATM   25  N2  UNL     1      -8.070 -14.427   7.989  1.00  0.00    -0.136 N
ATOM     26  H2  UNL     1      -8.472 -15.126   8.615  1.00  0.00     0.205 HD
BRANCH  25  27
HETATM   27  N1  UNL     1      -6.841 -14.705   7.423  1.00  0.00    -0.327 N
HETATM   28  C1  UNL     1      -5.651 -14.703   8.225  1.00  0.00     0.168 C
ATOM     29  H1  UNL     1      -6.779 -14.913   6.427  1.00  0.00     0.180 HD
ENDBRANCH  25  27
ENDBRANCH   1  25
TORSDOF 6
ENDMDL