MODEL 5
REMARK VINA RESULT: -6.864120412      1.530      1.680
REMARK  6 active torsions:
REMARK  status: ('A' for Active; 'I' for Inactive)
REMARK    1  A    between atoms: C3_6  and  N3_7
REMARK    2  A    between atoms: N3_7  and  C4_9
REMARK    3  A    between atoms: C4_9  and  O1_10
REMARK    4  A    between atoms: C4_9  and  C5_12
REMARK    5  A    between atoms: C5_12  and  N4_13
REMARK    6  A    between atoms: C8_23  and  N8_24
ROOT
HETATM    1  N1  UNL     1     -14.481 -15.651  10.902  1.00  0.00    -0.188 NA
HETATM    2  C1  UNL     1     -13.345 -15.612  10.690  1.00  0.00     0.138 C
HETATM    3  C2  UNL     1     -11.932 -15.563  10.448  1.00  0.00     0.217 A
HETATM    4  N2  UNL     1     -11.218 -14.487  10.776  1.00  0.00    -0.166 N
ATOM      5  H2  UNL     1     -11.673 -13.680  11.203  1.00  0.00     0.186 HD
HETATM    6  C3  UNL     1      -9.886 -14.468  10.537  1.00  0.00     0.696 A
HETATM    7  N7  UNL     1      -9.307 -15.540   9.972  1.00  0.00    -0.022 N
ATOM      8  H7  UNL     1      -8.303 -15.521   9.794  1.00  0.00     0.203 HD
HETATM    9  C8  UNL     1      -9.995 -16.620   9.637  1.00  0.00     0.692 A
HETATM   10  N9  UNL     1     -11.324 -16.619   9.884  1.00  0.00    -0.166 N
ATOM     11  H9  UNL     1     -11.878 -17.439   9.637  1.00  0.00     0.186 HD
ENDROOT
BRANCH   6  12
HETATM   12  N3  UNL     1      -9.257 -13.401  10.877  1.00  0.00    -0.197 N
ATOM     13  H3  UNL     1      -8.756 -13.387  11.765  1.00  0.00     0.180 HD
BRANCH  12  14
HETATM   14  C4  UNL     1      -9.236 -12.208  10.036  1.00  0.00     0.254 C
BRANCH  14  15
HETATM   15  O1  UNL     1      -9.587 -12.462   8.734  1.00  0.00    -0.374 OA
ATOM     16  H1  UNL     1     -10.452 -12.135   8.510  1.00  0.00     0.212 HD
ENDBRANCH  14  15
BRANCH  14  17
HETATM   17  C5  UNL     1      -7.826 -11.642  10.153  1.00  0.00     0.208 C
BRANCH  17  18
HETATM   18  N4  UNL     1      -7.800 -10.417  10.894  1.00  0.00    -0.237 N
HETATM   19  N5  UNL     1      -8.787  -9.537  10.915  1.00  0.00    -0.290 N
HETATM   20  C6  UNL     1      -8.461  -8.499  11.699  1.00  0.00     0.201 A
ATOM     21  H5  UNL     1      -9.668  -9.634  10.409  1.00  0.00     0.188 HD
HETATM   22  N6  UNL     1      -7.233  -8.775  12.158  1.00  0.00    -0.302 N
HETATM   23  C7  UNL     1      -6.815  -9.955  11.670  1.00  0.00     0.342 A
ATOM     24  H6  UNL     1      -6.696  -8.178  12.786  1.00  0.00     0.171 HD
HETATM   25  O2  UNL     1      -5.687 -10.506  11.917  1.00  0.00    -0.245 OA
ENDBRANCH  17  18
ENDBRANCH  14  17
ENDBRANCH  12  14
ENDBRANCH   6  12
BRANCH   9  26
HETATM   26  N8  UNL     1      -9.497 -17.674   9.095  1.00  0.00    -0.234 N
ATOM     27  H82 UNL     1      -9.026 -18.337   9.709  1.00  0.00     0.174 HD
ATOM     28  H81 UNL     1      -9.537 -17.895   8.100  1.00  0.00     0.174 HD
ENDBRANCH   9  26
TORSDOF 6
ENDMDL