MODEL 2
REMARK VINA RESULT: -6.484648846      1.850      2.047
REMARK  6 active torsions:
REMARK  status: ('A' for Active; 'I' for Inactive)
REMARK    1  A    between atoms: C2_2  and  O1_3
REMARK    2  A    between atoms: O1_3  and  C3_4
REMARK    3  A    between atoms: C3_4  and  N1_5
REMARK    4  A    between atoms: C7_12  and  N3_13
REMARK    5  A    between atoms: N3_13  and  N4_15
REMARK    6  A    between atoms: C8_20  and  N6_21
ROOT
HETATM    1  N1  UNL     1      -8.956 -11.045   8.787  1.00  0.00    -0.305 N
HETATM    2  C4  UNL     1      -9.818 -10.566   9.718  1.00  0.00     0.187 A
HETATM    3  N2  UNL     1      -9.113  -9.835  10.605  1.00  0.00    -0.346 N
ATOM      4  H2  UNL     1      -9.511  -9.357  11.413  1.00  0.00     0.167 HD
HETATM    5  C5  UNL     1      -7.821  -9.826  10.277  1.00  0.00     0.133 A
HETATM    6  C6  UNL     1      -6.786  -9.193  10.933  1.00  0.00     0.247 C
HETATM    7  O2  UNL     1      -7.163  -8.395  11.848  1.00  0.00    -0.282 OA
HETATM    8  C7  UNL     1      -5.411  -9.288  10.753  1.00  0.00     0.188 C
HETATM    9  N5  UNL     1      -4.787  -9.921   9.744  1.00  0.00    -0.171 N
ATOM     10  H5  UNL     1      -3.768  -9.852   9.732  1.00  0.00     0.186 HD
HETATM   11  C8  UNL     1      -5.344 -10.634   8.748  1.00  0.00     0.679 C
HETATM   12  N7  UNL     1      -6.621 -10.883   8.408  1.00  0.00    -0.174 N
ATOM     13  H7  UNL     1      -6.769 -11.340   7.509  1.00  0.00     0.186 HD
HETATM   14  C9  UNL     1      -7.730 -10.595   9.123  1.00  0.00     0.157 A
ENDROOT
BRANCH   8  15
HETATM   15  N3  UNL     1      -4.652  -8.730  11.612  1.00  0.00    -0.288 N
ATOM     16  H3  UNL     1      -4.169  -7.875  11.334  1.00  0.00     0.188 HD
BRANCH  15  17
HETATM   17  N4  UNL     1      -4.438  -9.200  12.891  1.00  0.00    -0.344 N
ATOM     18  H42 UNL     1      -3.894 -10.058  12.977  1.00  0.00     0.176 HD
ATOM     19  H41 UNL     1      -4.785  -8.751  13.738  1.00  0.00     0.176 HD
ENDBRANCH  15  17
ENDBRANCH   8  15
BRANCH  11  20
HETATM   20  N6  UNL     1      -4.466 -11.182   7.976  1.00  0.00    -0.234 N
ATOM     21  H62 UNL     1      -4.134 -12.094   8.290  1.00  0.00     0.174 HD
ATOM     22  H61 UNL     1      -4.242 -10.605   7.165  1.00  0.00     0.174 HD
ENDBRANCH  11  20
BRANCH   1  23
HETATM   23  C3  UNL     1      -9.301 -11.871   7.665  1.00  0.00     0.301 C
BRANCH  23  24
HETATM   24  O1  UNL     1     -10.207 -11.249   6.807  1.00  0.00    -0.372 OA
BRANCH  24  25
HETATM   25  C2  UNL     1     -10.825 -12.165   5.994  1.00  0.00     0.165 C
HETATM   26  C1  UNL     1     -10.375 -13.580   6.204  1.00  0.00     0.033 C
ENDBRANCH  24  25
ENDBRANCH  23  24
ENDBRANCH   1  23
TORSDOF 6
ENDMDL