MODEL 3
REMARK VINA RESULT: -6.857767442      1.229      2.480
REMARK  8 active torsions:
REMARK  status: ('A' for Active; 'I' for Inactive)
REMARK    1  A    between atoms: N4_7  and  N5_8
REMARK    2  A    between atoms: C3_11  and  N6_12
REMARK    3  A    between atoms: N6_12  and  N7_14
REMARK    4  A    between atoms: N7_14  and  C4_16
REMARK    5  A    between atoms: C6_18  and  C7_19
REMARK    6  A    between atoms: C7_19  and  N8_20
REMARK    7  A    between atoms: C7_19  and  C8_24
REMARK    8  A    between atoms: C8_24  and  N9_25
ROOT
HETATM    1  N1  UNL     1      -5.793 -11.771   8.645  1.00  0.00    -0.190 NA
HETATM    2  C1  UNL     1      -6.604 -12.475   9.047  1.00  0.00     0.123 C
HETATM    3  C2  UNL     1      -7.621 -13.382   9.546  1.00  0.00     0.175 A
HETATM    4  N2  UNL     1      -7.534 -14.728   9.549  1.00  0.00    -0.270 N
ATOM      5  H2  UNL     1      -6.746 -15.275   9.202  1.00  0.00     0.185 HD
HETATM    6  N3  UNL     1      -8.658 -15.227  10.086  1.00  0.00     0.003 NA
HETATM    7  N4  UNL     1      -9.455 -14.227  10.422  1.00  0.00    -0.166 N
HETATM    8  C3  UNL     1      -8.842 -13.072  10.101  1.00  0.00     0.196 A
ENDROOT
BRANCH   8   9
HETATM    9  N6  UNL     1      -9.269 -11.863  10.258  1.00  0.00    -0.279 N
ATOM     10  H6  UNL     1      -9.776 -11.425   9.489  1.00  0.00     0.189 HD
BRANCH   9  11
HETATM   11  N7  UNL     1      -9.074 -11.131  11.422  1.00  0.00    -0.284 N
ATOM     12  H7  UNL     1      -9.636 -11.380  12.236  1.00  0.00     0.188 HD
BRANCH  11  13
HETATM   13  C4  UNL     1      -8.245 -10.172  11.549  1.00  0.00     0.122 A
HETATM   14  C5  UNL     1      -6.875 -10.322  11.631  1.00  0.00     0.077 A
HETATM   15  C6  UNL     1      -6.029  -9.235  11.768  1.00  0.00     0.046 A
HETATM   16  N10 UNL     1      -6.608  -8.011  11.818  1.00  0.00    -0.354 N
HETATM   17  C9  UNL     1      -7.940  -7.855  11.738  1.00  0.00     0.182 A
ATOM     18  H10 UNL     1      -6.017  -7.186  11.918  1.00  0.00     0.166 HD
HETATM   19  N11 UNL     1      -8.765  -8.916  11.604  1.00  0.00    -0.338 N
ATOM     20  H11 UNL     1      -9.774  -8.776  11.544  1.00  0.00     0.168 HD
BRANCH  15  21
HETATM   21  C7  UNL     1      -4.564  -9.433  11.854  1.00  0.00     0.258 C
BRANCH  21  22
HETATM   22  N8  UNL     1      -3.961  -9.735  10.582  1.00  0.00    -0.068 N
ATOM     23  H83 UNL     1      -4.669 -10.000   9.898  1.00  0.00     0.275 HD
ATOM     24  H82 UNL     1      -3.608  -8.888  10.137  1.00  0.00     0.275 HD
ATOM     25  H81 UNL     1      -3.232 -10.445  10.646  1.00  0.00     0.275 HD
ENDBRANCH  21  22
BRANCH  21  26
HETATM   26  C8  UNL     1      -4.232 -10.423  12.926  1.00  0.00     0.268 C
BRANCH  26  27
HETATM   27  N9  UNL     1      -3.867  -9.708  14.128  1.00  0.00    -0.077 N
ATOM     28  H93 UNL     1      -4.055 -10.247  14.974  1.00  0.00     0.274 HD
ATOM     29  H92 UNL     1      -2.857  -9.621  14.237  1.00  0.00     0.274 HD
ATOM     30  H91 UNL     1      -4.339  -8.803  14.131  1.00  0.00     0.274 HD
ENDBRANCH  26  27
ENDBRANCH  21  26
ENDBRANCH  15  21
ENDBRANCH  11  13
ENDBRANCH   9  11
ENDBRANCH   8   9
BRANCH   7  31
HETATM   31  N5  UNL     1     -10.722 -14.354  11.011  1.00  0.00    -0.324 N
ATOM     32  H52 UNL     1     -10.935 -14.252  12.003  1.00  0.00     0.178 HD
ATOM     33  H51 UNL     1     -11.590 -14.563  10.518  1.00  0.00     0.178 HD
ENDBRANCH   7  31
TORSDOF 8
ENDMDL