MODEL 2
REMARK VINA RESULT: -7.388297041      2.857      3.719
REMARK  5 active torsions:
REMARK  status: ('A' for Active; 'I' for Inactive)
REMARK    1  A    between atoms: N1_1  and  C1_4
REMARK    2  A    between atoms: C2_9  and  C3_10
REMARK    3  A    between atoms: N4_12  and  N5_13
REMARK    4  A    between atoms: C5_21  and  C6_22
REMARK    5  A    between atoms: N9_23  and  N10_25
ROOT
HETATM    1  C1  UNL     1      -9.184 -15.733   9.694  1.00  0.00     0.142 A
HETATM    2  N2  UNL     1      -7.958 -15.180   9.704  1.00  0.00    -0.282 N
ATOM      3  H2  UNL     1      -7.142 -15.773   9.551  1.00  0.00     0.188 HD
HETATM    4  N3  UNL     1      -7.786 -13.874   9.908  1.00  0.00    -0.282 N
ATOM      5  H3  UNL     1      -6.836 -13.501   9.906  1.00  0.00     0.188 HD
HETATM    6  C2  UNL     1      -8.809 -13.026  10.118  1.00  0.00     0.150 A
HETATM    7  N8  UNL     1     -10.040 -13.570  10.110  1.00  0.00    -0.335 N
ATOM      8  H8  UNL     1     -10.846 -12.964  10.264  1.00  0.00     0.168 HD
HETATM    9  C5  UNL     1     -10.247 -14.884   9.906  1.00  0.00     0.096 A
ENDROOT
BRANCH   6  10
HETATM   10  C3  UNL     1      -8.596 -11.595  10.340  1.00  0.00     0.110 A
HETATM   11  C4  UNL     1      -8.338 -10.941  11.524  1.00  0.00     0.168 A
HETATM   12  N4  UNL     1      -8.206  -9.614  11.286  1.00  0.00    -0.196 N
HETATM   13  N6  UNL     1      -8.379  -9.466   9.983  1.00  0.00     0.000 NA
HETATM   14  N7  UNL     1      -8.614 -10.643   9.402  1.00  0.00    -0.277 N
ATOM     15  H7  UNL     1      -8.780 -10.791   8.407  1.00  0.00     0.184 HD
BRANCH  12  16
HETATM   16  N5  UNL     1      -7.937  -8.609  12.236  1.00  0.00    -0.326 N
ATOM     17  H52 UNL     1      -7.804  -8.722  13.241  1.00  0.00     0.178 HD
ATOM     18  H51 UNL     1      -7.838  -7.610  12.057  1.00  0.00     0.178 HD
ENDBRANCH  12  16
ENDBRANCH   6  10
BRANCH   9  19
HETATM   19  C6  UNL     1     -11.597 -15.433   9.906  1.00  0.00     0.140 C
HETATM   20  N9  UNL     1     -12.460 -15.167  10.820  1.00  0.00    -0.307 N
ATOM     21  H9  UNL     1     -12.193 -14.545  11.582  1.00  0.00     0.186 HD
BRANCH  20  22
HETATM   22  N10 UNL     1     -13.738 -15.696  10.807  1.00  0.00    -0.276 N
HETATM   23  C7  UNL     1     -14.208 -16.526  11.661  1.00  0.00     0.215 C
HETATM   24  N11 UNL     1     -15.538 -16.966  11.499  1.00  0.00    -0.065 NA
HETATM   25  N12 UNL     1     -13.406 -16.993  12.748  1.00  0.00    -0.065 NA
ATOM     26  H10 UNL     1     -14.359 -15.399  10.053  1.00  0.00     0.189 HD
ENDBRANCH  20  22
ENDBRANCH   9  19
BRANCH   1  27
HETATM   27  N1  UNL     1      -9.329 -17.000   9.495  1.00  0.00    -0.383 N
ATOM     28  H12 UNL     1      -8.661 -17.557   8.961  1.00  0.00     0.157 HD
ATOM     29  H11 UNL     1     -10.137 -17.495   9.875  1.00  0.00     0.157 HD
ENDBRANCH   1  27
TORSDOF 5
ENDMDL