MODEL 5
REMARK VINA RESULT: -6.720527018      1.612      6.077
REMARK  5 active torsions:
REMARK  status: ('A' for Active; 'I' for Inactive)
REMARK    1  A    between atoms: N1_1  and  C1_4
REMARK    2  A    between atoms: N4_13  and  C5_15
REMARK    3  A    between atoms: C5_15  and  C6_16
REMARK    4  A    between atoms: C6_16  and  N5_17
REMARK    5  A    between atoms: N7_24  and  O2_25
ROOT
HETATM    1  C1  UNL     1       5.268 -14.723   0.922  1.00  0.00     0.695 C
HETATM    2  N2  UNL     1       4.842 -13.473   0.652  1.00  0.00    -0.153 N
ATOM      3  H2  UNL     1       4.410 -13.335  -0.261  1.00  0.00     0.187 HD
HETATM    4  C2  UNL     1       4.916 -12.380   1.445  1.00  0.00     0.290 C
HETATM    5  O1  UNL     1       4.311 -11.354   1.023  1.00  0.00    -0.265 OA
HETATM    6  C3  UNL     1       5.560 -12.204   2.660  1.00  0.00     0.166 A
HETATM    7  N3  UNL     1       5.575 -11.099   3.403  1.00  0.00    -0.182 N
ATOM      8  H3  UNL     1       5.103 -10.230   3.156  1.00  0.00     0.184 HD
HETATM    9  C4  UNL     1       6.305 -11.286   4.533  1.00  0.00     0.680 A
HETATM   10  N4  UNL     1       6.516 -10.409   5.461  1.00  0.00    -0.224 N
ATOM     11  H4  UNL     1       6.123  -9.470   5.398  1.00  0.00     0.177 HD
HETATM   12  N6  UNL     1       6.746 -12.555   4.463  1.00  0.00    -0.170 N
ATOM     13  H6  UNL     1       7.328 -13.006   5.168  1.00  0.00     0.186 HD
HETATM   14  C7  UNL     1       6.307 -13.152   3.324  1.00  0.00     0.200 A
HETATM   15  N7  UNL     1       6.575 -14.414   2.963  1.00  0.00    -0.129 N
HETATM   16  N8  UNL     1       6.157 -15.030   1.887  1.00  0.00    -0.104 N
ATOM     17  H8  UNL     1       6.599 -15.939   1.750  1.00  0.00     0.208 HD
ENDROOT
BRANCH  10  18
HETATM   18  C5  UNL     1       7.322 -10.806   6.583  1.00  0.00     0.165 C
BRANCH  18  19
HETATM   19  C6  UNL     1       7.739  -9.630   7.434  1.00  0.00     0.249 C
BRANCH  19  20
HETATM   20  N5  UNL     1       6.632  -9.206   8.242  1.00  0.00    -0.078 N
ATOM     21  H53 UNL     1       5.749  -9.245   7.734  1.00  0.00     0.274 HD
ATOM     22  H52 UNL     1       6.410  -9.880   8.974  1.00  0.00     0.274 HD
ATOM     23  H51 UNL     1       6.821  -8.278   8.618  1.00  0.00     0.274 HD
ENDBRANCH  19  20
ENDBRANCH  18  19
ENDBRANCH  10  18
BRANCH  15  24
HETATM   24  O2  UNL     1       7.301 -15.011   3.779  1.00  0.00    -0.266 OA
ATOM     25  H2  UNL     1       6.858 -15.730   4.215  1.00  0.00     0.247 HD
ENDBRANCH  15  24
BRANCH   1  26
HETATM   26  N1  UNL     1       4.798 -15.678   0.216  1.00  0.00    -0.233 N
ATOM     27  H12 UNL     1       3.784 -15.762   0.141  1.00  0.00     0.174 HD
ATOM     28  H11 UNL     1       5.462 -16.307  -0.236  1.00  0.00     0.174 HD
ENDBRANCH   1  26
TORSDOF 5
ENDMDL