MODEL 4
REMARK VINA RESULT: -7.297420773      2.077      3.656
REMARK  4 active torsions:
REMARK  status: ('A' for Active; 'I' for Inactive)
REMARK    1  A    between atoms: N3_4  and  C2_6
REMARK    2  A    between atoms: C2_6  and  N4_7
REMARK    3  A    between atoms: C2_6  and  C3_11
REMARK    4  A    between atoms: N6_14  and  O1_15
ROOT
HETATM    1  C3  UNL     1       5.844 -13.462   1.444  1.00  0.00     0.097 A
HETATM    2  N5  UNL     1       5.612 -13.899   0.200  1.00  0.00    -0.272 N
ATOM      3  H5  UNL     1       5.231 -13.321  -0.549  1.00  0.00     0.189 HD
HETATM    4  N6  UNL     1       5.939 -15.172   0.065  1.00  0.00    -0.145 N
HETATM    5  C4  UNL     1       6.416 -15.634   1.257  1.00  0.00     0.173 A
HETATM    6  N7  UNL     1       6.883 -16.814   1.701  1.00  0.00    -0.290 N
ATOM      7  H7  UNL     1       6.924 -17.604   1.057  1.00  0.00     0.172 HD
HETATM    8  C5  UNL     1       7.301 -16.986   2.978  1.00  0.00     0.328 A
HETATM    9  O2  UNL     1       7.736 -18.082   3.392  1.00  0.00    -0.247 OA
HETATM   10  N8  UNL     1       7.250 -15.954   3.831  1.00  0.00    -0.275 N
ATOM     11  H8  UNL     1       7.561 -16.069   4.796  1.00  0.00     0.173 HD
HETATM   12  C6  UNL     1       6.781 -14.755   3.403  1.00  0.00     0.265 A
HETATM   13  O3  UNL     1       6.750 -13.829   4.222  1.00  0.00    -0.267 OA
HETATM   14  C7  UNL     1       6.354 -14.558   2.116  1.00  0.00     0.108 A
ENDROOT
BRANCH   1  15
HETATM   15  C2  UNL     1       5.601 -12.095   1.956  1.00  0.00     0.337 C
BRANCH  15  16
HETATM   16  N3  UNL     1       6.856 -11.434   2.267  1.00  0.00    -0.335 N
HETATM   17  C1  UNL     1       7.050 -10.627   3.211  1.00  0.00     0.198 C
HETATM   18  N1  UNL     1       6.014 -10.276   4.092  1.00  0.00    -0.067 NA
HETATM   19  N2  UNL     1       8.327 -10.064   3.386  1.00  0.00    -0.067 NA
ATOM     20  H3  UNL     1       7.652 -11.644   1.666  1.00  0.00     0.164 HD
ENDBRANCH  15  16
BRANCH  15  21
HETATM   21  N4  UNL     1       4.817 -11.329   0.991  1.00  0.00    -0.053 N
ATOM     22  H43 UNL     1       3.948 -11.807   0.752  1.00  0.00     0.277 HD
ATOM     23  H42 UNL     1       4.423 -10.488   1.414  1.00  0.00     0.277 HD
ATOM     24  H41 UNL     1       5.362 -11.106   0.158  1.00  0.00     0.277 HD
ENDBRANCH  15  21
ENDBRANCH   1  15
BRANCH   4  25
HETATM   25  O1  UNL     1       5.831 -15.935  -1.072  1.00  0.00    -0.266 OA
ATOM     26  H1  UNL     1       6.509 -16.474  -1.464  1.00  0.00     0.247 HD
ENDBRANCH   4  25
TORSDOF 4
ENDMDL