MODEL 4
REMARK VINA RESULT: -6.453699244      2.122      3.444
REMARK  2 active torsions:
REMARK  status: ('A' for Active; 'I' for Inactive)
REMARK       I    between atoms: C1_4  and  N3_6
REMARK       I    between atoms: C2_8  and  N5_10
REMARK    1  A    between atoms: C4_16  and  C5_17
REMARK    2  A    between atoms: C4_16  and  C6_19
ROOT
HETATM    1  N1  UNL     1       4.880 -17.140  -0.172  1.00  0.00    -0.373 N
ATOM      2  H11 UNL     1       4.139 -16.446  -0.073  1.00  0.00     0.158 HD
ATOM      3  H12 UNL     1       4.752 -17.916  -0.822  1.00  0.00     0.158 HD
HETATM    4  C1  UNL     1       5.954 -17.045   0.507  1.00  0.00     0.188 C
HETATM    5  N2  UNL     1       6.985 -18.010   0.370  1.00  0.00    -0.064 NA
HETATM    6  N3  UNL     1       6.131 -15.977   1.403  1.00  0.00    -0.304 N
ATOM      7  H3  UNL     1       6.039 -16.169   2.400  1.00  0.00     0.171 HD
HETATM    8  C2  UNL     1       6.405 -14.756   1.036  1.00  0.00     0.212 C
HETATM    9  N4  UNL     1       6.520 -14.559  -0.361  1.00  0.00    -0.062 NA
HETATM   10  N5  UNL     1       6.577 -13.713   1.966  1.00  0.00    -0.212 N
HETATM   11  N6  UNL     1       7.616 -13.567   2.868  1.00  0.00    -0.013 NA
HETATM   12  N7  UNL     1       6.943 -13.173   4.029  1.00  0.00    -0.251 N
ATOM     13  H7  UNL     1       7.244 -13.368   4.984  1.00  0.00     0.187 HD
HETATM   14  C3  UNL     1       5.769 -12.456   3.664  1.00  0.00     0.281 C
HETATM   15  O1  UNL     1       4.992 -11.862   4.422  1.00  0.00    -0.268 OA
HETATM   16  C4  UNL     1       5.704 -12.594   2.160  1.00  0.00     0.265 C
ENDROOT
BRANCH  16  17
HETATM   17  C5  UNL     1       6.295 -11.330   1.635  1.00  0.00     0.283 C
HETATM   18  O2  UNL     1       6.506 -10.408   2.379  1.00  0.00    -0.303 OA
ENDBRANCH  16  17
BRANCH  16  19
HETATM   19  C6  UNL     1       4.335 -12.789   1.692  1.00  0.00     0.278 C
HETATM   20  N8  UNL     1       3.606 -11.708   1.162  1.00  0.00    -0.059 NA
HETATM   21  O3  UNL     1       3.795 -13.918   1.757  1.00  0.00    -0.273 OA
ENDBRANCH  16  19
TORSDOF 2
ENDMDL