MODEL 2
REMARK VINA RESULT: -6.365622794      2.334      4.098
REMARK  5 active torsions:
REMARK  status: ('A' for Active; 'I' for Inactive)
REMARK    1  A    between atoms: C1_2  and  C2_4
REMARK    2  A    between atoms: N2_6  and  N3_7
REMARK    3  A    between atoms: N3_7  and  N4_8
REMARK    4  A    between atoms: N3_7  and  N5_11
REMARK    5  A    between atoms: N8_19  and  O2_20
ROOT
HETATM    1  C2  UNL     1       6.814 -11.970   3.642  1.00  0.00     0.099 A
HETATM    2  C3  UNL     1       7.289 -13.258   3.687  1.00  0.00     0.143 A
HETATM    3  N2  UNL     1       6.765 -14.246   2.945  1.00  0.00    -0.211 N
HETATM    4  C4  UNL     1       5.733 -14.010   2.110  1.00  0.00     0.181 A
HETATM    5  N6  UNL     1       5.001 -14.741   1.257  1.00  0.00    -0.265 N
ATOM      6  H6  UNL     1       5.129 -15.739   1.083  1.00  0.00     0.190 HD
HETATM    7  N7  UNL     1       4.093 -13.982   0.676  1.00  0.00    -0.214 N
ATOM      8  H7  UNL     1       3.418 -14.316  -0.012  1.00  0.00     0.211 HD
HETATM    9  N8  UNL     1       4.168 -12.728   1.101  1.00  0.00    -0.141 N
HETATM   10  C5  UNL     1       5.166 -12.651   2.004  1.00  0.00     0.180 A
HETATM   11  C6  UNL     1       5.748 -11.681   2.793  1.00  0.00     0.223 A
HETATM   12  O3  UNL     1       5.288 -10.511   2.728  1.00  0.00    -0.285 OA
ENDROOT
BRANCH   3  13
HETATM   13  N3  UNL     1       7.290 -15.533   3.042  1.00  0.00    -0.136 N
BRANCH  13  14
HETATM   14  N4  UNL     1       8.187 -15.938   2.032  1.00  0.00    -0.309 N
ATOM     15  H42 UNL     1       8.238 -15.408   1.161  1.00  0.00     0.180 HD
ATOM     16  H41 UNL     1       8.763 -16.757   2.224  1.00  0.00     0.180 HD
ENDBRANCH  13  14
BRANCH  13  17
HETATM   17  N5  UNL     1       6.964 -16.419   4.069  1.00  0.00    -0.309 N
ATOM     18  H52 UNL     1       7.683 -17.033   4.451  1.00  0.00     0.180 HD
ATOM     19  H51 UNL     1       6.028 -16.496   4.467  1.00  0.00     0.180 HD
ENDBRANCH  13  17
ENDBRANCH   3  13
BRANCH   1  20
HETATM   20  C1  UNL     1       7.412 -10.906   4.432  1.00  0.00     0.270 C
HETATM   21  N1  UNL     1       7.058 -10.615   5.768  1.00  0.00    -0.057 NA
HETATM   22  O1  UNL     1       8.317 -10.178   3.903  1.00  0.00    -0.271 OA
ENDBRANCH   1  20
BRANCH   9  23
HETATM   23  O2  UNL     1       3.387 -11.643   0.725  1.00  0.00    -0.266 OA
ATOM     24  H2  UNL     1       3.542 -10.721   0.891  1.00  0.00     0.247 HD
ENDBRANCH   9  23
TORSDOF 5
ENDMDL