MODEL 2
REMARK VINA RESULT: -7.050970862      1.374      2.474
REMARK  5 active torsions:
REMARK  status: ('A' for Active; 'I' for Inactive)
REMARK    1  A    between atoms: N1_1  and  C1_4
REMARK    2  A    between atoms: C2_7  and  N3_8
REMARK    3  A    between atoms: N3_8  and  N4_10
REMARK    4  A    between atoms: C5_19  and  N8_20
REMARK    5  A    between atoms: N8_20  and  C6_22
ROOT
HETATM    1  C1  UNL     1       4.700 -11.857   1.665  1.00  0.00     0.692 A
HETATM    2  N2  UNL     1       4.701 -12.907   0.843  1.00  0.00    -0.021 N
ATOM      3  H2  UNL     1       4.243 -12.733  -0.051  1.00  0.00     0.203 HD
HETATM    4  C2  UNL     1       5.198 -14.166   0.973  1.00  0.00     0.714 A
HETATM    5  N7  UNL     1       5.885 -14.650   2.019  1.00  0.00    -0.151 N
ATOM      6  H7  UNL     1       6.197 -15.617   1.924  1.00  0.00     0.188 HD
HETATM    7  C4  UNL     1       6.228 -14.044   3.188  1.00  0.00     0.304 A
HETATM    8  O1  UNL     1       6.893 -14.694   4.032  1.00  0.00    -0.263 OA
HETATM    9  C5  UNL     1       5.934 -12.759   3.588  1.00  0.00     0.192 A
HETATM   10  N9  UNL     1       5.276 -11.792   2.887  1.00  0.00    -0.171 N
ATOM     11  H9  UNL     1       5.207 -10.887   3.353  1.00  0.00     0.186 HD
ENDROOT
BRANCH   4  12
HETATM   12  N3  UNL     1       4.998 -14.986   0.011  1.00  0.00    -0.129 N
ATOM     13  H3  UNL     1       4.334 -15.755   0.106  1.00  0.00     0.205 HD
BRANCH  12  14
HETATM   14  N4  UNL     1       5.713 -14.796  -1.169  1.00  0.00    -0.262 N
HETATM   15  C3  UNL     1       6.833 -15.381  -1.408  1.00  0.00     0.216 C
HETATM   16  N5  UNL     1       7.431 -16.273  -0.478  1.00  0.00    -0.065 NA
HETATM   17  N6  UNL     1       7.476 -15.110  -2.651  1.00  0.00    -0.065 NA
ATOM     18  H4  UNL     1       5.333 -14.165  -1.873  1.00  0.00     0.190 HD
ENDBRANCH  12  14
ENDBRANCH   4  12
BRANCH   1  19
HETATM   19  N1  UNL     1       4.108 -10.765   1.313  1.00  0.00    -0.234 N
ATOM     20  H12 UNL     1       4.506 -10.336   0.478  1.00  0.00     0.174 HD
ATOM     21  H11 UNL     1       3.321 -10.416   1.860  1.00  0.00     0.174 HD
ENDBRANCH   1  19
BRANCH   9  22
HETATM   22  N8  UNL     1       6.325 -12.414   4.774  1.00  0.00    -0.315 N
ATOM     23  H8  UNL     1       6.322 -13.120   5.509  1.00  0.00     0.170 HD
BRANCH  22  24
HETATM   24  C6  UNL     1       6.754 -11.114   5.099  1.00  0.00     0.354 C
HETATM   25  O2  UNL     1       5.921 -10.232   5.373  1.00  0.00    -0.283 OA
ENDBRANCH  22  24
ENDBRANCH   9  22
TORSDOF 5
ENDMDL