MODEL 1
REMARK VINA RESULT: -5.862579105      0.000      0.000
REMARK  3 active torsions:
REMARK  status: ('A' for Active; 'I' for Inactive)
REMARK    1  A    between atoms: N1_1  and  N2_4
REMARK       I    between atoms: N2_4  and  C1_6
REMARK    2  A    between atoms: N4_8  and  C2_10
REMARK    3  A    between atoms: C2_10  and  C3_11
ROOT
HETATM    1  C2  UNL     1       6.267 -14.601   2.154  1.00  0.00     0.249 C
HETATM    2  C4  UNL     1       6.375 -15.318   0.824  1.00  0.00     0.269 C
HETATM    3  O2  UNL     1       5.413 -15.346   0.025  1.00  0.00    -0.269 OA
HETATM    4  N5  UNL     1       7.634 -15.936   0.574  1.00  0.00    -0.301 N
ATOM      5  H5  UNL     1       7.976 -16.019  -0.383  1.00  0.00     0.171 HD
HETATM    6  C5  UNL     1       8.418 -16.439   1.649  1.00  0.00     0.181 C
HETATM    7  S1  UNL     1       9.861 -17.154   1.423  1.00  0.00    -0.040 SA
HETATM    8  N6  UNL     1       7.898 -16.300   2.966  1.00  0.00    -0.301 N
ATOM      9  H6  UNL     1       8.423 -16.645   3.769  1.00  0.00     0.171 HD
HETATM   10  C6  UNL     1       6.614 -15.663   3.148  1.00  0.00     0.269 C
HETATM   11  O3  UNL     1       5.867 -15.990   4.073  1.00  0.00    -0.269 OA
ENDROOT
BRANCH   1  12
HETATM   12  N4  UNL     1       7.228 -13.533   2.215  1.00  0.00    -0.332 N
HETATM   13  C1  UNL     1       7.304 -12.785   3.238  1.00  0.00     0.204 C
HETATM   14  N2  UNL     1       8.262 -11.728   3.287  1.00  0.00    -0.280 N
HETATM   15  N3  UNL     1       6.465 -12.962   4.347  1.00  0.00    -0.062 NA
ATOM     16  H2  UNL     1       9.184 -11.944   3.665  1.00  0.00     0.189 HD
ATOM     17  H4  UNL     1       7.856 -13.375   1.427  1.00  0.00     0.164 HD
BRANCH  14  18
HETATM   18  N1  UNL     1       8.035 -10.443   2.865  1.00  0.00    -0.343 N
ATOM     19  H12 UNL     1       8.513 -10.155   2.011  1.00  0.00     0.176 HD
ATOM     20  H11 UNL     1       7.432  -9.771   3.339  1.00  0.00     0.176 HD
ENDBRANCH  14  18
ENDBRANCH   1  12
BRANCH   1  21
HETATM   21  C3  UNL     1       4.894 -14.117   2.274  1.00  0.00     0.282 C
HETATM   22  O1  UNL     1       4.552 -13.146   1.633  1.00  0.00    -0.303 OA
ENDBRANCH   1  21
TORSDOF 3
ENDMDL