MODEL 2
REMARK VINA RESULT: -7.681594292      1.524      2.634
REMARK  2 active torsions:
REMARK  status: ('A' for Active; 'I' for Inactive)
REMARK    1  A    between atoms: C8_11  and  O1_12
REMARK    2  A    between atoms: O1_12  and  N3_13
ROOT
HETATM    1  C1  UNL     1       4.236 -12.215   1.194  1.00  0.00     0.044 C
HETATM    2  C2  UNL     1       5.063 -12.576   2.145  1.00  0.00     0.040 A
HETATM    3  N1  UNL     1       5.342 -11.838   3.238  1.00  0.00    -0.354 N
ATOM      4  H1  UNL     1       4.939 -10.922   3.437  1.00  0.00     0.166 HD
HETATM    5  C3  UNL     1       6.218 -12.467   4.024  1.00  0.00     0.072 A
HETATM    6  C4  UNL     1       6.715 -12.042   5.172  1.00  0.00     0.125 C
HETATM    7  C5  UNL     1       6.343 -10.777   5.732  1.00  0.00     0.090 C
HETATM    8  N2  UNL     1       6.037  -9.750   6.197  1.00  0.00    -0.192 NA
HETATM    9  C6  UNL     1       6.498 -13.668   3.379  1.00  0.00     0.093 A
HETATM   10  C7  UNL     1       5.790 -13.764   2.200  1.00  0.00     0.075 A
HETATM   11  C8  UNL     1       5.889 -14.819   1.406  1.00  0.00     0.201 A
HETATM   12  N6  UNL     1       6.757 -15.872   1.801  1.00  0.00    -0.263 N
ATOM     13  H6  UNL     1       6.867 -16.705   1.224  1.00  0.00     0.190 HD
HETATM   14  N7  UNL     1       7.453 -15.733   2.998  1.00  0.00    -0.240 N
ATOM     15  H7  UNL     1       8.081 -16.478   3.298  1.00  0.00     0.208 HD
HETATM   16  N8  UNL     1       7.310 -14.603   3.791  1.00  0.00    -0.283 N
ATOM     17  H8  UNL     1       7.823 -14.508   4.668  1.00  0.00     0.188 HD
ENDROOT
BRANCH  11  18
HETATM   18  O1  UNL     1       5.156 -14.870   0.231  1.00  0.00    -0.215 OA
BRANCH  18  19
HETATM   19  N3  UNL     1       5.801 -14.847  -1.000  1.00  0.00    -0.233 N
HETATM   20  C9  UNL     1       6.105 -15.950  -1.565  1.00  0.00     0.221 C
HETATM   21  N4  UNL     1       5.801 -17.188  -0.969  1.00  0.00    -0.065 NA
HETATM   22  N5  UNL     1       6.765 -15.924  -2.824  1.00  0.00    -0.065 NA
ATOM     23  H3  UNL     1       6.029 -13.958  -1.446  1.00  0.00     0.197 HD
ENDBRANCH  18  19
ENDBRANCH  11  18
TORSDOF 2
ENDMDL