MODEL 4
REMARK VINA RESULT: -7.546736024      2.361      6.042
REMARK  4 active torsions:
REMARK  status: ('A' for Active; 'I' for Inactive)
REMARK    1  A    between atoms: C1_4  and  C2_6
REMARK    2  A    between atoms: C3_7  and  C4_8
REMARK    3  A    between atoms: C4_8  and  O1_9
REMARK    4  A    between atoms: C4_8  and  N3_11
REMARK       I    between atoms: N3_11  and  C5_13
ROOT
HETATM    1  C2  UNL     1       6.405 -13.778   2.720  1.00  0.00     0.104 A
HETATM    2  C3  UNL     1       5.888 -13.456   1.519  1.00  0.00     0.106 A
HETATM    3  N6  UNL     1       5.982 -12.135   1.074  1.00  0.00    -0.304 N
ATOM      4  H6  UNL     1       5.593 -11.901   0.160  1.00  0.00     0.171 HD
HETATM    5  C6  UNL     1       6.551 -11.173   1.784  1.00  0.00     0.327 A
HETATM    6  O2  UNL     1       6.604  -9.979   1.317  1.00  0.00    -0.247 OA
HETATM    7  N7  UNL     1       7.068 -11.453   2.982  1.00  0.00    -0.275 N
ATOM      8  H7  UNL     1       7.507 -10.717   3.534  1.00  0.00     0.173 HD
HETATM    9  C7  UNL     1       7.009 -12.698   3.453  1.00  0.00     0.265 A
HETATM   10  O3  UNL     1       7.484 -12.992   4.575  1.00  0.00    -0.267 OA
ENDROOT
BRANCH   2  11
HETATM   11  C4  UNL     1       5.172 -14.337   0.671  1.00  0.00     0.170 C
BRANCH  11  12
HETATM   12  O1  UNL     1       3.904 -14.479   0.964  1.00  0.00    -0.344 OA
ATOM     13  H1  UNL     1       3.402 -14.994   0.343  1.00  0.00     0.219 HD
ENDBRANCH  11  12
BRANCH  11  14
HETATM   14  N3  UNL     1       5.512 -15.107  -0.410  1.00  0.00    -0.312 N
HETATM   15  C5  UNL     1       5.615 -16.408  -0.408  1.00  0.00     0.203 C
HETATM   16  N4  UNL     1       5.980 -17.028  -1.628  1.00  0.00    -0.066 NA
HETATM   17  N5  UNL     1       5.382 -17.195   0.746  1.00  0.00    -0.066 NA
ATOM     18  H3  UNL     1       5.698 -14.624  -1.289  1.00  0.00     0.170 HD
ENDBRANCH  11  14
ENDBRANCH   2  11
BRANCH   1  19
HETATM   19  C1  UNL     1       6.583 -15.087   3.269  1.00  0.00     0.128 C
HETATM   20  N1  UNL     1       7.682 -15.766   2.866  1.00  0.00    -0.387 N
ATOM     21  H12 UNL     1       7.809 -16.699   3.258  1.00  0.00     0.157 HD
ATOM     22  H11 UNL     1       8.270 -15.183   2.271  1.00  0.00     0.157 HD
HETATM   23  N2  UNL     1       5.783 -15.880   4.079  1.00  0.00    -0.082 NA
ENDBRANCH   1  19
TORSDOF 4
ENDMDL