MODEL 4
REMARK VINA RESULT: -7.051518000      2.342      6.172
REMARK  5 active torsions:
REMARK  status: ('A' for Active; 'I' for Inactive)
REMARK    1  A    between atoms: N1_1  and  N2_4
REMARK       I    between atoms: C1_6  and  N4_8
REMARK    2  A    between atoms: N4_8  and  N5_10
REMARK    3  A    between atoms: N5_10  and  C2_12
REMARK    4  A    between atoms: C4_19  and  N8_20
REMARK    5  A    between atoms: N8_20  and  C5_22
ROOT
HETATM    1  C2  UNL     1       6.055 -13.627   1.427  1.00  0.00     0.715 A
HETATM    2  N6  UNL     1       5.488 -12.516   0.923  1.00  0.00    -0.139 N
ATOM      3  H6  UNL     1       5.158 -12.513  -0.042  1.00  0.00     0.189 HD
HETATM    4  C3  UNL     1       5.350 -11.397   1.684  1.00  0.00     0.352 A
HETATM    5  O1  UNL     1       4.819 -10.353   1.214  1.00  0.00    -0.246 OA
HETATM    6  N7  UNL     1       5.770 -11.351   2.960  1.00  0.00    -0.140 N
ATOM      7  H7  UNL     1       5.664 -10.510   3.526  1.00  0.00     0.189 HD
HETATM    8  C4  UNL     1       6.337 -12.465   3.457  1.00  0.00     0.703 A
HETATM    9  N9  UNL     1       6.472 -13.568   2.706  1.00  0.00    -0.020 N
ATOM     10  H9  UNL     1       6.907 -14.393   3.118  1.00  0.00     0.203 HD
ENDROOT
BRANCH   1  11
HETATM   11  N5  UNL     1       6.177 -14.663   0.704  1.00  0.00    -0.129 N
ATOM     12  H5  UNL     1       6.753 -15.418   1.077  1.00  0.00     0.205 HD
BRANCH  11  13
HETATM   13  N4  UNL     1       5.611 -14.872  -0.533  1.00  0.00    -0.258 N
HETATM   14  C1  UNL     1       6.263 -15.461  -1.650  1.00  0.00     0.222 C
HETATM   15  N2  UNL     1       6.873 -14.696  -2.498  1.00  0.00    -0.279 N
HETATM   16  N3  UNL     1       6.218 -16.884  -1.795  1.00  0.00    -0.061 NA
ATOM     17  H2  UNL     1       6.896 -13.683  -2.380  1.00  0.00     0.189 HD
ATOM     18  H4  UNL     1       4.643 -14.579  -0.659  1.00  0.00     0.190 HD
BRANCH  15  19
HETATM   19  N1  UNL     1       7.500 -15.320  -3.581  1.00  0.00    -0.343 N
ATOM     20  H12 UNL     1       7.837 -16.279  -3.504  1.00  0.00     0.176 HD
ATOM     21  H11 UNL     1       7.600 -14.773  -4.437  1.00  0.00     0.176 HD
ENDBRANCH  15  19
ENDBRANCH  11  13
ENDBRANCH   1  11
BRANCH   8  22
HETATM   22  N8  UNL     1       6.751 -12.446   4.690  1.00  0.00    -0.167 N
ATOM     23  H8  UNL     1       6.965 -13.332   5.150  1.00  0.00     0.186 HD
BRANCH  22  24
HETATM   24  C5  UNL     1       6.913 -11.256   5.412  1.00  0.00     0.368 C
HETATM   25  O2  UNL     1       5.908 -10.644   5.827  1.00  0.00    -0.283 OA
ENDBRANCH  22  24
ENDBRANCH   8  22
TORSDOF 5
ENDMDL