MODEL 4
REMARK VINA RESULT: -7.043255708      2.568      6.212
REMARK  5 active torsions:
REMARK  status: ('A' for Active; 'I' for Inactive)
REMARK    1  A    between atoms: N2_4  and  C1_6
REMARK    2  A    between atoms: C2_9  and  N4_10
REMARK    3  A    between atoms: C4_17  and  C5_18
REMARK    4  A    between atoms: C5_18  and  N7_22
REMARK    5  A    between atoms: C6_24  and  C7_25
ROOT
HETATM    1  C1  UNL     1       6.303 -12.211   1.540  1.00  0.00     0.154 A
HETATM    2  N3  UNL     1       5.681 -12.960   0.582  1.00  0.00    -0.174 N
ATOM      3  H3  UNL     1       5.352 -12.516  -0.275  1.00  0.00     0.186 HD
HETATM    4  C2  UNL     1       5.502 -14.271   0.762  1.00  0.00     0.680 A
HETATM    5  N5  UNL     1       5.915 -14.910   1.872  1.00  0.00    -0.155 N
ATOM      6  H5  UNL     1       5.764 -15.912   1.979  1.00  0.00     0.187 HD
HETATM    7  C3  UNL     1       6.531 -14.206   2.834  1.00  0.00     0.277 A
HETATM    8  O1  UNL     1       6.951 -14.729   3.908  1.00  0.00    -0.266 OA
HETATM    9  C4  UNL     1       6.728 -12.841   2.669  1.00  0.00     0.122 A
ENDROOT
BRANCH   9  10
HETATM   10  C5  UNL     1       7.405 -12.067   3.727  1.00  0.00     0.118 C
HETATM   11  N6  UNL     1       8.680 -11.933   3.685  1.00  0.00    -0.385 N
ATOM     12  H62 UNL     1       9.189 -12.369   2.916  1.00  0.00     0.157 HD
ATOM     13  H61 UNL     1       9.148 -11.398   4.417  1.00  0.00     0.157 HD
BRANCH  10  14
HETATM   14  N7  UNL     1       6.702 -11.465   4.791  1.00  0.00    -0.347 N
HETATM   15  C6  UNL     1       7.319 -10.668   5.587  1.00  0.00     0.160 C
ATOM     16  H7  UNL     1       5.711 -11.661   4.927  1.00  0.00     0.167 HD
BRANCH  15  17
HETATM   17  C7  UNL     1       6.630 -10.021   6.704  1.00  0.00     0.270 C
HETATM   18  N8  UNL     1       7.382  -9.674   7.854  1.00  0.00    -0.057 NA
HETATM   19  O2  UNL     1       5.402  -9.794   6.613  1.00  0.00    -0.270 OA
ENDBRANCH  15  17
ENDBRANCH  10  14
ENDBRANCH   9  10
BRANCH   1  20
HETATM   20  N2  UNL     1       6.479 -10.815   1.319  1.00  0.00    -0.291 N
HETATM   21  N1  UNL     1       7.551 -10.343   0.854  1.00  0.00    -0.344 N
ATOM     22  H12 UNL     1       8.305 -10.994   0.634  1.00  0.00     0.176 HD
ATOM     23  H11 UNL     1       7.677  -9.344   0.695  1.00  0.00     0.176 HD
ATOM     24  H2  UNL     1       5.716 -10.178   1.544  1.00  0.00     0.188 HD
ENDBRANCH   1  20
BRANCH   4  25
HETATM   25  N4  UNL     1       4.906 -15.000  -0.149  1.00  0.00    -0.234 N
ATOM     26  H42 UNL     1       4.554 -14.509  -0.972  1.00  0.00     0.174 HD
ATOM     27  H41 UNL     1       4.806 -16.009  -0.030  1.00  0.00     0.174 HD
ENDBRANCH   4  25
TORSDOF 5
ENDMDL