MODEL 5
REMARK VINA RESULT: -6.428942693      1.437      1.804
REMARK  3 active torsions:
REMARK  status: ('A' for Active; 'I' for Inactive)
REMARK    1  A    between atoms: N1_1  and  C1_4
REMARK    2  A    between atoms: C6_16  and  C7_17
REMARK    3  A    between atoms: N6_19  and  N7_21
ROOT
HETATM    1  C1  UNL     1     -15.320   9.164  -0.238  1.00  0.00     0.116 A
HETATM    2  C2  UNL     1     -15.256   8.814  -1.562  1.00  0.00     0.136 A
HETATM    3  N2  UNL     1     -15.351   7.522  -1.918  1.00  0.00    -0.358 N
ATOM      4  H2  UNL     1     -15.302   7.278  -2.907  1.00  0.00     0.165 HD
HETATM    5  C3  UNL     1     -15.509   6.526  -1.004  1.00  0.00     0.096 A
HETATM    6  C4  UNL     1     -15.571   6.896   0.324  1.00  0.00     0.138 A
HETATM    7  N3  UNL     1     -15.476   8.202   0.687  1.00  0.00    -0.326 N
ATOM      8  H3  UNL     1     -15.523   8.455   1.674  1.00  0.00     0.169 HD
HETATM    9  N4  UNL     1     -15.722   5.846   1.075  1.00  0.00    -0.307 N
ATOM     10  H4  UNL     1     -15.796   5.843   2.092  1.00  0.00     0.170 HD
HETATM   11  C5  UNL     1     -15.767   4.705   0.231  1.00  0.00     0.263 A
HETATM   12  O1  UNL     1     -15.907   3.496   0.597  1.00  0.00    -0.267 OA
HETATM   13  C6  UNL     1     -15.621   5.216  -1.137  1.00  0.00     0.105 A
ENDROOT
BRANCH  13  14
HETATM   14  C7  UNL     1     -15.606   4.428  -2.353  1.00  0.00     0.148 C
HETATM   15  N5  UNL     1     -16.803   4.232  -3.085  1.00  0.00    -0.080 NA
HETATM   16  N6  UNL     1     -14.482   3.921  -2.735  1.00  0.00    -0.293 N
ATOM     17  H6  UNL     1     -13.656   4.099  -2.164  1.00  0.00     0.187 HD
BRANCH  16  18
HETATM   18  N7  UNL     1     -14.332   3.151  -3.875  1.00  0.00    -0.344 N
ATOM     19  H72 UNL     1     -14.638   3.564  -4.757  1.00  0.00     0.176 HD
ATOM     20  H71 UNL     1     -13.940   2.210  -3.877  1.00  0.00     0.176 HD
ENDBRANCH  16  18
ENDBRANCH  13  14
BRANCH   1  21
HETATM   21  N1  UNL     1     -15.235  10.403   0.163  1.00  0.00    -0.384 N
ATOM     22  H12 UNL     1     -14.315  10.774   0.403  1.00  0.00     0.157 HD
ATOM     23  H11 UNL     1     -16.051  11.010   0.241  1.00  0.00     0.157 HD
ENDBRANCH   1  21
TORSDOF 3
ENDMDL