MODEL 1
REMARK VINA RESULT: -6.971711578      0.000      0.000
REMARK  3 active torsions:
REMARK  status: ('A' for Active; 'I' for Inactive)
REMARK    1  A    between atoms: N1_1  and  N2_4
REMARK    2  A    between atoms: N2_4  and  N3_6
REMARK    3  A    between atoms: N3_6  and  C1_8
ROOT
HETATM    1  C1  UNL     1     -15.910   3.453  -1.898  1.00  0.00     0.194 C
HETATM    2  N4  UNL     1     -16.838   3.253  -0.920  1.00  0.00    -0.289 N
ATOM      3  H4  UNL     1     -17.045   2.283  -0.682  1.00  0.00     0.172 HD
HETATM    4  C2  UNL     1     -17.511   4.197  -0.234  1.00  0.00     0.330 C
HETATM    5  O1  UNL     1     -18.379   3.801   0.602  1.00  0.00    -0.246 OA
HETATM    6  N5  UNL     1     -17.397   5.550  -0.305  1.00  0.00    -0.260 N
ATOM      7  H5  UNL     1     -18.141   6.070   0.161  1.00  0.00     0.175 HD
HETATM    8  C3  UNL     1     -16.455   6.310  -0.893  1.00  0.00     0.331 C
HETATM    9  O2  UNL     1     -16.476   7.532  -0.596  1.00  0.00    -0.246 OA
HETATM   10  N6  UNL     1     -15.521   5.862  -1.751  1.00  0.00    -0.272 N
ATOM     11  H6  UNL     1     -14.947   6.593  -2.170  1.00  0.00     0.174 HD
HETATM   12  C4  UNL     1     -15.213   4.615  -2.152  1.00  0.00     0.295 C
HETATM   13  O3  UNL     1     -14.169   4.495  -2.837  1.00  0.00    -0.264 OA
ENDROOT
BRANCH   1  14
HETATM   14  N3  UNL     1     -15.686   2.448  -2.638  1.00  0.00    -0.267 N
ATOM     15  H3  UNL     1     -15.454   1.576  -2.163  1.00  0.00     0.190 HD
BRANCH  14  16
HETATM   16  N2  UNL     1     -15.722   2.406  -4.022  1.00  0.00    -0.248 N
ATOM     17  H2  UNL     1     -16.598   2.542  -4.528  1.00  0.00     0.207 HD
BRANCH  16  18
HETATM   18  N1  UNL     1     -14.622   2.193  -4.652  1.00  0.00    -0.331 N
ATOM     19  H12 UNL     1     -14.250   1.245  -4.721  1.00  0.00     0.178 HD
ATOM     20  H11 UNL     1     -14.144   2.990  -5.072  1.00  0.00     0.178 HD
ENDBRANCH  16  18
ENDBRANCH  14  16
ENDBRANCH   1  14
TORSDOF 3
ENDMDL