MODEL 4
REMARK VINA RESULT: -7.169464628      1.618      5.190
REMARK  3 active torsions:
REMARK  status: ('A' for Active; 'I' for Inactive)
REMARK    1  A    between atoms: N1_1  and  C1_4
REMARK    2  A    between atoms: C3_11  and  N4_12
REMARK    3  A    between atoms: N4_12  and  C4_14
ROOT
HETATM    1  C1  UNL     1     -16.092   6.964   0.627  1.00  0.00     0.694 A
HETATM    2  N2  UNL     1     -16.028   8.200   0.107  1.00  0.00    -0.141 N
ATOM      3  H2  UNL     1     -16.269   9.021   0.660  1.00  0.00     0.189 HD
HETATM    4  C2  UNL     1     -15.633   8.311  -1.178  1.00  0.00     0.352 A
HETATM    5  O1  UNL     1     -15.570   9.476  -1.675  1.00  0.00    -0.246 OA
HETATM    6  N3  UNL     1     -15.316   7.245  -1.916  1.00  0.00    -0.140 N
ATOM      7  H3  UNL     1     -15.021   7.364  -2.885  1.00  0.00     0.189 HD
HETATM    8  C3  UNL     1     -15.386   6.005  -1.377  1.00  0.00     0.697 A
HETATM    9  N6  UNL     1     -15.777   5.876  -0.099  1.00  0.00    -0.022 N
ATOM     10  H6  UNL     1     -15.835   4.950   0.323  1.00  0.00     0.203 HD
ENDROOT
BRANCH   8  11
HETATM   11  N4  UNL     1     -15.091   4.957  -2.049  1.00  0.00    -0.203 N
ATOM     12  H4  UNL     1     -14.327   4.991  -2.725  1.00  0.00     0.179 HD
BRANCH  11  13
HETATM   13  C4  UNL     1     -15.817   3.739  -1.867  1.00  0.00     0.284 C
HETATM   14  C5  UNL     1     -15.504   2.684  -2.869  1.00  0.00     0.257 C
HETATM   15  O2  UNL     1     -16.007   2.272  -3.925  1.00  0.00    -0.270 OA
HETATM   16  N5  UNL     1     -14.372   2.343  -2.098  1.00  0.00    -0.293 N
HETATM   17  C6  UNL     1     -15.080   2.825  -0.972  1.00  0.00     0.257 C
ATOM     18  H5  UNL     1     -13.455   1.934  -2.273  1.00  0.00     0.171 HD
HETATM   19  O3  UNL     1     -15.056   2.561   0.238  1.00  0.00    -0.270 OA
ENDBRANCH  11  13
ENDBRANCH   8  11
BRANCH   1  20
HETATM   20  N1  UNL     1     -16.471   6.845   1.863  1.00  0.00    -0.234 N
ATOM     21  H12 UNL     1     -17.128   7.509   2.270  1.00  0.00     0.174 HD
ATOM     22  H11 UNL     1     -16.089   6.070   2.406  1.00  0.00     0.174 HD
ENDBRANCH   1  20
TORSDOF 3
ENDMDL