MODEL 4
REMARK VINA RESULT: -6.423053139      2.500      5.320
REMARK  1 active torsions:
REMARK  status: ('A' for Active; 'I' for Inactive)
REMARK    1  A    between atoms: C1_2  and  C2_3
ROOT
HETATM    1  C2  UNL     1     -15.708   8.416  -1.101  1.00  0.00     0.120 A
HETATM    2  N2  UNL     1     -15.261   7.549  -2.023  1.00  0.00    -0.326 N
ATOM      3  H2  UNL     1     -14.725   7.805  -2.853  1.00  0.00     0.169 HD
HETATM    4  C3  UNL     1     -15.627   6.278  -1.692  1.00  0.00     0.139 A
HETATM    5  N3  UNL     1     -15.422   5.082  -2.285  1.00  0.00    -0.336 N
ATOM      6  H3  UNL     1     -14.897   5.058  -3.159  1.00  0.00     0.168 HD
HETATM    7  C4  UNL     1     -15.877   3.917  -1.783  1.00  0.00     0.102 A
HETATM    8  C5  UNL     1     -15.665   2.757  -2.378  1.00  0.00     0.133 C
HETATM    9  N4  UNL     1     -14.948   2.670  -3.582  1.00  0.00    -0.113 NA
HETATM   10  C6  UNL     1     -16.591   3.974  -0.591  1.00  0.00     0.251 A
HETATM   11  O1  UNL     1     -17.034   2.898  -0.089  1.00  0.00    -0.281 OA
HETATM   12  C7  UNL     1     -16.788   5.204  -0.005  1.00  0.00     0.254 A
HETATM   13  O2  UNL     1     -17.428   5.296   1.072  1.00  0.00    -0.281 OA
HETATM   14  C8  UNL     1     -16.302   6.371  -0.558  1.00  0.00     0.133 A
HETATM   15  N5  UNL     1     -16.358   7.663  -0.188  1.00  0.00    -0.335 N
ATOM     16  H5  UNL     1     -16.819   8.018   0.649  1.00  0.00     0.168 HD
ENDROOT
BRANCH   1  17
HETATM   17  C1  UNL     1     -15.559   9.735  -1.065  1.00  0.00     0.148 C
HETATM   18  N1  UNL     1     -16.291  10.480  -0.102  1.00  0.00    -0.111 NA
ENDBRANCH   1  17
TORSDOF 1
ENDMDL