MODEL 3
REMARK VINA RESULT: -7.020395303      2.440      4.408
REMARK  3 active torsions:
REMARK  status: ('A' for Active; 'I' for Inactive)
REMARK    1  A    between atoms: N1_1  and  C1_5
REMARK    2  A    between atoms: C1_5  and  C2_6
REMARK    3  A    between atoms: C2_6  and  N2_7
ROOT
HETATM    1  N2  UNL     1     -16.310   7.553  -1.078  1.00  0.00    -0.221 N
ATOM      2  H2  UNL     1     -16.993   8.156  -0.618  1.00  0.00     0.177 HD
HETATM    3  C3  UNL     1     -16.458   6.381  -0.725  1.00  0.00     0.716 A
HETATM    4  N3  UNL     1     -17.454   6.098   0.173  1.00  0.00    -0.128 N
ATOM      5  H3  UNL     1     -18.041   6.856   0.524  1.00  0.00     0.205 HD
HETATM    6  N4  UNL     1     -17.671   4.864   0.595  1.00  0.00    -0.250 N
ATOM      7  H4  UNL     1     -18.419   4.683   1.264  1.00  0.00     0.191 HD
HETATM    8  C4  UNL     1     -16.913   3.843   0.151  1.00  0.00     0.295 A
HETATM    9  O1  UNL     1     -17.106   2.673   0.541  1.00  0.00    -0.264 OA
HETATM   10  C5  UNL     1     -15.907   4.085  -0.748  1.00  0.00     0.214 A
HETATM   11  C6  UNL     1     -14.994   3.271  -1.364  1.00  0.00     0.296 A
HETATM   12  O2  UNL     1     -14.913   2.035  -1.193  1.00  0.00    -0.264 OA
HETATM   13  N5  UNL     1     -14.238   4.037  -2.150  1.00  0.00    -0.249 N
ATOM     14  H5  UNL     1     -13.467   3.729  -2.743  1.00  0.00     0.192 HD
HETATM   15  N6  UNL     1     -14.683   5.272  -2.013  1.00  0.00    -0.218 N
ATOM     16  H6  UNL     1     -14.290   6.076  -2.503  1.00  0.00     0.209 HD
HETATM   17  N7  UNL     1     -15.692   5.347  -1.173  1.00  0.00    -0.059 N
ENDROOT
BRANCH   1  18
HETATM   18  C2  UNL     1     -15.486   8.299  -1.920  1.00  0.00     0.165 C
BRANCH  18  19
HETATM   19  C1  UNL     1     -14.821   9.407  -1.085  1.00  0.00     0.249 C
BRANCH  19  20
HETATM   20  N1  UNL     1     -13.755   8.798  -0.320  1.00  0.00    -0.078 N
ATOM     21  H13 UNL     1     -14.075   8.020   0.258  1.00  0.00     0.274 HD
ATOM     22  H12 UNL     1     -13.100   8.273  -0.900  1.00  0.00     0.274 HD
ATOM     23  H11 UNL     1     -13.304   9.536   0.221  1.00  0.00     0.274 HD
ENDBRANCH  19  20
ENDBRANCH  18  19
ENDBRANCH   1  18
TORSDOF 3
ENDMDL