MODEL 1
REMARK VINA RESULT: -7.374066836      0.000      0.000
REMARK  4 active torsions:
REMARK  status: ('A' for Active; 'I' for Inactive)
REMARK    1  A    between atoms: N1_1  and  C1_5
REMARK    2  A    between atoms: C1_5  and  C2_6
REMARK    3  A    between atoms: C2_6  and  C3_7
REMARK    4  A    between atoms: C5_12  and  C6_13
ROOT
HETATM    1  C3  UNL     1     -15.804   3.133  -2.889  1.00  0.00     0.106 A
HETATM    2  N2  UNL     1     -15.855   2.359  -1.798  1.00  0.00    -0.308 N
ATOM      3  H2  UNL     1     -15.894   1.340  -1.785  1.00  0.00     0.170 HD
HETATM    4  C4  UNL     1     -15.844   3.165  -0.724  1.00  0.00     0.276 A
HETATM    5  O1  UNL     1     -15.881   2.801   0.486  1.00  0.00    -0.266 OA
HETATM    6  C5  UNL     1     -15.786   4.467  -1.155  1.00  0.00     0.135 A
HETATM    7  N5  UNL     1     -15.762   4.418  -2.494  1.00  0.00    -0.336 N
ATOM      8  H5  UNL     1     -15.720   5.227  -3.115  1.00  0.00     0.168 HD
ENDROOT
BRANCH   6   9
HETATM    9  C6  UNL     1     -15.759   5.568  -0.382  1.00  0.00     0.137 A
HETATM   10  N3  UNL     1     -15.812   5.673   1.025  1.00  0.00    -0.302 N
HETATM   11  C7  UNL     1     -15.756   7.030   1.437  1.00  0.00     0.327 A
ATOM     12  H3  UNL     1     -15.880   4.880   1.661  1.00  0.00     0.171 HD
HETATM   13  O2  UNL     1     -15.783   7.445   2.634  1.00  0.00    -0.247 OA
HETATM   14  N4  UNL     1     -15.666   7.824   0.278  1.00  0.00    -0.274 N
HETATM   15  C8  UNL     1     -15.665   6.953  -0.859  1.00  0.00     0.278 A
ATOM     16  H4  UNL     1     -15.610   8.842   0.253  1.00  0.00     0.173 HD
HETATM   17  O3  UNL     1     -15.595   7.363  -2.034  1.00  0.00    -0.265 OA
ENDBRANCH   6   9
BRANCH   1  18
HETATM   18  C2  UNL     1     -15.799   2.648  -4.120  1.00  0.00     0.048 C
BRANCH  18  19
HETATM   19  C1  UNL     1     -14.559   2.257  -4.820  1.00  0.00     0.260 C
BRANCH  19  20
HETATM   20  N1  UNL     1     -14.859   1.509  -6.050  1.00  0.00    -0.076 N
ATOM     21  H13 UNL     1     -14.826   2.110  -6.873  1.00  0.00     0.274 HD
ATOM     22  H12 UNL     1     -14.103   0.869  -6.294  1.00  0.00     0.274 HD
ATOM     23  H11 UNL     1     -15.753   1.023  -5.975  1.00  0.00     0.274 HD
ENDBRANCH  19  20
ENDBRANCH  18  19
ENDBRANCH   1  18
TORSDOF 4
ENDMDL