MODEL 3
REMARK VINA RESULT: -6.485873245      2.459      3.932
REMARK  0 active torsions:
REMARK  status: ('A' for Active; 'I' for Inactive)
ROOT
HETATM    1  N1  UNL     1     -14.416   2.397  -4.224  1.00  0.00    -0.371 N
ATOM      2  H11 UNL     1     -14.988   1.615  -4.542  1.00  0.00     0.159 HD
ATOM      3  H12 UNL     1     -13.457   2.350  -4.571  1.00  0.00     0.159 HD
HETATM    4  C1  UNL     1     -14.814   3.382  -3.453  1.00  0.00     0.183 C
HETATM    5  N2  UNL     1     -14.024   4.462  -3.016  1.00  0.00    -0.274 N
ATOM      6  H2  UNL     1     -13.145   4.787  -3.418  1.00  0.00     0.179 HD
HETATM    7  S1  UNL     1     -14.856   5.118  -1.659  1.00  0.00     0.178 S
HETATM    8  O1  UNL     1     -15.623   6.575  -2.081  1.00  0.00    -0.230 OA
HETATM    9  C2  UNL     1     -16.185   3.896  -1.618  1.00  0.00     0.293 C
HETATM   10  N3  UNL     1     -16.145   3.448  -2.972  1.00  0.00    -0.315 N
ATOM     11  H3  UNL     1     -16.969   3.206  -3.522  1.00  0.00     0.166 HD
HETATM   12  N4  UNL     1     -17.424   4.493  -1.220  1.00  0.00    -0.296 N
ATOM     13  H4  UNL     1     -18.120   4.938  -1.819  1.00  0.00     0.168 HD
HETATM   14  C3  UNL     1     -17.472   4.327   0.212  1.00  0.00     0.326 C
HETATM   15  O2  UNL     1     -18.196   4.954   1.032  1.00  0.00    -0.247 OA
HETATM   16  N5  UNL     1     -16.545   3.310   0.588  1.00  0.00    -0.275 N
ATOM     17  H5  UNL     1     -16.357   2.973   1.532  1.00  0.00     0.173 HD
HETATM   18  C4  UNL     1     -15.936   2.861  -0.617  1.00  0.00     0.290 C
HETATM   19  O3  UNL     1     -15.307   1.755  -0.738  1.00  0.00    -0.267 OA
ENDROOT
TORSDOF 0
ENDMDL