MODEL 1
REMARK VINA RESULT: -6.819539447      0.000      0.000
REMARK  2 active torsions:
REMARK  status: ('A' for Active; 'I' for Inactive)
REMARK    1  A    between atoms: C2_10  and  N3_11
REMARK    2  A    between atoms: N3_11  and  C3_13
ROOT
HETATM    1  N1  UNL     1     -14.272   2.471   0.814  1.00  0.00    -0.370 N
ATOM      2  H11 UNL     1     -13.293   2.401   0.539  1.00  0.00     0.159 HD
ATOM      3  H12 UNL     1     -14.593   1.780   1.492  1.00  0.00     0.159 HD
HETATM    4  C1  UNL     1     -15.031   3.417   0.295  1.00  0.00     0.189 A
HETATM    5  N2  UNL     1     -16.395   3.514   0.678  1.00  0.00    -0.249 N
ATOM      6  H2  UNL     1     -16.909   2.927   1.335  1.00  0.00     0.182 HD
HETATM    7  S1  UNL     1     -16.977   4.864  -0.235  1.00  0.00     0.298 S
HETATM    8  O1  UNL     1     -18.010   4.348  -1.179  1.00  0.00    -0.197 OA
HETATM    9  O2  UNL     1     -17.449   5.977   0.623  1.00  0.00    -0.197 OA
HETATM   10  C2  UNL     1     -15.459   5.204  -1.030  1.00  0.00     0.241 A
HETATM   11  N6  UNL     1     -14.594   4.359  -0.629  1.00  0.00    -0.302 N
ATOM     12  H6  UNL     1     -13.632   4.373  -0.967  1.00  0.00     0.171 HD
ENDROOT
BRANCH  10  13
HETATM   13  N3  UNL     1     -15.260   6.245  -1.953  1.00  0.00    -0.164 N
ATOM     14  H3  UNL     1     -15.062   6.049  -2.934  1.00  0.00     0.186 HD
BRANCH  13  15
HETATM   15  C3  UNL     1     -15.337   7.477  -1.509  1.00  0.00     0.684 A
HETATM   16  N4  UNL     1     -14.913   7.905  -0.308  1.00  0.00    -0.200 N
HETATM   17  C4  UNL     1     -15.147   9.221  -0.185  1.00  0.00     0.123 A
ATOM     18  H4  UNL     1     -14.477   7.317   0.403  1.00  0.00     0.183 HD
HETATM   19  C5  UNL     1     -15.738   9.587  -1.372  1.00  0.00     0.123 A
HETATM   20  N5  UNL     1     -15.850   8.521  -2.172  1.00  0.00    -0.200 N
ATOM     21  H5  UNL     1     -16.251   8.507  -3.109  1.00  0.00     0.183 HD
ENDBRANCH  13  15
ENDBRANCH  10  13
TORSDOF 2
ENDMDL