MODEL 2
REMARK VINA RESULT: -7.527285925      2.720      3.752
REMARK  1 active torsions:
REMARK  status: ('A' for Active; 'I' for Inactive)
REMARK    1  A    between atoms: N2_4  and  N3_6
ROOT
HETATM    1  N3  UNL     1     -15.433   7.595   2.384  1.00  0.00    -0.257 N
ATOM      2  H3  UNL     1     -15.212   8.591   2.387  1.00  0.00     0.191 HD
HETATM    3  C1  UNL     1     -15.644   7.013   1.257  1.00  0.00     0.201 C
HETATM    4  N4  UNL     1     -15.605   7.605  -0.032  1.00  0.00    -0.293 N
ATOM      5  H4  UNL     1     -15.402   8.586  -0.224  1.00  0.00     0.172 HD
HETATM    6  C2  UNL     1     -15.895   6.619  -1.017  1.00  0.00     0.284 C
HETATM    7  O1  UNL     1     -16.147   6.839  -2.223  1.00  0.00    -0.268 OA
HETATM    8  C3  UNL     1     -15.841   5.317  -0.354  1.00  0.00     0.276 C
HETATM    9  N5  UNL     1     -14.561   4.701  -0.651  1.00  0.00    -0.300 N
ATOM     10  H5  UNL     1     -13.666   5.183  -0.728  1.00  0.00     0.167 HD
HETATM   11  C4  UNL     1     -14.775   3.324  -0.813  1.00  0.00     0.325 C
HETATM   12  O2  UNL     1     -13.837   2.456  -0.850  1.00  0.00    -0.247 OA
HETATM   13  N6  UNL     1     -16.166   3.091  -0.922  1.00  0.00    -0.275 N
ATOM     14  H6  UNL     1     -16.619   2.185  -1.046  1.00  0.00     0.173 HD
HETATM   15  C5  UNL     1     -16.817   4.346  -0.826  1.00  0.00     0.285 C
HETATM   16  O3  UNL     1     -18.018   4.526  -1.109  1.00  0.00    -0.268 OA
HETATM   17  N7  UNL     1     -15.961   5.648   1.050  1.00  0.00    -0.318 N
ATOM     18  H7  UNL     1     -16.234   4.993   1.784  1.00  0.00     0.166 HD
ENDROOT
BRANCH   1  19
HETATM   19  N2  UNL     1     -15.495   6.916   3.605  1.00  0.00    -0.247 N
HETATM   20  N1  UNL     1     -14.692   7.317   4.509  1.00  0.00    -0.331 N
ATOM     21  H12 UNL     1     -14.049   8.089   4.337  1.00  0.00     0.178 HD
ATOM     22  H11 UNL     1     -14.737   6.822   5.401  1.00  0.00     0.178 HD
ATOM     23  H2  UNL     1     -16.144   6.146   3.763  1.00  0.00     0.207 HD
ENDBRANCH   1  19
TORSDOF 1
ENDMDL