MODEL 4
REMARK VINA RESULT: -6.770523847      1.898      5.248
REMARK  3 active torsions:
REMARK  status: ('A' for Active; 'I' for Inactive)
REMARK       I    between atoms: C2_5  and  N4_7
REMARK    1  A    between atoms: N4_7  and  C3_9
REMARK    2  A    between atoms: C4_12  and  N6_13
REMARK    3  A    between atoms: N6_13  and  N7_15
ROOT
HETATM    1  N1  UNL     1     -16.095   2.945  -3.688  1.00  0.00    -0.172 NA
HETATM    2  C1  UNL     1     -15.309   2.821  -2.845  1.00  0.00     0.184 C
HETATM    3  N2  UNL     1     -14.355   2.663  -1.847  1.00  0.00    -0.267 N
ATOM      4  H2  UNL     1     -13.409   2.411  -2.131  1.00  0.00     0.180 HD
HETATM    5  C2  UNL     1     -14.583   2.814  -0.594  1.00  0.00     0.203 C
HETATM    6  N3  UNL     1     -13.516   2.620   0.316  1.00  0.00    -0.062 NA
HETATM    7  N4  UNL     1     -15.859   3.160  -0.110  1.00  0.00    -0.311 N
ATOM      8  H4  UNL     1     -16.504   2.388   0.056  1.00  0.00     0.170 HD
ENDROOT
BRANCH   7   9
HETATM    9  C3  UNL     1     -16.297   4.322   0.143  1.00  0.00     0.193 A
HETATM   10  N5  UNL     1     -15.646   5.078   1.041  1.00  0.00    -0.168 N
HETATM   11  C4  UNL     1     -16.059   6.328   1.359  1.00  0.00     0.712 A
ATOM     12  H5  UNL     1     -14.816   4.701   1.497  1.00  0.00     0.186 HD
HETATM   13  N8  UNL     1     -17.155   6.820   0.755  1.00  0.00    -0.128 N
HETATM   14  N9  UNL     1     -17.810   6.078  -0.139  1.00  0.00    -0.249 N
ATOM     15  H8  UNL     1     -17.484   7.760   0.979  1.00  0.00     0.205 HD
HETATM   16  C5  UNL     1     -17.422   4.834  -0.473  1.00  0.00     0.305 A
ATOM     17  H9  UNL     1     -18.639   6.469  -0.587  1.00  0.00     0.191 HD
HETATM   18  O1  UNL     1     -18.081   4.184  -1.322  1.00  0.00    -0.263 OA
BRANCH  11  19
HETATM   19  N6  UNL     1     -15.368   6.972   2.230  1.00  0.00    -0.137 N
ATOM     20  H6  UNL     1     -14.479   7.374   1.933  1.00  0.00     0.205 HD
BRANCH  19  21
HETATM   21  N7  UNL     1     -15.760   7.156   3.549  1.00  0.00    -0.331 N
ATOM     22  H72 UNL     1     -16.553   6.605   3.877  1.00  0.00     0.177 HD
ATOM     23  H71 UNL     1     -15.303   7.801   4.195  1.00  0.00     0.177 HD
ENDBRANCH  19  21
ENDBRANCH  11  19
ENDBRANCH   7   9
TORSDOF 3
ENDMDL