MODEL 3
REMARK VINA RESULT: -7.256444093      1.580      2.417
REMARK  12 active torsions:
REMARK  status: ('A' for Active; 'I' for Inactive)
REMARK    1  A    between atoms: N1_1  and  C1_4
REMARK    2  A    between atoms: C2_7  and  N3_8
REMARK    3  A    between atoms: N4_11  and  C3_12
REMARK    4  A    between atoms: C4_14  and  C5_15
REMARK    5  A    between atoms: C5_15  and  S1_16
REMARK    6  A    between atoms: S1_16  and  C6_17
REMARK    7  A    between atoms: C6_17  and  C7_18
REMARK    8  A    between atoms: C7_18  and  C8_19
REMARK    9  A    between atoms: C8_19  and  C9_20
REMARK   10  A    between atoms: C9_20  and  O2_21
REMARK   11  A    between atoms: C10_23  and  O3_24
REMARK   12  A    between atoms: C11_26  and  O4_27
ROOT
HETATM    1  C3  UNL     1       6.285  16.236  32.778  1.00  0.00     0.294 C
HETATM    2  O1  UNL     1       7.061  15.386  33.598  1.00  0.00    -0.353 OA
HETATM    3  C4  UNL     1       6.421  15.578  34.839  1.00  0.00     0.165 C
HETATM    4  C10 UNL     1       4.952  15.549  34.578  1.00  0.00     0.181 C
HETATM    5  C11 UNL     1       4.901  15.690  33.051  1.00  0.00     0.200 C
ENDROOT
BRANCH   1   6
HETATM    6  N4  UNL     1       6.713  16.054  31.420  1.00  0.00    -0.077 N
HETATM    7  C2  UNL     1       6.337  16.874  30.415  1.00  0.00     0.710 A
HETATM    8  N2  UNL     1       6.903  16.439  29.267  1.00  0.00    -0.020 N
HETATM    9  C1  UNL     1       7.633  15.347  29.560  1.00  0.00     0.705 A
ATOM     10  H2  UNL     1       6.797  16.862  28.346  1.00  0.00     0.203 HD
HETATM   11  N5  UNL     1       7.492  15.143  30.880  1.00  0.00    -0.113 N
ATOM     12  H5  UNL     1       7.933  14.381  31.396  1.00  0.00     0.206 HD
BRANCH   7  13
HETATM   13  N3  UNL     1       5.554  17.920  30.517  1.00  0.00    -0.233 N
ATOM     14  H32 UNL     1       4.730  18.118  29.948  1.00  0.00     0.174 HD
ATOM     15  H31 UNL     1       5.674  18.678  31.189  1.00  0.00     0.174 HD
ENDBRANCH   7  13
BRANCH   9  16
HETATM   16  N1  UNL     1       8.330  14.643  28.717  1.00  0.00    -0.233 N
ATOM     17  H12 UNL     1       9.324  14.732  28.503  1.00  0.00     0.174 HD
ATOM     18  H11 UNL     1       7.979  13.884  28.133  1.00  0.00     0.174 HD
ENDBRANCH   9  16
ENDBRANCH   1   6
BRANCH   5  19
HETATM   19  O4  UNL     1       3.889  16.530  32.662  1.00  0.00    -0.388 OA
ATOM     20  H4  UNL     1       3.634  16.427  31.753  1.00  0.00     0.210 HD
ENDBRANCH   5  19
BRANCH   3  21
HETATM   21  C5  UNL     1       6.894  14.580  35.846  1.00  0.00     0.108 C
BRANCH  21  22
HETATM   22  S1  UNL     1       7.075  15.416  37.442  1.00  0.00    -0.166 SA
BRANCH  22  23
HETATM   23  C6  UNL     1       6.584  17.176  37.257  1.00  0.00     0.074 C
BRANCH  23  24
HETATM   24  C7  UNL     1       5.212  17.309  37.848  1.00  0.00     0.012 C
BRANCH  24  25
HETATM   25  C8  UNL     1       4.294  18.185  37.082  1.00  0.00     0.027 C
BRANCH  25  26
HETATM   26  C9  UNL     1       4.924  19.007  36.019  1.00  0.00     0.164 C
BRANCH  26  27
HETATM   27  O2  UNL     1       4.447  18.784  34.755  1.00  0.00    -0.401 OA
ATOM     28  H2  UNL     1       3.991  19.518  34.363  1.00  0.00     0.209 HD
ENDBRANCH  26  27
ENDBRANCH  25  26
ENDBRANCH  24  25
ENDBRANCH  23  24
ENDBRANCH  22  23
ENDBRANCH  21  22
ENDBRANCH   3  21
BRANCH   4  29
HETATM   29  O3  UNL     1       4.315  14.409  35.008  1.00  0.00    -0.390 OA
ATOM     30  H3  UNL     1       3.460  14.263  34.622  1.00  0.00     0.210 HD
ENDBRANCH   4  29
TORSDOF 12
ENDMDL