MODEL 5
REMARK VINA RESULT: -6.107379225      3.247      6.903
REMARK  14 active torsions:
REMARK  status: ('A' for Active; 'I' for Inactive)
REMARK    1  A    between atoms: N1_1  and  C1_5
REMARK    2  A    between atoms: C2_6  and  O1_7
REMARK    3  A    between atoms: C3_9  and  O2_10
REMARK    4  A    between atoms: C4_12  and  O3_13
REMARK    5  A    between atoms: C5_15  and  N2_16
REMARK    6  A    between atoms: C6_20  and  S1_21
REMARK    7  A    between atoms: S1_21  and  S2_22
REMARK    8  A    between atoms: S2_22  and  C7_23
REMARK    9  A    between atoms: C7_23  and  C8_24
REMARK   10  A    between atoms: C8_24  and  C9_25
REMARK   11  A    between atoms: C9_25  and  S3_26
REMARK   12  A    between atoms: S3_26  and  C10_27
REMARK   13  A    between atoms: C10_27  and  C11_28
REMARK   14  A    between atoms: C11_28  and  O4_29
ROOT
HETATM    1  C1  UNL     1       4.862  16.926  35.262  1.00  0.00     0.231 C
HETATM    2  C2  UNL     1       4.758  17.198  36.732  1.00  0.00     0.181 C
HETATM    3  C3  UNL     1       5.666  16.361  37.580  1.00  0.00     0.179 C
HETATM    4  C4  UNL     1       7.092  16.331  37.083  1.00  0.00     0.181 C
HETATM    5  C5  UNL     1       7.042  15.756  35.674  1.00  0.00     0.231 C
HETATM    6  C6  UNL     1       6.297  16.773  34.841  1.00  0.00     0.124 C
ENDROOT
BRANCH   6   7
HETATM    7  S1  UNL     1       6.450  16.294  33.112  1.00  0.00    -0.088 SA
BRANCH   7   8
HETATM    8  S2  UNL     1       8.454  16.035  32.503  1.00  0.00    -0.097 SA
BRANCH   8   9
HETATM    9  C7  UNL     1       8.712  14.536  31.540  1.00  0.00     0.087 C
BRANCH   9  10
HETATM   10  C8  UNL     1       8.879  14.800  30.064  1.00  0.00     0.021 C
BRANCH  10  11
HETATM   11  C9  UNL     1       7.728  14.086  29.368  1.00  0.00     0.075 C
BRANCH  11  12
HETATM   12  S3  UNL     1       6.191  15.027  29.462  1.00  0.00    -0.167 SA
BRANCH  12  13
HETATM   13  C10 UNL     1       6.439  16.792  29.194  1.00  0.00     0.099 C
BRANCH  13  14
HETATM   14  C11 UNL     1       5.133  17.537  29.001  1.00  0.00     0.174 C
BRANCH  14  15
HETATM   15  O4  UNL     1       4.464  16.929  27.932  1.00  0.00    -0.400 OA
ATOM     16  H4  UNL     1       3.660  16.557  28.277  1.00  0.00     0.209 HD
ENDBRANCH  14  15
ENDBRANCH  13  14
ENDBRANCH  12  13
ENDBRANCH  11  12
ENDBRANCH  10  11
ENDBRANCH   9  10
ENDBRANCH   8   9
ENDBRANCH   7   8
ENDBRANCH   6   7
BRANCH   1  17
HETATM   17  N1  UNL     1       4.030  15.815  34.837  1.00  0.00    -0.071 N
ATOM     18  H13 UNL     1       4.378  14.933  35.212  1.00  0.00     0.274 HD
ATOM     19  H12 UNL     1       3.120  15.843  35.297  1.00  0.00     0.274 HD
ATOM     20  H11 UNL     1       3.926  15.765  33.824  1.00  0.00     0.274 HD
ENDBRANCH   1  17
BRANCH   5  21
HETATM   21  N2  UNL     1       6.267  14.542  35.749  1.00  0.00    -0.071 N
ATOM     22  H23 UNL     1       6.205  14.162  36.694  1.00  0.00     0.274 HD
ATOM     23  H22 UNL     1       5.268  14.692  35.606  1.00  0.00     0.274 HD
ATOM     24  H21 UNL     1       6.675  13.890  35.079  1.00  0.00     0.274 HD
ENDBRANCH   5  21
BRANCH   2  25
HETATM   25  O1  UNL     1       3.445  16.958  37.168  1.00  0.00    -0.391 OA
ATOM     26  H1  UNL     1       2.969  17.779  37.222  1.00  0.00     0.210 HD
ENDBRANCH   2  25
BRANCH   4  27
HETATM   27  O3  UNL     1       7.703  17.569  37.127  1.00  0.00    -0.391 OA
ATOM     28  H3  UNL     1       7.425  18.093  37.869  1.00  0.00     0.210 HD
ENDBRANCH   4  27
BRANCH   3  29
HETATM   29  O2  UNL     1       5.701  16.916  38.865  1.00  0.00    -0.390 OA
ATOM     30  H2  UNL     1       5.962  17.826  38.789  1.00  0.00     0.210 HD
ENDBRANCH   3  29
TORSDOF 14
ENDMDL