MODEL 4
REMARK VINA RESULT: -8.205844370      1.210      1.829
REMARK  11 active torsions:
REMARK  status: ('A' for Active; 'I' for Inactive)
REMARK    1  A    between atoms: N1_2  and  O3_4
REMARK    2  A    between atoms: O3_4  and  C1_5
REMARK    3  A    between atoms: C1_5  and  C2_6
REMARK    4  A    between atoms: C2_6  and  O4_7
REMARK    5  A    between atoms: O4_7  and  C3_8
REMARK    6  A    between atoms: C4_12  and  C5_13
REMARK    7  A    between atoms: C5_13  and  N3_14
REMARK    8  A    between atoms: N3_14  and  C6_16
REMARK    9  A    between atoms: C12_22  and  O5_23
REMARK   10  A    between atoms: C13_25  and  O6_26
REMARK   11  A    between atoms: C14_28  and  O7_29
ROOT
HETATM    1  C3  UNL     1       6.494  15.454  30.473  1.00  0.00     0.353 C
HETATM    2  N2  UNL     1       5.521  16.045  31.376  1.00  0.00    -0.038 N
ATOM      3  H21 UNL     1       4.556  15.831  31.122  1.00  0.00     0.281 HD
ATOM      4  H22 UNL     1       5.455  17.059  31.288  1.00  0.00     0.281 HD
HETATM    5  C4  UNL     1       5.868  15.610  32.711  1.00  0.00     0.237 C
HETATM    6  C12 UNL     1       7.257  15.966  33.120  1.00  0.00     0.181 C
HETATM    7  C13 UNL     1       8.294  15.753  32.071  1.00  0.00     0.182 C
HETATM    8  C14 UNL     1       7.792  16.240  30.721  1.00  0.00     0.205 C
ENDROOT
BRANCH   5   9
HETATM    9  C5  UNL     1       4.879  16.134  33.696  1.00  0.00     0.155 C
BRANCH   9  10
HETATM   10  N3  UNL     1       5.413  17.244  34.444  1.00  0.00    -0.388 N
ATOM     11  H3  UNL     1       5.975  17.939  33.952  1.00  0.00     0.159 HD
BRANCH  10  12
HETATM   12  C6  UNL     1       5.190  17.414  35.840  1.00  0.00     0.028 A
HETATM   13  C7  UNL     1       5.881  16.661  36.763  1.00  0.00     0.029 A
HETATM   14  C8  UNL     1       5.642  16.847  38.119  1.00  0.00     0.002 A
HETATM   15  C9  UNL     1       4.735  17.764  38.599  1.00  0.00     0.000 A
HETATM   16  C10 UNL     1       4.044  18.519  37.661  1.00  0.00     0.002 A
HETATM   17  C11 UNL     1       4.280  18.334  36.316  1.00  0.00     0.029 A
ENDBRANCH  10  12
ENDBRANCH   9  10
ENDBRANCH   5   9
BRANCH   6  18
HETATM   18  O5  UNL     1       7.593  15.131  34.210  1.00  0.00    -0.391 OA
ATOM     19  H5  UNL     1       7.525  14.234  33.904  1.00  0.00     0.210 HD
ENDBRANCH   6  18
BRANCH   1  20
HETATM   20  O4  UNL     1       6.120  15.475  29.169  1.00  0.00    -0.355 OA
BRANCH  20  21
HETATM   21  C2  UNL     1       4.965  16.219  29.006  1.00  0.00     0.199 C
BRANCH  21  22
HETATM   22  C1  UNL     1       5.194  17.639  28.556  1.00  0.00     0.234 C
BRANCH  22  23
HETATM   23  O3  UNL     1       4.238  17.890  27.531  1.00  0.00    -0.219 OA
BRANCH  23  24
HETATM   24  N1  UNL     1       3.869  19.160  27.159  1.00  0.00     0.004 N
HETATM   25  O1  UNL     1       4.705  19.895  26.605  1.00  0.00    -0.511 OA
HETATM   26  O2  UNL     1       2.576  19.540  27.429  1.00  0.00    -0.511 OA
ENDBRANCH  23  24
ENDBRANCH  22  23
ENDBRANCH  21  22
ENDBRANCH  20  21
ENDBRANCH   1  20
BRANCH   7  27
HETATM   27  O6  UNL     1       9.476  16.379  32.439  1.00  0.00    -0.390 OA
ATOM     28  H6  UNL     1       9.309  17.292  32.646  1.00  0.00     0.210 HD
ENDBRANCH   7  27
BRANCH   8  29
HETATM   29  O7  UNL     1       8.693  16.034  29.712  1.00  0.00    -0.388 OA
ATOM     30  H7  UNL     1       9.584  16.072  30.038  1.00  0.00     0.210 HD
ENDBRANCH   8  29
TORSDOF 11
ENDMDL