MODEL 1
REMARK VINA RESULT: -7.965316400      0.000      0.000
REMARK  10 active torsions:
REMARK  status: ('A' for Active; 'I' for Inactive)
REMARK    1  A    between atoms: C1_4  and  C2_6
REMARK    2  A    between atoms: C3_10  and  C4_11
REMARK    3  A    between atoms: N5_14  and  C5_15
REMARK    4  A    between atoms: C5_15  and  C6_16
REMARK    5  A    between atoms: C6_16  and  C7_17
REMARK    6  A    between atoms: C8_21  and  N7_22
REMARK    7  A    between atoms: N7_22  and  C9_24
REMARK    8  A    between atoms: C9_24  and  C10_25
REMARK    9  A    between atoms: C10_25  and  C11_26
REMARK   10  A    between atoms: C11_26  and  N8_27
ROOT
HETATM    1  C4  UNL     1       5.783  16.535  31.132  1.00  0.00     0.125 A
HETATM    2  N4  UNL     1       6.425  15.336  30.935  1.00  0.00    -0.278 N
ATOM      3  H4  UNL     1       6.661  14.684  31.684  1.00  0.00     0.189 HD
HETATM    4  N5  UNL     1       6.699  15.131  29.672  1.00  0.00    -0.232 N
HETATM    5  N6  UNL     1       6.261  16.156  29.010  1.00  0.00    -0.267 N
ATOM      6  H6  UNL     1       6.334  16.276  28.000  1.00  0.00     0.190 HD
HETATM    7  C8  UNL     1       5.691  17.046  29.861  1.00  0.00     0.148 A
ENDROOT
BRANCH   1   8
HETATM    8  C3  UNL     1       5.351  17.043  32.417  1.00  0.00     0.114 A
HETATM    9  N3  UNL     1       4.552  18.145  32.537  1.00  0.00    -0.256 N
HETATM   10  O1  UNL     1       4.307  18.399  33.765  1.00  0.00    -0.232 OA
ATOM     11  H3  UNL     1       4.197  18.691  31.751  1.00  0.00     0.195 HD
HETATM   12  C2  UNL     1       4.881  17.547  34.566  1.00  0.00     0.166 A
HETATM   13  C12 UNL     1       5.561  16.662  33.697  1.00  0.00     0.116 A
HETATM   14  N9  UNL     1       6.321  15.576  34.163  1.00  0.00    -0.097 NA
BRANCH  12  15
HETATM   15  C1  UNL     1       4.870  17.462  36.009  1.00  0.00     0.148 C
HETATM   16  N1  UNL     1       5.883  17.865  36.673  1.00  0.00    -0.385 N
ATOM     17  H12 UNL     1       5.876  17.805  37.691  1.00  0.00     0.157 HD
ATOM     18  H11 UNL     1       6.693  18.244  36.181  1.00  0.00     0.157 HD
HETATM   19  N2  UNL     1       3.751  16.938  36.689  1.00  0.00    -0.080 NA
ENDBRANCH  12  15
ENDBRANCH   1   8
BRANCH   7  20
HETATM   20  N7  UNL     1       5.184  18.139  29.474  1.00  0.00    -0.373 N
ATOM     21  H7  UNL     1       5.296  18.969  30.056  1.00  0.00     0.161 HD
BRANCH  20  22
HETATM   22  C9  UNL     1       4.462  18.245  28.248  1.00  0.00     0.123 C
BRANCH  22  23
HETATM   23  C10 UNL     1       4.641  19.584  27.567  1.00  0.00     0.047 C
BRANCH  23  24
HETATM   24  C11 UNL     1       3.414  19.889  26.710  1.00  0.00     0.231 C
BRANCH  24  25
HETATM   25  N8  UNL     1       2.223  19.376  27.328  1.00  0.00    -0.079 N
ATOM     26  H83 UNL     1       2.434  18.848  28.174  1.00  0.00     0.274 HD
ATOM     27  H82 UNL     1       1.664  20.119  27.746  1.00  0.00     0.274 HD
ATOM     28  H81 UNL     1       1.681  18.824  26.662  1.00  0.00     0.274 HD
ENDBRANCH  24  25
ENDBRANCH  23  24
ENDBRANCH  22  23
ENDBRANCH  20  22
ENDBRANCH   7  20
BRANCH   4  29
HETATM   29  C5  UNL     1       7.382  13.927  29.171  1.00  0.00     0.170 C
BRANCH  29  30
HETATM   30  C6  UNL     1       8.773  13.854  29.692  1.00  0.00     0.034 C
BRANCH  30  31
HETATM   31  C7  UNL     1       9.691  14.927  29.197  1.00  0.00     0.088 C
HETATM   32  S1  UNL     1       9.895  14.918  27.412  1.00  0.00    -0.098 SA
ENDBRANCH  30  31
ENDBRANCH  29  30
ENDBRANCH   4  29
TORSDOF 10
ENDMDL