MODEL 3
REMARK VINA RESULT: -7.430626674      1.875      3.098
REMARK  10 active torsions:
REMARK  status: ('A' for Active; 'I' for Inactive)
REMARK    1  A    between atoms: N1_2  and  C2_4
REMARK    2  A    between atoms: C4_6  and  C5_7
REMARK    3  A    between atoms: C5_7  and  C6_8
REMARK       I    between atoms: C6_8  and  N2_10
REMARK    4  A    between atoms: N2_10  and  C7_11
REMARK    5  A    between atoms: C7_11  and  C8_12
REMARK    6  A    between atoms: C8_12  and  N3_13
REMARK    7  A    between atoms: C8_12  and  N4_17
REMARK    8  A    between atoms: N4_17  and  O2_19
REMARK    9  A    between atoms: O2_19  and  C9_20
REMARK   10  A    between atoms: C10_24  and  S2_25
ROOT
HETATM    1  C6  UNL     1       4.228  15.571  34.704  1.00  0.00     0.287 C
HETATM    2  O1  UNL     1       4.488  14.339  34.838  1.00  0.00    -0.258 OA
HETATM    3  N2  UNL     1       3.998  16.474  35.703  1.00  0.00    -0.411 NA
ENDROOT
BRANCH   1   4
HETATM    4  C5  UNL     1       4.186  16.008  33.241  1.00  0.00     0.134 C
BRANCH   4   5
HETATM    5  C4  UNL     1       5.476  16.694  32.911  1.00  0.00     0.064 C
HETATM    6  C3  UNL     1       5.372  17.551  31.694  1.00  0.00     0.070 C
HETATM    7  C2  UNL     1       6.563  17.517  30.834  1.00  0.00     0.006 C
HETATM    8  C10 UNL     1       7.653  16.669  31.281  1.00  0.00     0.153 C
HETATM    9  S1  UNL     1       6.783  15.538  32.481  1.00  0.00    -0.142 SA
BRANCH   7  10
HETATM   10  N1  UNL     1       6.261  17.529  29.461  1.00  0.00    -0.399 N
HETATM   11  C1  UNL     1       5.087  16.938  28.964  1.00  0.00     0.145 C
ATOM     12  H1  UNL     1       6.908  17.977  28.813  1.00  0.00     0.158 HD
ENDBRANCH   7  10
BRANCH   8  13
HETATM   13  S2  UNL     1       8.631  15.738  30.158  1.00  0.00    -0.152 SA
HETATM   14  C11 UNL     1       7.897  14.262  29.460  1.00  0.00     0.091 C
ENDBRANCH   8  13
ENDBRANCH   4   5
ENDBRANCH   1   4
BRANCH   3  15
HETATM   15  C7  UNL     1       3.769  17.370  36.695  1.00  0.00     0.277 C
BRANCH  15  16
HETATM   16  C8  UNL     1       5.080  17.820  37.389  1.00  0.00     0.333 C
BRANCH  16  17
HETATM   17  N3  UNL     1       6.025  18.294  36.404  1.00  0.00    -0.054 N
ATOM     18  H33 UNL     1       6.379  17.536  35.820  1.00  0.00     0.277 HD
ATOM     19  H32 UNL     1       5.572  18.846  35.676  1.00  0.00     0.277 HD
ATOM     20  H31 UNL     1       6.778  18.808  36.860  1.00  0.00     0.277 HD
ENDBRANCH  16  17
BRANCH  16  21
HETATM   21  N4  UNL     1       5.502  16.748  38.179  1.00  0.00    -0.259 N
ATOM     22  H4  UNL     1       4.888  16.355  38.894  1.00  0.00     0.190 HD
BRANCH  21  23
HETATM   23  O2  UNL     1       6.694  16.263  37.985  1.00  0.00    -0.186 OA
BRANCH  23  24
HETATM   24  C9  UNL     1       7.090  15.309  37.095  1.00  0.00     0.394 C
HETATM   25  N5  UNL     1       6.881  13.947  37.430  1.00  0.00    -0.031 NA
HETATM   26  O3  UNL     1       7.634  15.576  35.998  1.00  0.00    -0.240 OA
ENDBRANCH  23  24
ENDBRANCH  21  23
ENDBRANCH  16  21
ENDBRANCH  15  16
ENDBRANCH   3  15
TORSDOF 10
ENDMDL