MODEL 4
REMARK VINA RESULT: -8.374580866      3.524      7.682
REMARK  9 active torsions:
REMARK  status: ('A' for Active; 'I' for Inactive)
REMARK    1  A    between atoms: N1_1  and  C1_4
REMARK    2  A    between atoms: C4_12  and  N4_13
REMARK    3  A    between atoms: N4_13  and  C5_15
REMARK    4  A    between atoms: C5_15  and  C6_16
REMARK    5  A    between atoms: C6_16  and  S1_17
REMARK    6  A    between atoms: S1_17  and  C7_18
REMARK    7  A    between atoms: C7_18  and  C8_19
REMARK    8  A    between atoms: C8_19  and  C9_20
REMARK    9  A    between atoms: N9_28  and  O2_29
ROOT
HETATM    1  C1  UNL     1       4.265  18.291  36.923  1.00  0.00     0.680 A
HETATM    2  N2  UNL     1       5.003  17.404  37.622  1.00  0.00    -0.154 N
ATOM      3  H2  UNL     1       4.976  17.391  38.641  1.00  0.00     0.187 HD
HETATM    4  C2  UNL     1       5.774  16.538  36.943  1.00  0.00     0.290 A
HETATM    5  O1  UNL     1       6.459  15.714  37.601  1.00  0.00    -0.265 OA
HETATM    6  C3  UNL     1       5.835  16.527  35.570  1.00  0.00     0.165 A
HETATM    7  N3  UNL     1       6.493  15.803  34.633  1.00  0.00    -0.180 N
ATOM      8  H3  UNL     1       7.140  15.043  34.844  1.00  0.00     0.184 HD
HETATM    9  C4  UNL     1       6.186  16.210  33.398  1.00  0.00     0.707 A
HETATM   10  N9  UNL     1       5.301  17.232  33.561  1.00  0.00    -0.032 N
HETATM   11  C10 UNL     1       5.079  17.435  34.870  1.00  0.00     0.199 A
HETATM   12  N10 UNL     1       4.319  18.286  35.584  1.00  0.00    -0.171 N
ATOM     13  H10 UNL     1       3.752  18.967  35.078  1.00  0.00     0.186 HD
ENDROOT
BRANCH   9  14
HETATM   14  N4  UNL     1       6.634  15.723  32.142  1.00  0.00    -0.223 N
ATOM     15  H4  UNL     1       5.948  15.634  31.392  1.00  0.00     0.177 HD
BRANCH  14  16
HETATM   16  C5  UNL     1       7.985  15.350  31.860  1.00  0.00     0.148 C
BRANCH  16  17
HETATM   17  C6  UNL     1       8.244  15.020  30.417  1.00  0.00     0.094 C
BRANCH  17  18
HETATM   18  S1  UNL     1       6.727  15.156  29.447  1.00  0.00    -0.167 SA
BRANCH  18  19
HETATM   19  C7  UNL     1       6.483  16.913  28.996  1.00  0.00     0.081 C
BRANCH  19  20
HETATM   20  C8  UNL     1       4.983  17.160  28.969  1.00  0.00     0.089 C
BRANCH  20  21
HETATM   21  C9  UNL     1       4.747  18.320  28.088  1.00  0.00     0.110 A
HETATM   22  N5  UNL     1       5.665  19.123  27.547  1.00  0.00    -0.271 N
HETATM   23  N6  UNL     1       4.989  20.022  26.833  1.00  0.00    -0.005 NA
ATOM     24  H5  UNL     1       6.677  19.062  27.657  1.00  0.00     0.185 HD
HETATM   25  N7  UNL     1       3.687  19.809  26.910  1.00  0.00    -0.225 N
HETATM   26  N8  UNL     1       3.550  18.759  27.685  1.00  0.00    -0.275 N
ATOM     27  H7  UNL     1       2.945  20.346  26.461  1.00  0.00     0.205 HD
ATOM     28  H8  UNL     1       2.658  18.338  27.944  1.00  0.00     0.189 HD
ENDBRANCH  20  21
ENDBRANCH  19  20
ENDBRANCH  18  19
ENDBRANCH  17  18
ENDBRANCH  16  17
ENDBRANCH  14  16
ENDBRANCH   9  14
BRANCH  10  29
HETATM   29  O2  UNL     1       4.731  17.939  32.535  1.00  0.00    -0.268 OA
ATOM     30  H2  UNL     1       4.432  17.558  31.717  1.00  0.00     0.246 HD
ENDBRANCH  10  29
BRANCH   1  31
HETATM   31  N1  UNL     1       3.538  19.104  37.609  1.00  0.00    -0.234 N
ATOM     32  H12 UNL     1       2.706  18.822  38.127  1.00  0.00     0.174 HD
ATOM     33  H11 UNL     1       3.832  20.080  37.620  1.00  0.00     0.174 HD
ENDBRANCH   1  31
TORSDOF 9
ENDMDL