MODEL 4
REMARK VINA RESULT: -7.760819653      1.591      3.310
REMARK  10 active torsions:
REMARK  status: ('A' for Active; 'I' for Inactive)
REMARK    1  A    between atoms: C2_2  and  C3_3
REMARK    2  A    between atoms: C3_3  and  C4_4
REMARK    3  A    between atoms: C4_4  and  O1_5
REMARK    4  A    between atoms: O1_5  and  C5_6
REMARK    5  A    between atoms: C5_6  and  C6_7
REMARK    6  A    between atoms: C6_7  and  N1_8
REMARK    7  A    between atoms: C8_12  and  N3_13
REMARK    8  A    between atoms: C9_18  and  C10_19
REMARK    9  A    between atoms: C10_19  and  N5_20
REMARK   10  A    between atoms: C12_25  and  N6_26
ROOT
HETATM    1  N1  UNL     1       5.792  16.833  32.387  1.00  0.00    -0.162 N
HETATM    2  C7  UNL     1       6.756  16.073  32.915  1.00  0.00     0.155 A
HETATM    3  N2  UNL     1       6.770  15.735  34.206  1.00  0.00    -0.175 N
ATOM      4  H2  UNL     1       6.024  16.094  34.801  1.00  0.00     0.186 HD
HETATM    5  C8  UNL     1       7.692  14.962  34.766  1.00  0.00     0.677 A
HETATM    6  N4  UNL     1       8.684  14.476  34.006  1.00  0.00    -0.193 N
ATOM      7  H4  UNL     1       9.388  13.883  34.447  1.00  0.00     0.184 HD
HETATM    8  C9  UNL     1       8.797  14.737  32.671  1.00  0.00     0.069 A
HETATM    9  C11 UNL     1       7.806  15.551  32.130  1.00  0.00     0.080 A
HETATM   10  C12 UNL     1       7.803  15.857  30.781  1.00  0.00     0.155 A
HETATM   11  N7  UNL     1       6.819  16.628  30.258  1.00  0.00    -0.054 N
HETATM   12  N8  UNL     1       6.642  17.024  29.010  1.00  0.00    -0.109 N
ATOM     13  H8  UNL     1       7.237  16.808  28.210  1.00  0.00     0.207 HD
HETATM   14  C13 UNL     1       5.512  17.778  29.002  1.00  0.00     0.706 A
HETATM   15  N9  UNL     1       5.008  18.345  27.966  1.00  0.00    -0.233 N
ATOM     16  H91 UNL     1       4.160  18.910  27.960  1.00  0.00     0.174 HD
ATOM     17  H92 UNL     1       5.385  18.307  27.019  1.00  0.00     0.174 HD
HETATM   18  N10 UNL     1       5.016  17.827  30.251  1.00  0.00    -0.019 N
ATOM     19  H10 UNL     1       4.174  18.318  30.552  1.00  0.00     0.203 HD
HETATM   20  C14 UNL     1       5.851  17.096  31.035  1.00  0.00     0.724 A
ENDROOT
BRANCH   1  21
HETATM   21  C6  UNL     1       4.730  17.449  33.123  1.00  0.00     0.175 C
BRANCH  21  22
HETATM   22  C5  UNL     1       3.827  16.426  33.721  1.00  0.00     0.188 C
BRANCH  22  23
HETATM   23  O1  UNL     1       3.685  16.405  35.047  1.00  0.00    -0.390 OA
BRANCH  23  24
HETATM   24  C4  UNL     1       4.039  17.550  35.717  1.00  0.00     0.167 C
BRANCH  24  25
HETATM   25  C3  UNL     1       4.046  17.382  37.233  1.00  0.00     0.026 C
BRANCH  25  26
HETATM   26  C2  UNL     1       5.512  17.114  37.592  1.00  0.00    -0.002 C
HETATM   27  C1  UNL     1       6.385  17.977  36.737  1.00  0.00     0.005 C
ENDBRANCH  25  26
ENDBRANCH  24  25
ENDBRANCH  23  24
ENDBRANCH  22  23
ENDBRANCH  21  22
ENDBRANCH   1  21
BRANCH   5  28
HETATM   28  N3  UNL     1       7.652  14.673  36.013  1.00  0.00    -0.234 N
ATOM     29  H32 UNL     1       7.014  13.948  36.340  1.00  0.00     0.174 HD
ATOM     30  H31 UNL     1       8.247  15.152  36.688  1.00  0.00     0.174 HD
ENDBRANCH   5  28
BRANCH   8  31
HETATM   31  C10 UNL     1       9.892  14.192  31.865  1.00  0.00     0.288 C
BRANCH  31  32
HETATM   32  N5  UNL     1      10.630  13.276  32.789  1.00  0.00    -0.074 N
ATOM     33  H53 UNL     1      10.184  12.368  32.915  1.00  0.00     0.274 HD
ATOM     34  H52 UNL     1      11.508  12.923  32.409  1.00  0.00     0.274 HD
ATOM     35  H51 UNL     1      10.737  13.808  33.652  1.00  0.00     0.274 HD
ENDBRANCH  31  32
ENDBRANCH   8  31
BRANCH  10  36
HETATM   36  N6  UNL     1       8.741  15.400  30.052  1.00  0.00    -0.383 N
ATOM     37  H62 UNL     1       9.126  14.467  30.208  1.00  0.00     0.157 HD
ATOM     38  H61 UNL     1       9.105  15.986  29.301  1.00  0.00     0.157 HD
ENDBRANCH  10  36
TORSDOF 10
ENDMDL