MODEL 5
REMARK VINA RESULT: -8.110504990      2.677      5.568
REMARK  10 active torsions:
REMARK  status: ('A' for Active; 'I' for Inactive)
REMARK    1  A    between atoms: C2_2  and  C3_3
REMARK    2  A    between atoms: C2_2  and  C8_24
REMARK    3  A    between atoms: C3_3  and  C4_4
REMARK    4  A    between atoms: C4_4  and  C5_5
REMARK    5  A    between atoms: C5_5  and  O1_6
REMARK    6  A    between atoms: O1_6  and  C6_7
REMARK    7  A    between atoms: C6_7  and  N2_11
REMARK    8  A    between atoms: N2_11  and  N3_13
REMARK       I    between atoms: N3_13  and  C7_15
REMARK       I    between atoms: C7_15  and  N5_19
REMARK    9  A    between atoms: N5_19  and  N6_21
REMARK   10  A    between atoms: C11_28  and  O5_29
ROOT
HETATM    1  C6  UNL     1       6.745  14.918  29.335  1.00  0.00     0.232 C
HETATM    2  N1  UNL     1       7.202  13.828  28.798  1.00  0.00    -0.364 N
ATOM      3  H11 UNL     1       6.537  13.068  28.660  1.00  0.00     0.159 HD
ATOM      4  H12 UNL     1       8.189  13.784  28.545  1.00  0.00     0.159 HD
ENDROOT
BRANCH   1   5
HETATM    5  O1  UNL     1       7.643  15.945  29.522  1.00  0.00    -0.321 OA
BRANCH   5   6
HETATM    6  C5  UNL     1       8.698  15.907  30.450  1.00  0.00     0.179 C
BRANCH   6   7
HETATM    7  C4  UNL     1       8.335  15.189  31.723  1.00  0.00     0.027 C
BRANCH   7   8
HETATM    8  C3  UNL     1       8.136  16.125  32.885  1.00  0.00     0.011 C
BRANCH   8   9
HETATM    9  C2  UNL     1       7.046  15.516  33.762  1.00  0.00     0.037 C
HETATM   10  C1  UNL     1       7.347  15.751  35.227  1.00  0.00     0.015 C
BRANCH   9  11
HETATM   11  C8  UNL     1       5.705  16.210  33.492  1.00  0.00     0.266 C
HETATM   12  O4  UNL     1       4.757  15.244  33.221  1.00  0.00    -0.361 OA
HETATM   13  C9  UNL     1       3.743  15.337  34.167  1.00  0.00     0.176 C
HETATM   14  C10 UNL     1       3.167  16.752  34.061  1.00  0.00     0.087 C
HETATM   15  C11 UNL     1       4.264  17.687  34.529  1.00  0.00     0.261 C
HETATM   16  O6  UNL     1       5.420  16.938  34.655  1.00  0.00    -0.331 OA
BRANCH  15  17
HETATM   17  O5  UNL     1       3.976  18.254  35.756  1.00  0.00    -0.371 OA
ATOM     18  H5  UNL     1       3.146  18.714  35.751  1.00  0.00     0.212 HD
ENDBRANCH  15  17
ENDBRANCH   9  11
ENDBRANCH   8   9
ENDBRANCH   7   8
ENDBRANCH   6   7
ENDBRANCH   5   6
ENDBRANCH   1   5
BRANCH   1  19
HETATM   19  N2  UNL     1       5.371  14.979  29.688  1.00  0.00    -0.251 N
ATOM     20  H2  UNL     1       4.903  14.189  30.132  1.00  0.00     0.191 HD
BRANCH  19  21
HETATM   21  N3  UNL     1       4.684  16.160  29.403  1.00  0.00    -0.128 N
HETATM   22  C7  UNL     1       5.284  17.387  29.793  1.00  0.00     0.709 C
HETATM   23  N4  UNL     1       5.393  17.651  31.051  1.00  0.00    -0.232 N
HETATM   24  N5  UNL     1       5.743  18.279  28.805  1.00  0.00    -0.071 N
ATOM     25  H42 UNL     1       5.060  17.005  31.766  1.00  0.00     0.174 HD
ATOM     26  H41 UNL     1       5.824  18.532  31.331  1.00  0.00     0.174 HD
ATOM     27  H5  UNL     1       6.718  18.580  28.803  1.00  0.00     0.212 HD
ATOM     28  H3  UNL     1       3.780  16.142  28.930  1.00  0.00     0.205 HD
BRANCH  24  29
HETATM   29  N6  UNL     1       4.873  18.750  27.836  1.00  0.00    -0.024 N
HETATM   30  O2  UNL     1       3.650  18.502  27.991  1.00  0.00    -0.516 OA
HETATM   31  O3  UNL     1       5.239  19.457  26.733  1.00  0.00    -0.516 OA
ENDBRANCH  24  29
ENDBRANCH  19  21
ENDBRANCH   1  19
TORSDOF 10
ENDMDL