MODEL 3
REMARK VINA RESULT: -7.412134080      1.064      1.598
REMARK  7 active torsions:
REMARK  status: ('A' for Active; 'I' for Inactive)
REMARK    1  A    between atoms: O1_2  and  N1_3
REMARK       I    between atoms: C2_5  and  N3_7
REMARK       I    between atoms: N3_7  and  C3_9
REMARK       I    between atoms: C3_9  and  N5_13
REMARK    2  A    between atoms: N5_13  and  C4_15
REMARK    3  A    between atoms: C4_15  and  C5_16
REMARK    4  A    between atoms: C5_16  and  C6_17
REMARK    5  A    between atoms: C6_17  and  C7_18
REMARK    6  A    between atoms: C7_18  and  O2_19
REMARK    7  A    between atoms: O2_19  and  C8_20
ROOT
HETATM    1  C4  UNL     1       5.048  18.520  36.141  1.00  0.00     0.138 C
ENDROOT
BRANCH   1   2
HETATM    2  N5  UNL     1       4.872  17.136  36.507  1.00  0.00    -0.226 N
HETATM    3  C3  UNL     1       5.677  16.623  37.560  1.00  0.00     0.674 C
HETATM    4  N3  UNL     1       6.871  15.940  37.203  1.00  0.00    -0.162 N
HETATM    5  N4  UNL     1       5.281  16.805  38.765  1.00  0.00    -0.235 N
HETATM    6  C2  UNL     1       6.749  14.747  36.448  1.00  0.00     0.226 C
ATOM      7  H3  UNL     1       7.786  16.297  37.480  1.00  0.00     0.187 HD
HETATM    8  N1  UNL     1       6.934  13.620  37.029  1.00  0.00    -0.238 N
HETATM    9  N2  UNL     1       6.423  14.823  35.059  1.00  0.00    -0.061 NA
ATOM     10  H1  UNL     1       6.850  12.750  36.502  1.00  0.00     0.197 HD
ATOM     11  H42 UNL     1       5.858  16.437  39.521  1.00  0.00     0.174 HD
ATOM     12  H41 UNL     1       4.423  17.294  39.021  1.00  0.00     0.174 HD
ATOM     13  H5  UNL     1       4.194  16.545  36.026  1.00  0.00     0.177 HD
BRANCH   8  14
HETATM   14  O1  UNL     1       7.245  13.594  38.359  1.00  0.00    -0.283 OA
HETATM   15  C1  UNL     1       6.874  12.553  39.225  1.00  0.00     0.237 C
ENDBRANCH   8  14
ENDBRANCH   1   2
BRANCH   1  16
HETATM   16  C5  UNL     1       4.572  18.743  34.748  1.00  0.00     0.022 C
BRANCH  16  17
HETATM   17  C6  UNL     1       4.097  17.454  34.139  1.00  0.00     0.028 C
BRANCH  17  18
HETATM   18  C7  UNL     1       4.519  17.397  32.704  1.00  0.00     0.179 C
BRANCH  18  19
HETATM   19  O2  UNL     1       5.937  17.257  32.632  1.00  0.00    -0.321 OA
BRANCH  19  20
HETATM   20  C8  UNL     1       6.519  16.548  31.587  1.00  0.00     0.232 C
HETATM   21  N6  UNL     1       7.268  15.508  31.853  1.00  0.00    -0.340 N
HETATM   22  C9  UNL     1       7.890  14.749  30.773  1.00  0.00     0.179 C
ATOM     23  H6  UNL     1       7.419  15.226  32.822  1.00  0.00     0.164 HD
HETATM   24  S1  UNL     1       9.379  13.981  31.426  1.00  0.00    -0.068 SA
HETATM   25  C10 UNL     1       8.324  15.783  29.735  1.00  0.00     0.129 C
HETATM   26  C11 UNL     1       9.202  15.165  28.679  1.00  0.00     0.033 C
HETATM   27  N7  UNL     1       7.113  16.356  29.182  1.00  0.00    -0.131 NA
HETATM   28  N8  UNL     1       6.354  16.882  30.215  1.00  0.00    -0.269 N
ATOM     29  H8  UNL     1       5.627  17.555  29.975  1.00  0.00     0.186 HD
ENDBRANCH  19  20
ENDBRANCH  18  19
ENDBRANCH  17  18
ENDBRANCH  16  17
ENDBRANCH   1  16
TORSDOF 7
ENDMDL