MODEL 2
REMARK VINA RESULT: -9.559440527      0.054      1.832
REMARK  9 active torsions:
REMARK  status: ('A' for Active; 'I' for Inactive)
REMARK    1  A    between atoms: C1_4  and  C2_5
REMARK    2  A    between atoms: C1_4  and  N6_20
REMARK    3  A    between atoms: C2_5  and  C3_6
REMARK    4  A    between atoms: C3_6  and  N2_7
REMARK    5  A    between atoms: C5_12  and  N4_13
REMARK    6  A    between atoms: N6_20  and  N7_22
REMARK    7  A    between atoms: N7_22  and  N8_23
REMARK    8  A    between atoms: N8_23  and  C7_25
REMARK    9  A    between atoms: C10_28  and  N9_29
ROOT
HETATM    1  N1  UNL     1       4.583  17.284  28.615  1.00  0.00    -0.388 N
ATOM      2  H11 UNL     1       4.154  18.209  28.642  1.00  0.00     0.157 HD
ATOM      3  H12 UNL     1       4.312  16.656  27.859  1.00  0.00     0.157 HD
HETATM    4  C1  UNL     1       5.437  16.960  29.528  1.00  0.00     0.089 C
ENDROOT
BRANCH   4   5
HETATM    5  C2  UNL     1       6.064  15.609  29.487  1.00  0.00     0.097 C
BRANCH   5   6
HETATM    6  C3  UNL     1       7.557  15.826  29.257  1.00  0.00     0.146 C
BRANCH   6   7
HETATM    7  N2  UNL     1       8.360  15.108  30.212  1.00  0.00    -0.250 N
HETATM    8  C4  UNL     1       8.748  13.852  29.956  1.00  0.00     0.344 A
HETATM    9  O1  UNL     1       8.405  13.311  28.882  1.00  0.00    -0.246 OA
HETATM   10  N3  UNL     1       9.488  13.186  30.832  1.00  0.00    -0.141 N
HETATM   11  C5  UNL     1       9.850  13.780  31.986  1.00  0.00     0.683 A
ATOM     12  H3  UNL     1       9.781  12.230  30.634  1.00  0.00     0.189 HD
HETATM   13  N5  UNL     1       9.467  15.039  32.253  1.00  0.00    -0.141 N
HETATM   14  C6  UNL     1       8.713  15.714  31.357  1.00  0.00     0.344 A
ATOM     15  H5  UNL     1       9.743  15.483  33.129  1.00  0.00     0.189 HD
HETATM   16  O2  UNL     1       8.343  16.877  31.574  1.00  0.00    -0.246 OA
BRANCH  11  17
HETATM   17  N4  UNL     1      10.569  13.129  32.833  1.00  0.00    -0.234 N
ATOM     18  H42 UNL     1      11.311  12.511  32.507  1.00  0.00     0.174 HD
ATOM     19  H41 UNL     1      10.388  13.240  33.830  1.00  0.00     0.174 HD
ENDBRANCH  11  17
ENDBRANCH   6   7
ENDBRANCH   5   6
ENDBRANCH   4   5
BRANCH   4  20
HETATM   20  N6  UNL     1       5.813  17.833  30.578  1.00  0.00    -0.273 N
ATOM     21  H6  UNL     1       6.757  18.221  30.583  1.00  0.00     0.185 HD
BRANCH  20  22
HETATM   22  N7  UNL     1       4.931  18.183  31.610  1.00  0.00    -0.021 NA
BRANCH  22  23
HETATM   23  N8  UNL     1       4.627  17.054  32.362  1.00  0.00    -0.284 N
ATOM     24  H8  UNL     1       4.049  16.316  31.960  1.00  0.00     0.184 HD
BRANCH  23  25
HETATM   25  C7  UNL     1       5.122  16.921  33.696  1.00  0.00     0.046 A
HETATM   26  C8  UNL     1       6.080  15.994  34.037  1.00  0.00     0.033 A
HETATM   27  C9  UNL     1       6.546  15.881  35.331  1.00  0.00     0.038 A
HETATM   28  C10 UNL     1       6.069  16.698  36.341  1.00  0.00     0.103 A
HETATM   29  C11 UNL     1       5.110  17.623  35.990  1.00  0.00     0.038 A
HETATM   30  C12 UNL     1       4.638  17.742  34.694  1.00  0.00     0.033 A
BRANCH  28  31
HETATM   31  N9  UNL     1       6.556  16.572  37.669  1.00  0.00    -0.116 N
HETATM   32  O3  UNL     1       7.765  16.735  37.901  1.00  0.00    -0.532 OA
HETATM   33  O4  UNL     1       5.731  16.275  38.722  1.00  0.00    -0.532 OA
ENDBRANCH  28  31
ENDBRANCH  23  25
ENDBRANCH  22  23
ENDBRANCH  20  22
ENDBRANCH   4  20
TORSDOF 9
ENDMDL