MODEL 4
REMARK VINA RESULT: -6.931123835      1.307      1.594
REMARK  10 active torsions:
REMARK  status: ('A' for Active; 'I' for Inactive)
REMARK    1  A    between atoms: N2_4  and  N3_6
REMARK    2  A    between atoms: N3_6  and  C1_8
REMARK    3  A    between atoms: C1_8  and  C2_9
REMARK    4  A    between atoms: C2_9  and  C3_10
REMARK    5  A    between atoms: C3_10  and  C4_11
REMARK    6  A    between atoms: C4_11  and  C5_12
REMARK    7  A    between atoms: C6_13  and  C7_14
REMARK    8  A    between atoms: N6_22  and  C11_23
REMARK    9  A    between atoms: N9_29  and  N10_30
REMARK   10  A    between atoms: C13_33  and  N11_34
ROOT
HETATM    1  C7  UNL     1      28.788  14.909  11.570  1.00  0.00     0.164 A
HETATM    2  N4  UNL     1      29.487  15.630  12.463  1.00  0.00    -0.319 N
ATOM      3  H4  UNL     1      30.292  16.188  12.179  1.00  0.00     0.169 HD
HETATM    4  C8  UNL     1      29.081  15.586  13.757  1.00  0.00     0.144 A
HETATM    5  C9  UNL     1      28.001  14.843  14.177  1.00  0.00     0.122 A
HETATM    6  N5  UNL     1      27.881  15.024  15.497  1.00  0.00    -0.346 N
ATOM      7  H5  UNL     1      27.169  14.599  16.091  1.00  0.00     0.167 HD
HETATM    8  C10 UNL     1      28.857  15.861  15.918  1.00  0.00     0.188 A
HETATM    9  N6  UNL     1      29.595  16.206  14.851  1.00  0.00    -0.289 N
HETATM   10  C13 UNL     1      27.294  14.107  13.237  1.00  0.00     0.132 A
HETATM   11  N12 UNL     1      27.732  14.180  11.962  1.00  0.00    -0.320 N
ATOM     12  H12 UNL     1      27.228  13.647  11.252  1.00  0.00     0.169 HD
ENDROOT
BRANCH   1  13
HETATM   13  C6  UNL     1      29.209  14.946  10.178  1.00  0.00    -0.030 C
HETATM   14  C5  UNL     1      29.542  14.968   9.019  1.00  0.00    -0.098 C
BRANCH  14  15
HETATM   15  C4  UNL     1      29.929  14.975   7.607  1.00  0.00     0.094 C
BRANCH  15  16
HETATM   16  C3  UNL     1      31.359  15.448   7.554  1.00  0.00     0.014 C
BRANCH  16  17
HETATM   17  C2  UNL     1      32.317  14.495   8.184  1.00  0.00     0.022 C
BRANCH  17  18
HETATM   18  C1  UNL     1      33.179  15.123   9.252  1.00  0.00     0.141 C
BRANCH  18  19
HETATM   19  N3  UNL     1      34.369  14.317   9.376  1.00  0.00    -0.323 N
ATOM     20  H3  UNL     1      34.681  14.056  10.312  1.00  0.00     0.181 HD
BRANCH  19  21
HETATM   21  N2  UNL     1      35.115  13.875   8.290  1.00  0.00    -0.254 N
HETATM   22  N1  UNL     1      36.113  14.544   7.891  1.00  0.00    -0.331 N
ATOM     23  H12 UNL     1      36.356  15.407   8.378  1.00  0.00     0.178 HD
ATOM     24  H11 UNL     1      36.661  14.220   7.094  1.00  0.00     0.178 HD
ATOM     25  H2  UNL     1      34.858  13.010   7.813  1.00  0.00     0.207 HD
ENDBRANCH  19  21
ENDBRANCH  18  19
ENDBRANCH  17  18
ENDBRANCH  16  17
ENDBRANCH  15  16
ENDBRANCH  14  15
ENDBRANCH   1  13
BRANCH  10  26
HETATM   26  N11 UNL     1      26.277  13.398  13.580  1.00  0.00    -0.383 N
ATOM     27 2H11 UNL     1      26.205  12.948  14.493  1.00  0.00     0.157 HD
ATOM     28 1H11 UNL     1      25.495  13.259  12.941  1.00  0.00     0.157 HD
ENDBRANCH  10  26
BRANCH   9  29
HETATM   29  C11 UNL     1      30.753  17.086  14.808  1.00  0.00     0.312 C
HETATM   30  N7  UNL     1      30.923  17.694  16.113  1.00  0.00    -0.349 N
HETATM   31  C12 UNL     1      31.778  17.005  16.792  1.00  0.00     0.192 C
ATOM     32  H7  UNL     1      30.443  18.531  16.442  1.00  0.00     0.163 HD
HETATM   33  N8  UNL     1      32.215  15.915  15.981  1.00  0.00    -0.294 N
HETATM   34  N9  UNL     1      31.986  16.338  14.667  1.00  0.00    -0.101 NA
ATOM     35  H8  UNL     1      32.608  15.026  16.290  1.00  0.00     0.183 HD
BRANCH  34  36
HETATM   36  N10 UNL     1      31.878  15.295  13.764  1.00  0.00    -0.342 NA
ATOM     37 2H10 UNL     1      31.122  15.416  13.091  1.00  0.00     0.172 HD
ATOM     38 1H10 UNL     1      32.690  15.218  13.151  1.00  0.00     0.172 HD
ENDBRANCH  34  36
ENDBRANCH   9  29
TORSDOF 10
ENDMDL