MODEL 1
REMARK VINA RESULT: -7.716347515      0.000      0.000
REMARK  10 active torsions:
REMARK  status: ('A' for Active; 'I' for Inactive)
REMARK    1  A    between atoms: N1_1  and  C1_5
REMARK    2  A    between atoms: C1_5  and  C2_6
REMARK    3  A    between atoms: C2_6  and  C3_7
REMARK    4  A    between atoms: C3_7  and  C4_8
REMARK    5  A    between atoms: C4_8  and  C5_9
REMARK    6  A    between atoms: C5_9  and  C6_10
REMARK    7  A    between atoms: C6_10  and  N2_11
REMARK    8  A    between atoms: N2_11  and  C7_14
REMARK    9  A    between atoms: C12_26  and  O1_27
REMARK   10  A    between atoms: C15_34  and  O2_35
ROOT
HETATM    1  C7  UNL     1      32.851  14.708  10.104  1.00  0.00     0.318 C
HETATM    2  N3  UNL     1      34.158  14.412   9.602  1.00  0.00    -0.344 N
ATOM      3  H3  UNL     1      34.904  14.490  10.293  1.00  0.00     0.163 HD
HETATM    4  C8  UNL     1      34.600  14.020   8.285  1.00  0.00     0.147 A
HETATM    5  N4  UNL     1      35.822  14.440   7.991  1.00  0.00    -0.348 N
ATOM      6  H4  UNL     1      36.366  14.985   8.660  1.00  0.00     0.167 HD
HETATM    7  C9  UNL     1      36.328  14.123   6.771  1.00  0.00     0.107 A
HETATM    8  C10 UNL     1      35.554  13.383   5.902  1.00  0.00     0.107 A
HETATM    9  N5  UNL     1      34.314  12.957   6.200  1.00  0.00    -0.348 N
ATOM     10  H5  UNL     1      33.768  12.411   5.534  1.00  0.00     0.167 HD
HETATM   11  C11 UNL     1      33.823  13.276   7.406  1.00  0.00     0.152 A
HETATM   12  N6  UNL     1      32.505  12.742   7.552  1.00  0.00    -0.305 N
HETATM   13  C12 UNL     1      31.804  11.868   6.629  1.00  0.00     0.249 C
HETATM   14  C13 UNL     1      30.637  11.409   7.503  1.00  0.00     0.288 C
HETATM   15  N7  UNL     1      30.358  12.639   8.219  1.00  0.00    -0.047 N
ATOM     16  H71 UNL     1      29.636  12.564   8.936  1.00  0.00     0.279 HD
ATOM     17  H72 UNL     1      29.882  13.356   7.671  1.00  0.00     0.279 HD
HETATM   18  C14 UNL     1      31.651  13.015   8.706  1.00  0.00     0.322 C
HETATM   19  C15 UNL     1      31.767  14.454   9.073  1.00  0.00     0.218 C
ENDROOT
BRANCH   1  20
HETATM   20  N2  UNL     1      32.792  16.093  10.491  1.00  0.00    -0.052 N
ATOM     21  H22 UNL     1      31.987  16.557  10.070  1.00  0.00     0.279 HD
ATOM     22  H21 UNL     1      33.538  16.629  10.050  1.00  0.00     0.279 HD
BRANCH  20  23
HETATM   23  C6  UNL     1      32.804  16.267  11.925  1.00  0.00     0.235 C
BRANCH  23  24
HETATM   24  C5  UNL     1      31.446  15.956  12.530  1.00  0.00     0.027 C
BRANCH  24  25
HETATM   25  C4  UNL     1      31.489  16.005  14.037  1.00  0.00     0.002 C
BRANCH  25  26
HETATM   26  C3  UNL     1      30.143  16.263  14.660  1.00  0.00     0.002 C
BRANCH  26  27
HETATM   27  C2  UNL     1      30.261  16.528  16.129  1.00  0.00     0.027 C
BRANCH  27  28
HETATM   28  C1  UNL     1      31.678  16.976  16.416  1.00  0.00     0.229 C
BRANCH  28  29
HETATM   29  N1  UNL     1      31.704  18.320  16.934  1.00  0.00    -0.079 N
ATOM     30  H13 UNL     1      31.646  19.011  16.187  1.00  0.00     0.274 HD
ATOM     31  H12 UNL     1      30.841  18.549  17.426  1.00  0.00     0.274 HD
ATOM     32  H11 UNL     1      32.523  18.471  17.523  1.00  0.00     0.274 HD
ENDBRANCH  28  29
ENDBRANCH  27  28
ENDBRANCH  26  27
ENDBRANCH  25  26
ENDBRANCH  24  25
ENDBRANCH  23  24
ENDBRANCH  20  23
ENDBRANCH   1  20
BRANCH  19  33
HETATM   33  O2  UNL     1      31.964  15.285   7.970  1.00  0.00    -0.388 OA
ATOM     34  H2  UNL     1      31.202  15.252   7.404  1.00  0.00     0.210 HD
ENDBRANCH  19  33
BRANCH  13  35
HETATM   35  O1  UNL     1      32.621  10.800   6.282  1.00  0.00    -0.375 OA
ATOM     36  H1  UNL     1      32.095  10.017   6.168  1.00  0.00     0.212 HD
ENDBRANCH  13  35
TORSDOF 10
ENDMDL