MODEL 3
REMARK VINA RESULT: -7.330233360      2.574      7.171
REMARK  9 active torsions:
REMARK  status: ('A' for Active; 'I' for Inactive)
REMARK    1  A    between atoms: N5_15  and  C6_16
REMARK    2  A    between atoms: C7_18  and  C8_19
REMARK    3  A    between atoms: C8_19  and  S1_20
REMARK    4  A    between atoms: S1_20  and  C9_21
REMARK    5  A    between atoms: C9_21  and  C10_22
REMARK    6  A    between atoms: C10_22  and  N6_23
REMARK    7  A    between atoms: N6_23  and  C11_26
REMARK    8  A    between atoms: C11_26  and  N7_27
REMARK    9  A    between atoms: C13_32  and  N8_33
ROOT
HETATM    1  C6  UNL     1      30.767  15.578  11.943  1.00  0.00     0.261 C
HETATM    2  O1  UNL     1      29.682  15.525  11.063  1.00  0.00    -0.358 OA
HETATM    3  C7  UNL     1      30.099  16.063   9.850  1.00  0.00     0.135 C
HETATM    4  C12 UNL     1      31.582  16.230   9.927  1.00  0.00     0.070 C
HETATM    5  C13 UNL     1      31.628  16.692  11.411  1.00  0.00     0.234 C
ENDROOT
BRANCH   1   6
HETATM    6  N5  UNL     1      30.334  15.703  13.299  1.00  0.00    -0.298 N
HETATM    7  C3  UNL     1      29.243  15.165  13.788  1.00  0.00     0.142 A
HETATM    8  N3  UNL     1      28.260  14.380  13.264  1.00  0.00    -0.336 N
HETATM    9  C4  UNL     1      29.091  15.509  15.124  1.00  0.00     0.122 A
HETATM   10  C2  UNL     1      27.241  14.002  14.050  1.00  0.00     0.183 A
ATOM     11  H3  UNL     1      28.298  14.084  12.288  1.00  0.00     0.168 HD
HETATM   12  N2  UNL     1      27.104  14.335  15.332  1.00  0.00    -0.337 N
HETATM   13  C1  UNL     1      28.049  15.110  15.896  1.00  0.00     0.131 A
ATOM     14  H2  UNL     1      26.303  14.010  15.874  1.00  0.00     0.168 HD
HETATM   15  N1  UNL     1      27.842  15.422  17.115  1.00  0.00    -0.383 N
ATOM     16  H12 UNL     1      27.059  15.123  17.695  1.00  0.00     0.157 HD
ATOM     17  H11 UNL     1      28.558  16.009  17.542  1.00  0.00     0.157 HD
HETATM   18  N4  UNL     1      30.176  16.298  15.401  1.00  0.00    -0.346 N
HETATM   19  C5  UNL     1      30.906  16.405  14.296  1.00  0.00     0.188 A
ATOM     20  H4  UNL     1      30.387  16.730  16.301  1.00  0.00     0.167 HD
ENDBRANCH   1   6
BRANCH   5  21
HETATM   21  N8  UNL     1      32.932  16.743  11.944  1.00  0.00    -0.071 N
ATOM     22  H83 UNL     1      32.971  17.409  12.716  1.00  0.00     0.274 HD
ATOM     23  H82 UNL     1      33.143  15.880  12.443  1.00  0.00     0.274 HD
ATOM     24  H81 UNL     1      33.667  16.946  11.266  1.00  0.00     0.274 HD
ENDBRANCH   5  21
BRANCH   3  25
HETATM   25  C8  UNL     1      29.557  15.232   8.732  1.00  0.00     0.106 C
BRANCH  25  26
HETATM   26  S1  UNL     1      30.728  14.891   7.438  1.00  0.00    -0.165 SA
BRANCH  26  27
HETATM   27  C9  UNL     1      30.853  13.103   7.126  1.00  0.00     0.101 C
BRANCH  27  28
HETATM   28  C10 UNL     1      30.510  12.931   5.667  1.00  0.00     0.244 C
BRANCH  28  29
HETATM   29  N6  UNL     1      29.286  12.239   5.491  1.00  0.00    -0.051 N
ATOM     30  H62 UNL     1      28.539  12.587   6.091  1.00  0.00     0.279 HD
ATOM     31  H61 UNL     1      28.837  12.438   4.597  1.00  0.00     0.279 HD
BRANCH  29  32
HETATM   32  C11 UNL     1      29.571  10.804   5.691  1.00  0.00     0.460 C
BRANCH  32  33
HETATM   33  N7  UNL     1      28.489  10.193   6.482  1.00  0.00    -0.056 N
ATOM     34  H73 UNL     1      28.643   9.197   6.642  1.00  0.00     0.276 HD
ATOM     35  H72 UNL     1      28.501  10.500   7.454  1.00  0.00     0.276 HD
ATOM     36  H71 UNL     1      27.592  10.375   6.032  1.00  0.00     0.276 HD
ENDBRANCH  32  33
ENDBRANCH  29  32
ENDBRANCH  28  29
ENDBRANCH  27  28
ENDBRANCH  26  27
ENDBRANCH  25  26
ENDBRANCH   3  25
TORSDOF 9
ENDMDL