MODEL 3
REMARK VINA RESULT: -7.661949722      2.441      4.140
REMARK  10 active torsions:
REMARK  status: ('A' for Active; 'I' for Inactive)
REMARK    1  A    between atoms: N2_3  and  N3_5
REMARK    2  A    between atoms: C2_6  and  C3_7
REMARK    3  A    between atoms: C8_15  and  N5_16
REMARK    4  A    between atoms: N5_16  and  C9_18
REMARK    5  A    between atoms: C9_18  and  C10_19
REMARK    6  A    between atoms: C10_19  and  N6_20
REMARK    7  A    between atoms: N6_20  and  C11_23
REMARK    8  A    between atoms: C11_23  and  C12_24
REMARK    9  A    between atoms: C12_24  and  N7_25
REMARK   10  A    between atoms: C13_31  and  N9_32
ROOT
HETATM    1  N1  UNL     1      32.609  17.623  17.609  1.00  0.00    -0.170 NA
HETATM    2  C1  UNL     1      31.825  17.577  16.728  1.00  0.00     0.198 C
HETATM    3  N2  UNL     1      30.927  17.574  15.692  1.00  0.00    -0.226 N
ATOM      4  H2  UNL     1      30.734  18.486  15.279  1.00  0.00     0.200 HD
ENDROOT
BRANCH   3   5
HETATM    5  N3  UNL     1      30.247  16.513  15.127  1.00  0.00    -0.209 N
HETATM    6  C2  UNL     1      30.468  16.017  13.884  1.00  0.00     0.164 A
HETATM    7  N4  UNL     1      29.527  15.041  13.658  1.00  0.00    -0.332 N
HETATM    8  C7  UNL     1      28.760  14.944  14.730  1.00  0.00     0.125 A
ATOM      9  H4  UNL     1      29.435  14.486  12.807  1.00  0.00     0.168 HD
HETATM   10  C8  UNL     1      27.664  14.117  15.024  1.00  0.00     0.147 A
HETATM   11  C14 UNL     1      29.171  15.844  15.677  1.00  0.00     0.175 A
HETATM   12  N8  UNL     1      27.075  14.249  16.212  1.00  0.00    -0.175 N
HETATM   13  C13 UNL     1      27.481  15.128  17.128  1.00  0.00     0.679 A
ATOM     14  H8  UNL     1      26.279  13.652  16.430  1.00  0.00     0.186 HD
HETATM   15  N10 UNL     1      28.532  15.935  16.871  1.00  0.00    -0.172 N
ATOM     16  H10 UNL     1      28.844  16.609  17.570  1.00  0.00     0.186 HD
BRANCH   6  17
HETATM   17  C3  UNL     1      31.473  16.373  12.888  1.00  0.00     0.120 A
HETATM   18  C4  UNL     1      32.017  15.732  11.822  1.00  0.00     0.043 A
HETATM   19  C5  UNL     1      32.964  16.570  11.214  1.00  0.00     0.027 A
HETATM   20  C6  UNL     1      32.938  17.704  11.968  1.00  0.00     0.142 A
HETATM   21  O1  UNL     1      32.079  17.560  12.914  1.00  0.00    -0.319 OA
ENDBRANCH   6  17
BRANCH  10  22
HETATM   22  N5  UNL     1      27.292  13.272  14.114  1.00  0.00    -0.372 N
ATOM     23  H5  UNL     1      27.311  12.267  14.286  1.00  0.00     0.161 HD
BRANCH  22  24
HETATM   24  C9  UNL     1      26.848  13.807  12.848  1.00  0.00     0.148 C
BRANCH  24  25
HETATM   25  C10 UNL     1      25.673  13.078  12.282  1.00  0.00     0.251 C
BRANCH  25  26
HETATM   26  N6  UNL     1      24.444  13.319  12.975  1.00  0.00    -0.072 N
ATOM     27  H62 UNL     1      24.043  12.443  13.310  1.00  0.00     0.277 HD
ATOM     28  H61 UNL     1      24.619  13.780  13.868  1.00  0.00     0.277 HD
BRANCH  26  29
HETATM   29  C11 UNL     1      23.479  14.054  12.206  1.00  0.00     0.259 C
BRANCH  29  30
HETATM   30  C12 UNL     1      22.055  13.664  12.496  1.00  0.00     0.257 C
BRANCH  30  31
HETATM   31  N7  UNL     1      21.120  14.718  12.165  1.00  0.00    -0.078 N
ATOM     32  H73 UNL     1      20.692  14.558  11.253  1.00  0.00     0.274 HD
ATOM     33  H72 UNL     1      20.284  14.665  12.748  1.00  0.00     0.274 HD
ATOM     34  H71 UNL     1      21.546  15.643  12.216  1.00  0.00     0.274 HD
ENDBRANCH  30  31
ENDBRANCH  29  30
ENDBRANCH  26  29
ENDBRANCH  25  26
ENDBRANCH  24  25
ENDBRANCH  22  24
ENDBRANCH  10  22
BRANCH  13  35
HETATM   35  N9  UNL     1      26.876  15.210  18.254  1.00  0.00    -0.234 N
ATOM     36  H92 UNL     1      26.313  16.033  18.469  1.00  0.00     0.174 HD
ATOM     37  H91 UNL     1      26.956  14.454  18.934  1.00  0.00     0.174 HD
ENDBRANCH  13  35
ENDBRANCH   3   5
TORSDOF 10
ENDMDL