MODEL 3
REMARK VINA RESULT: -6.890957198      6.150      8.635
REMARK  10 active torsions:
REMARK  status: ('A' for Active; 'I' for Inactive)
REMARK    1  A    between atoms: C2_2  and  C3_3
REMARK    2  A    between atoms: C3_3  and  S1_4
REMARK    3  A    between atoms: S1_4  and  C4_5
REMARK    4  A    between atoms: C4_5  and  C5_6
REMARK    5  A    between atoms: C6_10  and  C7_11
REMARK    6  A    between atoms: C7_11  and  O1_12
REMARK    7  A    between atoms: C8_15  and  O3_16
REMARK    8  A    between atoms: O3_16  and  C9_17
REMARK    9  A    between atoms: C11_20  and  C13_22
REMARK   10  A    between atoms: C13_22  and  O5_23
ROOT
HETATM    1  C5  UNL     1      30.517  14.134   7.991  1.00  0.00     0.161 C
HETATM    2  N1  UNL     1      30.088  15.196   7.069  1.00  0.00    -0.119 NA
HETATM    3  N2  UNL     1      31.117  15.422   6.127  1.00  0.00    -0.037 NA
HETATM    4  N3  UNL     1      31.263  14.345   5.249  1.00  0.00    -0.096 NA
HETATM    5  C6  UNL     1      32.250  13.383   5.707  1.00  0.00     0.258 C
HETATM    6  O2  UNL     1      31.840  12.638   6.781  1.00  0.00    -0.335 OA
HETATM    7  C8  UNL     1      30.522  12.869   7.178  1.00  0.00     0.284 C
ENDROOT
BRANCH   7   8
HETATM    8  O3  UNL     1      30.002  11.766   7.808  1.00  0.00    -0.349 OA
BRANCH   8   9
HETATM    9  C9  UNL     1      30.148  10.592   7.077  1.00  0.00     0.184 C
HETATM   10  C10 UNL     1      29.419  10.606   5.750  1.00  0.00     0.204 C
HETATM   11  O4  UNL     1      28.229  10.448   6.499  1.00  0.00    -0.373 OA
HETATM   12  C11 UNL     1      28.988   9.633   7.342  1.00  0.00     0.106 C
HETATM   13  C12 UNL     1      29.165   8.283   6.694  1.00  0.00     0.051 C
BRANCH  12  14
HETATM   14  C13 UNL     1      28.533   9.543   8.758  1.00  0.00     0.204 C
BRANCH  14  15
HETATM   15  O5  UNL     1      27.279   8.906   8.771  1.00  0.00    -0.398 OA
ATOM     16  H5  UNL     1      27.372   8.087   9.244  1.00  0.00     0.209 HD
ENDBRANCH  14  15
ENDBRANCH  12  14
ENDBRANCH   8   9
ENDBRANCH   7   8
BRANCH   1  17
HETATM   17  C4  UNL     1      29.622  14.083   9.186  1.00  0.00     0.101 C
BRANCH  17  18
HETATM   18  S1  UNL     1      29.845  15.530  10.234  1.00  0.00    -0.167 SA
BRANCH  18  19
HETATM   19  C3  UNL     1      31.580  15.667  10.758  1.00  0.00     0.073 C
BRANCH  19  20
HETATM   20  C2  UNL     1      32.070  17.096  10.492  1.00  0.00     0.006 C
HETATM   21  C1  UNL     1      32.538  17.173   9.072  1.00  0.00     0.006 C
ENDBRANCH  19  20
ENDBRANCH  18  19
ENDBRANCH  17  18
ENDBRANCH   1  17
BRANCH   5  22
HETATM   22  C7  UNL     1      32.615  12.515   4.508  1.00  0.00     0.214 C
BRANCH  22  23
HETATM   23  O1  UNL     1      31.602  12.576   3.567  1.00  0.00    -0.397 OA
ATOM     24  H1  UNL     1      31.978  12.709   2.704  1.00  0.00     0.209 HD
ENDBRANCH  22  23
ENDBRANCH   5  22
TORSDOF 10
ENDMDL