MODEL 3
REMARK VINA RESULT: -8.035483816      1.173      1.575
REMARK  8 active torsions:
REMARK  status: ('A' for Active; 'I' for Inactive)
REMARK    1  A    between atoms: C4_5  and  N2_6
REMARK    2  A    between atoms: N2_6  and  C5_8
REMARK    3  A    between atoms: C5_8  and  C6_9
REMARK    4  A    between atoms: C6_9  and  N3_10
REMARK    5  A    between atoms: N3_10  and  C7_13
REMARK    6  A    between atoms: C7_13  and  C8_14
REMARK    7  A    between atoms: C8_14  and  N4_15
REMARK    8  A    between atoms: N4_15  and  C9_17
ROOT
HETATM    1  C7  UNL     1      32.310  17.431  10.151  1.00  0.00     0.252 C
ENDROOT
BRANCH   1   2
HETATM    2  N3  UNL     1      31.845  16.079  10.058  1.00  0.00    -0.072 N
ATOM      3  H32 UNL     1      30.826  16.044  10.111  1.00  0.00     0.277 HD
ATOM      4  H31 UNL     1      32.077  15.558  10.904  1.00  0.00     0.277 HD
BRANCH   2   5
HETATM    5  C6  UNL     1      32.323  15.380   8.876  1.00  0.00     0.251 C
BRANCH   5   6
HETATM    6  C5  UNL     1      33.076  14.170   9.380  1.00  0.00     0.147 C
BRANCH   6   7
HETATM    7  N2  UNL     1      34.460  14.311   9.060  1.00  0.00    -0.388 N
ATOM      8  H2  UNL     1      35.092  14.742   9.735  1.00  0.00     0.159 HD
BRANCH   7   9
HETATM    9  C4  UNL     1      34.966  13.857   7.815  1.00  0.00     0.028 A
HETATM   10  C3  UNL     1      34.281  12.954   7.031  1.00  0.00     0.031 A
HETATM   11  C2  UNL     1      34.783  12.526   5.814  1.00  0.00     0.029 A
HETATM   12  C1  UNL     1      35.987  12.978   5.325  1.00  0.00     0.046 A
HETATM   13  N1  UNL     1      36.488  12.523   4.068  1.00  0.00    -0.102 NA
HETATM   14  C16 UNL     1      36.682  13.883   6.106  1.00  0.00     0.029 A
HETATM   15  C15 UNL     1      36.186  14.313   7.318  1.00  0.00     0.031 A
ENDBRANCH   7   9
ENDBRANCH   6   7
ENDBRANCH   5   6
ENDBRANCH   2   5
ENDBRANCH   1   2
BRANCH   1  16
HETATM   16  C8  UNL     1      32.714  17.655  11.615  1.00  0.00     0.150 C
BRANCH  16  17
HETATM   17  N4  UNL     1      32.542  16.394  12.305  1.00  0.00    -0.355 N
ATOM     18  H4  UNL     1      32.973  15.546  11.937  1.00  0.00     0.163 HD
BRANCH  17  19
HETATM   19  C9  UNL     1      31.749  16.345  13.530  1.00  0.00     0.215 A
HETATM   20  N5  UNL     1      30.834  15.498  13.777  1.00  0.00    -0.344 N
HETATM   21  C10 UNL     1      30.223  15.688  15.057  1.00  0.00     0.071 A
ATOM     22  H5  UNL     1      30.563  14.759  13.129  1.00  0.00     0.164 HD
HETATM   23  C11 UNL     1      30.366  14.465  15.914  1.00  0.00     0.055 C
HETATM   24  C13 UNL     1      28.792  16.097  14.804  1.00  0.00     0.167 C
HETATM   25  C14 UNL     1      31.008  16.854  15.604  1.00  0.00     0.211 A
HETATM   26  C12 UNL     1      29.139  13.724  16.229  1.00  0.00     0.138 C
HETATM   27  N6  UNL     1      27.918  14.462  16.231  1.00  0.00    -0.340 N
HETATM   28  N7  UNL     1      28.035  15.805  15.976  1.00  0.00    -0.143 NA
ATOM     29  H6  UNL     1      27.016  14.021  16.412  1.00  0.00     0.175 HD
HETATM   30  O1  UNL     1      31.888  17.211  14.580  1.00  0.00    -0.320 OA
ENDBRANCH  17  19
ENDBRANCH  16  17
ENDBRANCH   1  16
TORSDOF 8
ENDMDL