MODEL 3
REMARK VINA RESULT: -7.878762752      2.399      2.885
REMARK  9 active torsions:
REMARK  status: ('A' for Active; 'I' for Inactive)
REMARK    1  A    between atoms: N4_10  and  C3_12
REMARK    2  A    between atoms: C4_16  and  N6_17
REMARK    3  A    between atoms: C5_21  and  C6_22
REMARK    4  A    between atoms: C6_22  and  C7_23
REMARK    5  A    between atoms: C7_23  and  C8_24
REMARK    6  A    between atoms: C8_24  and  C9_25
REMARK    7  A    between atoms: C9_25  and  C10_26
REMARK    8  A    between atoms: C10_26  and  C11_27
REMARK    9  A    between atoms: C11_27  and  N7_28
ROOT
HETATM    1  C3  UNL     1      32.062  15.627  12.146  1.00  0.00     0.491 C
HETATM    2  N5  UNL     1      30.878  15.821  11.345  1.00  0.00     0.003 N
ATOM      3  H51 UNL     1      30.426  16.721  11.505  1.00  0.00     0.284 HD
ATOM      4  H52 UNL     1      30.095  15.233  11.632  1.00  0.00     0.284 HD
HETATM    5  C4  UNL     1      31.282  15.612   9.942  1.00  0.00     0.418 C
HETATM    6  C5  UNL     1      32.540  14.888  10.092  1.00  0.00     0.271 C
HETATM    7  N10 UNL     1      33.166  15.528  11.243  1.00  0.00    -0.017 N
ATOM      8 1H10 UNL     1      33.989  15.052  11.611  1.00  0.00     0.282 HD
ATOM      9 2H10 UNL     1      33.648  16.404  11.045  1.00  0.00     0.282 HD
ENDROOT
BRANCH   6  10
HETATM   10  C6  UNL     1      33.467  14.669   8.976  1.00  0.00     0.009 C
BRANCH  10  11
HETATM   11  C7  UNL     1      33.426  13.506   8.127  1.00  0.00    -0.006 C
BRANCH  11  12
HETATM   12  C8  UNL     1      32.578  13.239   6.986  1.00  0.00    -0.027 C
BRANCH  12  13
HETATM   13  C9  UNL     1      31.455  12.274   7.027  1.00  0.00     0.029 C
BRANCH  13  14
HETATM   14  C10 UNL     1      31.156  11.517   8.255  1.00  0.00     0.025 C
BRANCH  14  15
HETATM   15  C11 UNL     1      31.089  10.006   8.007  1.00  0.00     0.150 C
BRANCH  15  16
HETATM   16  N7  UNL     1      29.763   9.502   8.212  1.00  0.00    -0.287 N
HETATM   17  C12 UNL     1      29.436   8.205   8.268  1.00  0.00     0.201 A
HETATM   18  N8  UNL     1      28.106   8.099   8.458  1.00  0.00    -0.346 N
HETATM   19  C13 UNL     1      27.625   9.349   8.516  1.00  0.00     0.198 A
ATOM     20  H8  UNL     1      27.569   7.237   8.541  1.00  0.00     0.167 HD
HETATM   21  N9  UNL     1      28.649  10.172   8.365  1.00  0.00    -0.293 N
ATOM     22  H9  UNL     1      28.580  11.190   8.367  1.00  0.00     0.188 HD
ENDBRANCH  15  16
ENDBRANCH  14  15
ENDBRANCH  13  14
ENDBRANCH  12  13
ENDBRANCH  11  12
ENDBRANCH  10  11
ENDBRANCH   6  10
BRANCH   5  23
HETATM   23  N6  UNL     1      30.206  14.761   9.388  1.00  0.00    -0.048 N
ATOM     24  H63 UNL     1      29.694  15.182   8.613  1.00  0.00     0.276 HD
ATOM     25  H62 UNL     1      30.538  13.948   8.870  1.00  0.00     0.276 HD
ATOM     26  H61 UNL     1      29.632  14.537  10.201  1.00  0.00     0.276 HD
ENDBRANCH   5  23
BRANCH   1  27
HETATM   27  N4  UNL     1      32.154  16.748  13.051  1.00  0.00    -0.305 N
HETATM   28  C2  UNL     1      31.420  16.719  14.109  1.00  0.00     0.245 A
HETATM   29  N3  UNL     1      31.357  17.668  15.083  1.00  0.00    -0.262 N
HETATM   30  O1  UNL     1      30.586  15.798  14.490  1.00  0.00    -0.244 OA
HETATM   31  N2  UNL     1      30.499  17.291  16.004  1.00  0.00    -0.262 N
ATOM     32  H3  UNL     1      31.893  18.536  15.095  1.00  0.00     0.190 HD
HETATM   33  C1  UNL     1      30.010  16.100  15.621  1.00  0.00     0.239 A
ATOM     34  H2  UNL     1      30.250  17.805  16.849  1.00  0.00     0.190 HD
HETATM   35  N1  UNL     1      29.137  15.353  16.220  1.00  0.00    -0.364 N
ATOM     36  H12 UNL     1      28.687  15.589  17.104  1.00  0.00     0.159 HD
ATOM     37  H11 UNL     1      28.766  14.448  15.928  1.00  0.00     0.159 HD
ATOM     38  H4  UNL     1      32.775  17.534  12.859  1.00  0.00     0.166 HD
ENDBRANCH   1  27
TORSDOF 9
ENDMDL