MODEL 4
REMARK VINA RESULT: -6.134787352      3.668      6.829
REMARK  11 active torsions:
REMARK  status: ('A' for Active; 'I' for Inactive)
REMARK    1  A    between atoms: C2_2  and  N1_3
REMARK    2  A    between atoms: N1_3  and  C3_5
REMARK    3  A    between atoms: C4_6  and  O1_7
REMARK    4  A    between atoms: O1_7  and  C5_8
REMARK    5  A    between atoms: C7_10  and  O2_11
REMARK    6  A    between atoms: C8_13  and  C9_14
REMARK    7  A    between atoms: C9_14  and  O3_15
REMARK    8  A    between atoms: C10_21  and  C11_22
REMARK    9  A    between atoms: C11_22  and  S1_23
REMARK   10  A    between atoms: S1_23  and  C12_24
REMARK   11  A    between atoms: C14_26  and  O5_27
ROOT
HETATM    1  C3  UNL     1      33.010  12.494   7.082  1.00  0.00     0.164 C
HETATM    2  C4  UNL     1      32.094  12.855   8.233  1.00  0.00     0.348 C
HETATM    3  N2  UNL     1      30.833  13.231   7.622  1.00  0.00    -0.039 N
ATOM      4  H21 UNL     1      30.764  14.226   7.408  1.00  0.00     0.280 HD
ATOM      5  H22 UNL     1      30.041  13.188   8.263  1.00  0.00     0.280 HD
HETATM    6  C10 UNL     1      30.685  12.378   6.462  1.00  0.00     0.228 C
HETATM    7  C14 UNL     1      32.074  12.044   5.995  1.00  0.00     0.176 C
ENDROOT
BRANCH   2   8
HETATM    8  O1  UNL     1      32.691  13.828   8.981  1.00  0.00    -0.327 OA
BRANCH   8   9
HETATM    9  C5  UNL     1      31.856  14.820   9.427  1.00  0.00     0.265 C
HETATM   10  C6  UNL     1      32.421  16.151   9.036  1.00  0.00     0.095 C
HETATM   11  C7  UNL     1      32.525  16.895  10.346  1.00  0.00     0.154 C
HETATM   12  C8  UNL     1      31.621  16.097  11.239  1.00  0.00     0.177 C
HETATM   13  O4  UNL     1      31.801  14.785  10.813  1.00  0.00    -0.351 OA
BRANCH  11  14
HETATM   14  O2  UNL     1      32.122  18.221  10.231  1.00  0.00    -0.393 OA
ATOM     15  H2  UNL     1      31.182  18.321  10.333  1.00  0.00     0.210 HD
ENDBRANCH  11  14
BRANCH  12  16
HETATM   16  C9  UNL     1      31.996  16.275  12.694  1.00  0.00     0.198 C
BRANCH  16  17
HETATM   17  O3  UNL     1      32.195  17.623  12.980  1.00  0.00    -0.398 OA
ATOM     18  H3  UNL     1      31.677  17.880  13.733  1.00  0.00     0.209 HD
ENDBRANCH  16  17
ENDBRANCH  12  16
ENDBRANCH   8   9
ENDBRANCH   2   8
BRANCH   1  19
HETATM   19  N1  UNL     1      33.923  13.509   6.764  1.00  0.00    -0.411 N
ATOM     20  H1  UNL     1      33.587  14.462   6.629  1.00  0.00     0.153 HD
BRANCH  19  21
HETATM   21  C2  UNL     1      35.289  13.233   6.629  1.00  0.00     0.110 C
HETATM   22  C1  UNL     1      36.051  14.310   7.424  1.00  0.00     0.026 C
ENDBRANCH  19  21
ENDBRANCH   1  19
BRANCH   7  23
HETATM   23  O5  UNL     1      32.377  12.508   4.736  1.00  0.00    -0.391 OA
ATOM     24  H5  UNL     1      31.938  12.057   4.024  1.00  0.00     0.210 HD
ENDBRANCH   7  23
BRANCH   6  25
HETATM   25  C11 UNL     1      29.939  11.106   6.790  1.00  0.00     0.109 C
BRANCH  25  26
HETATM   26  S1  UNL     1      30.786   9.632   6.224  1.00  0.00    -0.167 SA
BRANCH  26  27
HETATM   27  C12 UNL     1      31.311   8.693   7.684  1.00  0.00     0.069 C
HETATM   28  C13 UNL     1      30.840   9.355   8.963  1.00  0.00     0.016 C
ENDBRANCH  26  27
ENDBRANCH  25  26
ENDBRANCH   6  25
TORSDOF 11
ENDMDL