MODEL 2
REMARK VINA RESULT: -8.524724761      1.472      1.622
REMARK  10 active torsions:
REMARK  status: ('A' for Active; 'I' for Inactive)
REMARK    1  A    between atoms: C3_3  and  C4_4
REMARK    2  A    between atoms: C4_4  and  C5_5
REMARK    3  A    between atoms: C5_5  and  C6_6
REMARK    4  A    between atoms: C6_6  and  N1_7
REMARK    5  A    between atoms: N1_7  and  C7_9
REMARK    6  A    between atoms: C9_13  and  N3_14
REMARK    7  A    between atoms: C10_19  and  N5_20
REMARK    8  A    between atoms: N7_26  and  C12_27
REMARK    9  A    between atoms: C13_30  and  C14_31
REMARK   10  A    between atoms: C14_31  and  O3_32
ROOT
HETATM    1  C1  UNL     1      34.863  13.760   7.953  1.00  0.00     0.012 C
HETATM    2  C2  UNL     1      34.111  14.171   8.798  1.00  0.00    -0.117 C
HETATM    3  C3  UNL     1      33.160  14.682   9.827  1.00  0.00     0.093 C
ENDROOT
BRANCH   3   4
HETATM    4  C4  UNL     1      32.703  16.047   9.402  1.00  0.00     0.014 C
BRANCH   4   5
HETATM    5  C5  UNL     1      32.171  16.821  10.578  1.00  0.00     0.021 C
BRANCH   5   6
HETATM    6  C6  UNL     1      31.380  15.914  11.471  1.00  0.00     0.138 C
BRANCH   6   7
HETATM    7  N1  UNL     1      31.438  16.270  12.877  1.00  0.00    -0.226 N
ATOM      8  H1  UNL     1      32.222  16.816  13.234  1.00  0.00     0.177 HD
BRANCH   7   9
HETATM    9  C7  UNL     1      30.403  15.857  13.753  1.00  0.00     0.686 A
HETATM   10  N2  UNL     1      29.294  15.179  13.423  1.00  0.00    -0.184 N
HETATM   11  C8  UNL     1      28.561  14.971  14.502  1.00  0.00     0.138 A
ATOM     12  H2  UNL     1      29.052  14.870  12.480  1.00  0.00     0.184 HD
HETATM   13  C9  UNL     1      27.369  14.353  14.747  1.00  0.00     0.146 A
HETATM   14  C11 UNL     1      29.238  15.545  15.571  1.00  0.00     0.175 A
HETATM   15  N4  UNL     1      26.899  14.324  16.009  1.00  0.00    -0.175 N
HETATM   16  C10 UNL     1      27.587  14.889  17.006  1.00  0.00     0.679 A
ATOM     17  H4  UNL     1      26.010  13.866  16.205  1.00  0.00     0.186 HD
HETATM   18  N6  UNL     1      28.751  15.502  16.812  1.00  0.00    -0.173 N
ATOM     19  H6  UNL     1      29.257  15.926  17.589  1.00  0.00     0.186 HD
HETATM   20  N7  UNL     1      30.370  16.084  15.079  1.00  0.00    -0.112 N
BRANCH  13  21
HETATM   21  N3  UNL     1      26.730  13.817  13.768  1.00  0.00    -0.383 N
ATOM     22  H32 UNL     1      26.165  14.369  13.122  1.00  0.00     0.157 HD
ATOM     23  H31 UNL     1      26.787  12.807  13.631  1.00  0.00     0.157 HD
ENDBRANCH  13  21
BRANCH  16  24
HETATM   24  N5  UNL     1      27.098  14.841  18.217  1.00  0.00    -0.234 N
ATOM     25  H52 UNL     1      27.095  13.947  18.708  1.00  0.00     0.174 HD
ATOM     26  H51 UNL     1      26.733  15.696  18.636  1.00  0.00     0.174 HD
ENDBRANCH  16  24
BRANCH  20  27
HETATM   27  C12 UNL     1      31.378  16.777  15.786  1.00  0.00     0.431 C
HETATM   28  O1  UNL     1      31.914  17.880  15.171  1.00  0.00    -0.182 OA
HETATM   29  O2  UNL     1      32.543  18.518  16.116  1.00  0.00    -0.201 OA
HETATM   30  C13 UNL     1      32.028  18.115  17.329  1.00  0.00     0.325 C
HETATM   31  O4  UNL     1      30.901  17.334  16.996  1.00  0.00    -0.306 OA
BRANCH  30  32
HETATM   32  C14 UNL     1      31.640  19.266  18.228  1.00  0.00     0.228 C
BRANCH  32  33
HETATM   33  O3  UNL     1      32.731  19.640  18.969  1.00  0.00    -0.396 OA
ATOM     34  H3  UNL     1      33.391  19.999  18.388  1.00  0.00     0.209 HD
ENDBRANCH  32  33
ENDBRANCH  30  32
ENDBRANCH  20  27
ENDBRANCH   7   9
ENDBRANCH   6   7
ENDBRANCH   5   6
ENDBRANCH   4   5
ENDBRANCH   3   4
TORSDOF 10
ENDMDL