MODEL 2
REMARK VINA RESULT: -7.543632686      1.676      2.194
REMARK  13 active torsions:
REMARK  status: ('A' for Active; 'I' for Inactive)
REMARK    1  A    between atoms: N1_1  and  N2_4
REMARK    2  A    between atoms: N2_4  and  N3_5
REMARK    3  A    between atoms: N3_5  and  C1_7
REMARK    4  A    between atoms: C4_10  and  C5_11
REMARK    5  A    between atoms: C5_11  and  N4_12
REMARK    6  A    between atoms: C6_17  and  O2_18
REMARK    7  A    between atoms: O2_18  and  C7_19
REMARK    8  A    between atoms: C7_19  and  C8_20
REMARK    9  A    between atoms: C9_22  and  C10_23
REMARK   10  A    between atoms: C10_23  and  O4_24
REMARK   11  A    between atoms: C11_26  and  C12_27
REMARK   12  A    between atoms: C12_27  and  O5_28
REMARK   13  A    between atoms: C13_33  and  N6_34
ROOT
HETATM    1  C7  UNL     1      31.923  16.576  11.884  1.00  0.00     0.207 C
ENDROOT
BRANCH   1   2
HETATM    2  O2  UNL     1      30.681  16.249  12.422  1.00  0.00    -0.356 OA
BRANCH   2   3
HETATM    3  C6  UNL     1      30.784  15.812  13.742  1.00  0.00     0.285 C
HETATM    4  C1  UNL     1      30.609  16.930  14.722  1.00  0.00     0.169 C
HETATM    5  C2  UNL     1      29.519  16.671  15.730  1.00  0.00     0.035 C
HETATM    6  C3  UNL     1      28.329  16.173  14.981  1.00  0.00     0.036 C
HETATM    7  C4  UNL     1      28.685  14.929  14.261  1.00  0.00     0.150 C
HETATM    8  O1  UNL     1      29.963  14.741  13.902  1.00  0.00    -0.352 OA
BRANCH   4   9
HETATM    9  N3  UNL     1      31.814  17.219  15.476  1.00  0.00    -0.243 N
ATOM     10  H3  UNL     1      32.693  16.762  15.235  1.00  0.00     0.197 HD
BRANCH   9  11
HETATM   11  N2  UNL     1      31.768  18.023  16.411  1.00  0.00    -0.248 NA
BRANCH  11  12
HETATM   12  N1  UNL     1      31.853  18.799  17.351  1.00  0.00    -0.261 N
ATOM     13  H12 UNL     1      32.641  19.162  16.815  1.00  0.00     0.193 HD
ATOM     14  H11 UNL     1      31.836  19.395  18.179  1.00  0.00     0.193 HD
ENDBRANCH  11  12
ENDBRANCH   9  11
ENDBRANCH   4   9
BRANCH   7  15
HETATM   15  C5  UNL     1      28.236  13.690  15.052  1.00  0.00     0.261 C
BRANCH  15  16
HETATM   16  N4  UNL     1      29.080  13.431  16.177  1.00  0.00    -0.077 N
ATOM     17  H43 UNL     1      29.644  12.594  16.031  1.00  0.00     0.274 HD
ATOM     18  H42 UNL     1      29.829  14.122  16.242  1.00  0.00     0.274 HD
ATOM     19  H41 UNL     1      28.554  13.374  17.049  1.00  0.00     0.274 HD
ENDBRANCH  15  16
ENDBRANCH   7  15
ENDBRANCH   2   3
ENDBRANCH   1   2
BRANCH   1  20
HETATM   20  C8  UNL     1      32.399  15.523  10.904  1.00  0.00     0.204 C
HETATM   21  O3  UNL     1      31.420  14.627  10.655  1.00  0.00    -0.370 OA
HETATM   22  C9  UNL     1      30.814  14.586   9.461  1.00  0.00     0.178 C
HETATM   23  C11 UNL     1      31.506  15.206   8.305  1.00  0.00     0.242 C
HETATM   24  N5  UNL     1      32.948  15.183   8.599  1.00  0.00    -0.035 N
HETATM   25  C13 UNL     1      33.102  16.097   9.718  1.00  0.00     0.411 C
ATOM     26  H52 UNL     1      33.325  14.250   8.767  1.00  0.00     0.280 HD
ATOM     27  H51 UNL     1      33.541  15.402   7.799  1.00  0.00     0.280 HD
BRANCH  22  28
HETATM   28  C10 UNL     1      29.397  15.159   9.602  1.00  0.00     0.198 C
BRANCH  28  29
HETATM   29  O4  UNL     1      28.874  14.825  10.850  1.00  0.00    -0.398 OA
ATOM     30  H4  UNL     1      28.130  15.382  11.047  1.00  0.00     0.209 HD
ENDBRANCH  28  29
ENDBRANCH  22  28
BRANCH  23  31
HETATM   31  C12 UNL     1      31.242  14.506   6.990  1.00  0.00     0.199 C
BRANCH  31  32
HETATM   32  O5  UNL     1      30.810  15.480   6.089  1.00  0.00    -0.399 OA
ATOM     33  H5  UNL     1      30.055  15.906   6.480  1.00  0.00     0.209 HD
ENDBRANCH  31  32
ENDBRANCH  23  31
BRANCH  25  34
HETATM   34  N6  UNL     1      32.650  17.382   9.303  1.00  0.00    -0.048 N
ATOM     35  H63 UNL     1      33.168  18.111   9.795  1.00  0.00     0.276 HD
ATOM     36  H62 UNL     1      32.948  17.565   8.345  1.00  0.00     0.276 HD
ATOM     37  H61 UNL     1      31.648  17.543   9.395  1.00  0.00     0.276 HD
ENDBRANCH  25  34
ENDBRANCH   1  20
TORSDOF 13
ENDMDL