MODEL 5
REMARK VINA RESULT: -6.012726042      3.062      6.664
REMARK  3 active torsions:
REMARK  status: ('A' for Active; 'I' for Inactive)
REMARK    1  A    between atoms: S1_2  and  C2_5
REMARK    2  A    between atoms: C7_10  and  N1_11
REMARK    3  A    between atoms: N1_11  and  C8_13
ROOT
HETATM    1  C8  UNL     1      10.676   4.712   8.191  1.00  0.00     0.054 A
HETATM    2  C9  UNL     1      11.588   5.203   7.268  1.00  0.00     0.001 A
HETATM    3  C10 UNL     1      11.454   4.876   5.958  1.00  0.00     0.052 A
HETATM    4  N2  UNL     1      10.457   4.075   5.470  1.00  0.00    -0.354 N
ATOM      5  H2  UNL     1      10.400   3.858   4.474  1.00  0.00     0.166 HD
HETATM    6  C11 UNL     1       9.569   3.588   6.323  1.00  0.00     0.056 A
HETATM    7  C12 UNL     1       9.657   3.889   7.658  1.00  0.00     0.019 A
HETATM    8  C13 UNL     1       8.719   3.370   8.530  1.00  0.00     0.017 A
HETATM    9  C14 UNL     1       7.689   2.555   8.102  1.00  0.00     0.013 A
HETATM   10  C15 UNL     1       7.611   2.262   6.754  1.00  0.00    -0.024 A
HETATM   11  C16 UNL     1       6.573   1.442   6.330  1.00  0.00     0.012 A
HETATM   12  C17 UNL     1       6.455   1.120   4.987  1.00  0.00     0.001 A
HETATM   13  C18 UNL     1       7.373   1.619   4.087  1.00  0.00     0.001 A
HETATM   14  C19 UNL     1       8.402   2.434   4.526  1.00  0.00     0.014 A
HETATM   15  C20 UNL     1       8.541   2.768   5.848  1.00  0.00     0.002 A
HETATM   16  C21 UNL     1      12.521   5.548   5.219  1.00  0.00    -0.002 A
HETATM   17  C22 UNL     1      12.806   5.548   3.863  1.00  0.00     0.014 A
HETATM   18  C23 UNL     1      13.866   6.286   3.415  1.00  0.00     0.001 A
HETATM   19  C24 UNL     1      14.648   7.021   4.272  1.00  0.00     0.001 A
HETATM   20  C25 UNL     1      14.372   7.027   5.623  1.00  0.00     0.008 A
HETATM   21  C26 UNL     1      13.307   6.285   6.083  1.00  0.00    -0.041 A
HETATM   22  C27 UNL     1      12.782   6.080   7.464  1.00  0.00     0.082 A
ENDROOT
BRANCH   1  23
HETATM   23  N1  UNL     1      10.661   4.934   9.435  1.00  0.00    -0.354 N
ATOM     24  H1  UNL     1      10.049   5.714   9.675  1.00  0.00     0.166 HD
BRANCH  23  25
HETATM   25  C7  UNL     1      11.260   4.393  10.545  1.00  0.00     0.054 A
HETATM   26  C2  UNL     1      10.594   4.385  11.770  1.00  0.00     0.085 A
HETATM   27  C3  UNL     1      11.173   3.829  12.887  1.00  0.00     0.026 A
HETATM   28  C4  UNL     1      12.426   3.273  12.789  1.00  0.00     0.002 A
HETATM   29  C5  UNL     1      13.127   3.254  11.599  1.00  0.00     0.002 A
HETATM   30  C6  UNL     1      12.536   3.811  10.501  1.00  0.00     0.031 A
BRANCH  26  31
HETATM   31  S1  UNL     1       8.977   5.075  11.911  1.00  0.00     0.174 S
HETATM   32  C1  UNL     1       7.781   3.762  11.631  1.00  0.00     0.167 C
HETATM   33  O1  UNL     1       8.783   6.084  10.825  1.00  0.00    -0.223 OA
HETATM   34  O2  UNL     1       8.689   5.613  13.258  1.00  0.00    -0.223 OA
ENDBRANCH  26  31
ENDBRANCH  23  25
ENDBRANCH   1  23
TORSDOF 3
ENDMDL