MODEL 1
REMARK VINA RESULT: 9.400591200      0.000      0.000
REMARK  6 active torsions:
REMARK  status: ('A' for Active; 'I' for Inactive)
REMARK    1  A    between atoms: C7_7  and  C8_8
REMARK    2  A    between atoms: C10_10  and  C11_11
REMARK    3  A    between atoms: C18_22  and  C19_23
REMARK    4  A    between atoms: C20_24  and  C21_25
REMARK    5  A    between atoms: C22_26  and  C23_27
REMARK    6  A    between atoms: N3_30  and  O1_31
ROOT
HETATM    1  C8  UNL     1      11.079   6.377   9.495  1.00  0.00     0.018 A
HETATM    2  C9  UNL     1      10.166   5.594   8.867  1.00  0.00     0.037 A
HETATM    3  C10 UNL     1      10.398   5.232   7.579  1.00  0.00     0.035 A
HETATM    4  C18 UNL     1      11.551   5.690   7.005  1.00  0.00     0.073 A
HETATM    5  S1  UNL     1      12.270   6.593   8.240  1.00  0.00    -0.079 SA
ENDROOT
BRANCH   4   6
HETATM    6  C19 UNL     1      12.023   5.440   5.640  1.00  0.00    -0.044 C
HETATM    7  C20 UNL     1      12.424   5.236   4.524  1.00  0.00    -0.009 C
BRANCH   7   8
HETATM    8  C21 UNL     1      12.918   4.997   3.221  1.00  0.00    -0.009 C
HETATM    9  C22 UNL     1      13.356   4.781   2.116  1.00  0.00    -0.053 C
BRANCH   9  10
HETATM   10  C23 UNL     1      13.899   4.515   0.812  1.00  0.00     0.021 A
HETATM   11  C24 UNL     1      13.323   3.620  -0.071  1.00  0.00     0.040 A
HETATM   12  C25 UNL     1      13.861   3.382  -1.315  1.00  0.00     0.124 A
HETATM   13  N3  UNL     1      14.976   4.018  -1.721  1.00  0.00    -0.247 N
HETATM   14  C26 UNL     1      15.561   4.895  -0.887  1.00  0.00     0.124 A
HETATM   15  C27 UNL     1      15.046   5.155   0.368  1.00  0.00     0.040 A
BRANCH  13  16
HETATM   16  O1  UNL     1      15.516   3.774  -2.981  1.00  0.00    -0.284 OA
ATOM     17  H1  UNL     1      16.451   3.646  -3.093  1.00  0.00     0.245 HD
ENDBRANCH  13  16
ENDBRANCH   9  10
ENDBRANCH   7   8
ENDBRANCH   4   6
BRANCH   3  18
HETATM   18  C11 UNL     1       9.454   4.371   6.792  1.00  0.00     0.118 A
HETATM   19  N1  UNL     1       8.120   4.470   6.771  1.00  0.00    -0.340 N
HETATM   20  C12 UNL     1       7.594   3.541   5.959  1.00  0.00     0.060 A
ATOM     21  H1  UNL     1       7.579   5.156   7.298  1.00  0.00     0.167 HD
HETATM   22  C13 UNL     1       6.288   3.232   5.600  1.00  0.00     0.032 A
HETATM   23  C17 UNL     1       8.646   2.820   5.443  1.00  0.00     0.060 A
HETATM   24  C14 UNL     1       6.055   2.196   4.722  1.00  0.00     0.002 A
HETATM   25  C15 UNL     1       7.114   1.469   4.202  1.00  0.00     0.002 A
HETATM   26  C16 UNL     1       8.421   1.781   4.564  1.00  0.00     0.032 A
HETATM   27  N2  UNL     1       9.750   3.354   5.972  1.00  0.00    -0.340 N
ATOM     28  H2  UNL     1      10.696   3.029   5.776  1.00  0.00     0.167 HD
ENDBRANCH   3  18
BRANCH   1  29
HETATM   29  C7  UNL     1      11.201   6.927  10.836  1.00  0.00    -0.013 A
HETATM   30  C2  UNL     1      10.322   6.797  11.840  1.00  0.00    -0.050 A
HETATM   31  C1  UNL     1       9.027   6.137  11.658  1.00  0.00     0.049 C
HETATM   32  C3  UNL     1      10.549   7.316  13.120  1.00  0.00     0.007 A
HETATM   33  C4  UNL     1      11.707   7.986  13.377  1.00  0.00     0.001 A
HETATM   34  C5  UNL     1      12.635   8.142  12.376  1.00  0.00     0.001 A
HETATM   35  C6  UNL     1      12.384   7.622  11.129  1.00  0.00     0.013 A
ENDBRANCH   1  29
TORSDOF 6
ENDMDL