MODEL 2
REMARK VINA RESULT: 6.925685257      3.645      7.374
REMARK  3 active torsions:
REMARK  status: ('A' for Active; 'I' for Inactive)
REMARK       I    between atoms: C2_2  and  N1_4
REMARK    1  A    between atoms: N1_4  and  C3_6
REMARK    2  A    between atoms: C6_9  and  C7_10
REMARK    3  A    between atoms: C22_29  and  C23_30
ROOT
HETATM    1  C3  UNL     1      11.401   4.674  10.279  1.00  0.00     0.144 A
HETATM    2  C4  UNL     1      12.569   4.459   9.534  1.00  0.00     0.037 A
HETATM    3  C5  UNL     1      12.781   5.101   8.338  1.00  0.00     0.030 A
HETATM    4  C6  UNL     1      13.948   4.891   7.606  1.00  0.00    -0.025 A
HETATM    5  C17 UNL     1      14.876   4.025   8.118  1.00  0.00     0.014 A
HETATM    6  C18 UNL     1      14.698   3.366   9.311  1.00  0.00     0.032 A
HETATM    7  C19 UNL     1      13.520   3.594  10.026  1.00  0.00     0.063 A
HETATM    8  N2  UNL     1      13.326   2.973  11.194  1.00  0.00    -0.190 N
ATOM      9  H2  UNL     1      14.040   2.334  11.543  1.00  0.00     0.184 HD
HETATM   10  C20 UNL     1      12.224   3.170  11.914  1.00  0.00     0.691 A
HETATM   11  N3  UNL     1      11.876   2.582  13.087  1.00  0.00    -0.199 N
ATOM     12  H3  UNL     1      12.419   1.906  13.626  1.00  0.00     0.183 HD
HETATM   13  C21 UNL     1      10.691   3.069  13.383  1.00  0.00     0.137 A
HETATM   14  C22 UNL     1      10.267   3.996  12.371  1.00  0.00     0.085 A
HETATM   15  N4  UNL     1      11.258   4.004  11.494  1.00  0.00    -0.129 N
ENDROOT
BRANCH   4  16
HETATM   16  C7  UNL     1      14.124   5.605   6.324  1.00  0.00    -0.025 A
HETATM   17  C8  UNL     1      15.261   5.451   5.553  1.00  0.00     0.013 A
HETATM   18  C9  UNL     1      15.401   6.120   4.357  1.00  0.00     0.013 A
HETATM   19  C10 UNL     1      14.406   6.966   3.892  1.00  0.00    -0.026 A
HETATM   20  C11 UNL     1      14.548   7.637   2.687  1.00  0.00     0.012 A
HETATM   21  C15 UNL     1      13.272   7.136   4.636  1.00  0.00    -0.025 A
HETATM   22  C12 UNL     1      13.542   8.470   2.251  1.00  0.00     0.001 A
HETATM   23  C13 UNL     1      12.386   8.661   2.979  1.00  0.00     0.001 A
HETATM   24  C14 UNL     1      12.280   7.977   4.174  1.00  0.00     0.012 A
HETATM   25  C16 UNL     1      13.146   6.452   5.844  1.00  0.00     0.024 A
ENDBRANCH   4  16
BRANCH   1  26
HETATM   26  N1  UNL     1      10.506   5.337   9.811  1.00  0.00    -0.312 N
HETATM   27  C2  UNL     1       9.645   5.718   8.879  1.00  0.00     0.219 C
HETATM   28  C1  UNL     1       8.260   5.112   8.665  1.00  0.00     0.117 C
HETATM   29  O1  UNL     1       9.880   6.658   8.038  1.00  0.00    -0.274 OA
ATOM     30  H1  UNL     1      10.284   5.971  10.580  1.00  0.00     0.170 HD
ENDBRANCH   1  26
BRANCH  14  31
HETATM   31  C23 UNL     1       8.974   4.632  12.443  1.00  0.00    -0.007 A
HETATM   32  C24 UNL     1       8.992   6.045  12.534  1.00  0.00     0.014 A
HETATM   33  C25 UNL     1       7.832   6.762  12.449  1.00  0.00     0.001 A
HETATM   34  C26 UNL     1       6.621   6.111  12.272  1.00  0.00     0.000 A
HETATM   35  C27 UNL     1       6.580   4.738  12.180  1.00  0.00     0.001 A
HETATM   36  C28 UNL     1       7.768   4.020  12.267  1.00  0.00     0.014 A
ENDBRANCH  14  31
TORSDOF 3
ENDMDL