MODEL 1
REMARK VINA RESULT: -4.153815632      0.000      0.000
REMARK  2 active torsions:
REMARK  status: ('A' for Active; 'I' for Inactive)
REMARK       I    between atoms: C1_2  and  N1_3
REMARK    1  A    between atoms: C1_2  and  C22_28
REMARK    2  A    between atoms: N1_3  and  N2_5
ROOT
HETATM    1  N2  UNL     1      10.109   5.939   9.498  1.00  0.00    -0.230 N
HETATM    2  C2  UNL     1       9.338   6.852  10.253  1.00  0.00     0.274 A
HETATM    3  O2  UNL     1       9.356   8.127  10.151  1.00  0.00    -0.266 OA
HETATM    4  C3  UNL     1       8.503   6.110  11.184  1.00  0.00     0.043 A
HETATM    5  C4  UNL     1       7.573   6.576  12.127  1.00  0.00     0.018 A
HETATM    6  C5  UNL     1       6.904   5.666  12.888  1.00  0.00     0.001 A
HETATM    7  C6  UNL     1       7.122   4.319  12.744  1.00  0.00     0.001 A
HETATM    8  C7  UNL     1       8.030   3.900  11.821  1.00  0.00     0.011 A
HETATM    9  C8  UNL     1       8.747   4.783  11.012  1.00  0.00    -0.003 A
HETATM   10  C9  UNL     1       9.774   4.613   9.959  1.00  0.00     0.142 A
HETATM   11  C10 UNL     1      11.004   4.032  10.598  1.00  0.00    -0.002 A
HETATM   12  C11 UNL     1      11.192   4.219  11.979  1.00  0.00     0.012 A
HETATM   13  C12 UNL     1      12.286   3.729  12.610  1.00  0.00     0.001 A
HETATM   14  C13 UNL     1      13.237   3.034  11.903  1.00  0.00     0.001 A
HETATM   15  C14 UNL     1      13.068   2.838  10.532  1.00  0.00     0.019 A
HETATM   16  C15 UNL     1      11.960   3.343   9.931  1.00  0.00     0.015 A
HETATM   17  S1  UNL     1      11.751   3.072   8.151  1.00  0.00    -0.089 SA
HETATM   18  C16 UNL     1       9.959   3.077   7.965  1.00  0.00     0.015 A
HETATM   19  C17 UNL     1       9.340   2.372   6.966  1.00  0.00     0.019 A
HETATM   20  C18 UNL     1       7.956   2.372   6.827  1.00  0.00     0.001 A
HETATM   21  C19 UNL     1       7.201   3.087   7.701  1.00  0.00     0.001 A
HETATM   22  C20 UNL     1       7.799   3.804   8.712  1.00  0.00     0.012 A
HETATM   23  C21 UNL     1       9.211   3.803   8.855  1.00  0.00    -0.002 A
ENDROOT
BRANCH   1  24
HETATM   24  N1  UNL     1      11.001   6.359   8.505  1.00  0.00    -0.259 N
HETATM   25  C1  UNL     1      10.685   6.283   7.118  1.00  0.00     0.270 C
HETATM   26  O1  UNL     1       9.564   5.818   6.808  1.00  0.00    -0.266 OA
ATOM     27  H1  UNL     1      11.909   6.732   8.783  1.00  0.00     0.190 HD
BRANCH  25  28
HETATM   28  C22 UNL     1      11.582   6.710   6.070  1.00  0.00     0.033 A
HETATM   29  C23 UNL     1      11.164   7.538   5.044  1.00  0.00     0.017 A
HETATM   30  C24 UNL     1      12.056   7.916   4.072  1.00  0.00     0.001 A
HETATM   31  C25 UNL     1      13.363   7.485   4.095  1.00  0.00     0.000 A
HETATM   32  C26 UNL     1      13.780   6.661   5.115  1.00  0.00     0.001 A
HETATM   33  C27 UNL     1      12.890   6.277   6.094  1.00  0.00     0.017 A
ENDBRANCH  25  28
ENDBRANCH   1  24
TORSDOF 2
ENDMDL