MODEL 2
REMARK VINA RESULT: -8.513278447      1.931      6.860
REMARK  4 active torsions:
REMARK  status: ('A' for Active; 'I' for Inactive)
REMARK    1  A    between atoms: N1_10  and  N2_12
REMARK    2  A    between atoms: N2_12  and  C9_14
REMARK    3  A    between atoms: C9_14  and  O2_15
REMARK    4  A    between atoms: C9_14  and  C10_17
ROOT
HETATM    1  O1  UNL     1      11.138   5.951   4.023  1.00  0.00    -0.287 OA
HETATM    2  C1  UNL     1      11.343   5.377   5.121  1.00  0.00     0.194 A
HETATM    3  C2  UNL     1      12.681   5.316   5.671  1.00  0.00     0.027 A
HETATM    4  C3  UNL     1      13.737   5.881   4.984  1.00  0.00     0.016 A
HETATM    5  C4  UNL     1      15.015   5.818   5.498  1.00  0.00     0.001 A
HETATM    6  C5  UNL     1      15.266   5.199   6.695  1.00  0.00     0.001 A
HETATM    7  C6  UNL     1      14.186   4.618   7.403  1.00  0.00     0.015 A
HETATM    8  C7  UNL     1      12.921   4.693   6.871  1.00  0.00     0.007 A
HETATM    9  C8  UNL     1      11.803   4.061   7.642  1.00  0.00     0.071 A
HETATM   10  N1  UNL     1      12.012   3.588   8.721  1.00  0.00    -0.297 N
ATOM     11  H1  UNL     1      11.101   3.233   9.013  1.00  0.00     0.187 HD
HETATM   12  C20 UNL     1      10.438   4.138   7.047  1.00  0.00     0.018 A
HETATM   13  C21 UNL     1      10.242   4.785   5.823  1.00  0.00     0.028 A
HETATM   14  C22 UNL     1       8.958   4.874   5.283  1.00  0.00     0.017 A
HETATM   15  C23 UNL     1       7.884   4.344   5.921  1.00  0.00     0.013 A
HETATM   16  C24 UNL     1       8.099   3.710   7.119  1.00  0.00    -0.025 A
HETATM   17  C25 UNL     1       6.997   3.172   7.740  1.00  0.00     0.012 A
HETATM   18  C26 UNL     1       7.104   2.507   8.933  1.00  0.00     0.001 A
HETATM   19  C27 UNL     1       8.353   2.385   9.510  1.00  0.00     0.001 A
HETATM   20  C28 UNL     1       9.480   2.923   8.900  1.00  0.00     0.013 A
HETATM   21  C29 UNL     1       9.360   3.584   7.716  1.00  0.00    -0.012 A
ENDROOT
BRANCH  10  22
HETATM   22  N2  UNL     1      12.828   3.280   9.755  1.00  0.00    -0.279 N
ATOM     23  H2  UNL     1      13.549   2.570   9.630  1.00  0.00     0.189 HD
BRANCH  22  24
HETATM   24  C9  UNL     1      12.699   3.929  11.015  1.00  0.00     0.166 C
BRANCH  24  25
HETATM   25  O2  UNL     1      13.393   3.363  11.981  1.00  0.00    -0.344 OA
ATOM     26  H2  UNL     1      13.370   3.840  12.802  1.00  0.00     0.219 HD
ENDBRANCH  24  25
BRANCH  24  27
HETATM   27  C10 UNL     1      11.985   5.076  11.449  1.00  0.00     0.027 A
HETATM   28  C11 UNL     1      12.652   6.328  11.328  1.00  0.00     0.017 A
HETATM   29  C12 UNL     1      12.037   7.510  11.645  1.00  0.00     0.002 A
HETATM   30  C13 UNL     1      10.743   7.504  12.092  1.00  0.00     0.012 A
HETATM   31  C14 UNL     1      10.051   6.317  12.229  1.00  0.00    -0.025 A
HETATM   32  C15 UNL     1       8.758   6.358  12.708  1.00  0.00     0.012 A
HETATM   33  C19 UNL     1      10.712   5.125  11.894  1.00  0.00    -0.011 A
HETATM   34  C16 UNL     1       8.061   5.182  12.878  1.00  0.00     0.001 A
HETATM   35  C17 UNL     1       8.678   3.990  12.563  1.00  0.00     0.001 A
HETATM   36  C18 UNL     1       9.983   3.987  12.082  1.00  0.00     0.013 A
ENDBRANCH  24  27
ENDBRANCH  22  24
ENDBRANCH  10  22
TORSDOF 4
ENDMDL