MODEL 3
REMARK VINA RESULT: -4.699300825      1.405      3.948
REMARK  3 active torsions:
REMARK  status: ('A' for Active; 'I' for Inactive)
REMARK    1  A    between atoms: C4_4  and  N1_5
REMARK    2  A    between atoms: C12_14  and  N3_15
REMARK    3  A    between atoms: N3_15  and  C13_17
ROOT
HETATM    1  N1  UNL     1       8.556   4.744  10.122  1.00  0.00    -0.306 N
HETATM    2  C5  UNL     1       7.672   3.946   9.400  1.00  0.00     0.112 A
HETATM    3  C6  UNL     1       7.986   3.459   8.187  1.00  0.00     0.008 A
HETATM    4  C7  UNL     1       7.076   2.663   7.494  1.00  0.00     0.015 A
HETATM    5  C8  UNL     1       7.387   2.164   6.258  1.00  0.00     0.001 A
HETATM    6  C9  UNL     1       8.606   2.452   5.700  1.00  0.00     0.002 A
HETATM    7  C10 UNL     1       9.538   3.254   6.386  1.00  0.00     0.031 A
HETATM    8  C11 UNL     1       9.209   3.741   7.614  1.00  0.00     0.070 A
HETATM    9  N2  UNL     1      10.077   4.519   8.311  1.00  0.00    -0.130 N
HETATM   10  C12 UNL     1      11.248   4.798   7.782  1.00  0.00     0.692 A
HETATM   11  N5  UNL     1      12.123   5.580   8.480  1.00  0.00    -0.190 N
ATOM     12  H5  UNL     1      13.030   5.795   8.067  1.00  0.00     0.184 HD
HETATM   13  C21 UNL     1      11.834   6.064   9.667  1.00  0.00     0.063 A
HETATM   14  C22 UNL     1      12.772   6.858  10.331  1.00  0.00     0.031 A
HETATM   15  C23 UNL     1      12.499   7.375  11.566  1.00  0.00     0.002 A
HETATM   16  C24 UNL     1      11.291   7.106  12.147  1.00  0.00     0.001 A
HETATM   17  C25 UNL     1      10.342   6.314  11.498  1.00  0.00     0.017 A
HETATM   18  C26 UNL     1      10.626   5.802  10.264  1.00  0.00     0.037 A
HETATM   19  C27 UNL     1       9.701   5.007   9.586  1.00  0.00     0.148 A
ENDROOT
BRANCH  10  20
HETATM   20  N3  UNL     1      11.689   4.415   6.650  1.00  0.00    -0.191 N
ATOM     21  H3  UNL     1      11.436   3.483   6.322  1.00  0.00     0.184 HD
BRANCH  20  22
HETATM   22  C13 UNL     1      12.520   5.223   5.818  1.00  0.00     0.050 A
HETATM   23  C14 UNL     1      13.856   4.918   5.754  1.00  0.00     0.031 A
HETATM   24  C15 UNL     1      14.734   5.668   4.957  1.00  0.00     0.016 A
HETATM   25  C16 UNL     1      14.263   6.727   4.224  1.00  0.00    -0.009 A
HETATM   26  C17 UNL     1      14.864   7.630   3.368  1.00  0.00     0.100 A
HETATM   27  C19 UNL     1      12.928   7.037   4.283  1.00  0.00    -0.007 A
HETATM   28  N4  UNL     1      13.921   8.450   2.934  1.00  0.00    -0.374 N
HETATM   29  C18 UNL     1      12.733   8.125   3.464  1.00  0.00     0.100 A
ATOM     30  H4  UNL     1      14.077   9.223   2.286  1.00  0.00     0.164 HD
HETATM   31  C20 UNL     1      12.056   6.281   5.083  1.00  0.00     0.043 A
ENDBRANCH  20  22
ENDBRANCH  10  20
BRANCH   1  32
HETATM   32  C4  UNL     1       7.954   5.083  11.324  1.00  0.00     0.040 A
HETATM   33  C3  UNL     1       7.116   6.194  11.346  1.00  0.00     0.030 A
HETATM   34  C2  UNL     1       6.614   6.726  12.505  1.00  0.00     0.002 A
HETATM   35  C1  UNL     1       6.923   6.172  13.712  1.00  0.00     0.000 A
HETATM   36  C29 UNL     1       7.755   5.067  13.691  1.00  0.00     0.002 A
HETATM   37  C28 UNL     1       8.267   4.522  12.546  1.00  0.00     0.030 A
ENDBRANCH   1  32
TORSDOF 3
ENDMDL