MODEL 1
REMARK VINA RESULT: 1.257173178      0.000      0.000
REMARK  2 active torsions:
REMARK  status: ('A' for Active; 'I' for Inactive)
REMARK    1  A    between atoms: C10_15  and  C11_16
REMARK    2  A    between atoms: C18_23  and  C19_24
ROOT
HETATM    1  O1  UNL     1       9.304   5.582  13.029  1.00  0.00    -0.267 OA
HETATM    2  C1  UNL     1      10.250   6.280  12.549  1.00  0.00     0.259 A
HETATM    3  N1  UNL     1      11.160   7.088  13.307  1.00  0.00    -0.322 N
ATOM      4  H1  UNL     1      11.158   7.199  14.321  1.00  0.00     0.169 HD
HETATM    5  C2  UNL     1      12.063   7.708  12.403  1.00  0.00     0.046 A
HETATM    6  C3  UNL     1      13.122   8.572  12.645  1.00  0.00     0.030 A
HETATM    7  C4  UNL     1      13.850   9.034  11.586  1.00  0.00     0.002 A
HETATM    8  C5  UNL     1      13.528   8.640  10.301  1.00  0.00     0.001 A
HETATM    9  C6  UNL     1      12.486   7.786  10.044  1.00  0.00     0.015 A
HETATM   10  C7  UNL     1      11.734   7.304  11.104  1.00  0.00     0.009 A
HETATM   11  C8  UNL     1      10.624   6.427  11.163  1.00  0.00     0.078 A
HETATM   12  C9  UNL     1       9.948   5.801  10.150  1.00  0.00     0.092 A
HETATM   13  N2  UNL     1      10.199   5.858   8.886  1.00  0.00    -0.348 N
ATOM     14  H2  UNL     1      10.980   6.405   8.523  1.00  0.00     0.166 HD
HETATM   15  C10 UNL     1       9.416   5.191   8.094  1.00  0.00     0.060 A
HETATM   16  C17 UNL     1       8.436   4.479   8.240  1.00  0.00     0.035 A
HETATM   17  C18 UNL     1       7.343   3.683   8.321  1.00  0.00     0.032 C
HETATM   18  S1  UNL     1       8.616   4.813  10.219  1.00  0.00    -0.069 SA
ENDROOT
BRANCH  15  19
HETATM   19  C11 UNL     1       9.901   5.241   6.592  1.00  0.00    -0.008 A
HETATM   20  C12 UNL     1       9.864   4.170   5.795  1.00  0.00     0.014 A
HETATM   21  C13 UNL     1      10.332   4.254   4.468  1.00  0.00     0.001 A
HETATM   22  C14 UNL     1      10.825   5.456   4.016  1.00  0.00     0.000 A
HETATM   23  C15 UNL     1      10.863   6.567   4.845  1.00  0.00     0.001 A
HETATM   24  C16 UNL     1      10.386   6.417   6.145  1.00  0.00     0.014 A
ENDBRANCH  15  19
BRANCH  17  25
HETATM   25  C19 UNL     1       6.768   3.230   7.035  1.00  0.00    -0.034 A
HETATM   26  C20 UNL     1       5.751   3.826   6.366  1.00  0.00     0.012 A
HETATM   27  C21 UNL     1       5.273   3.318   5.151  1.00  0.00     0.013 A
HETATM   28  C22 UNL     1       5.870   2.196   4.658  1.00  0.00    -0.026 A
HETATM   29  C23 UNL     1       5.428   1.622   3.460  1.00  0.00     0.012 A
HETATM   30  C27 UNL     1       6.918   1.547   5.306  1.00  0.00    -0.025 A
HETATM   31  C24 UNL     1       6.004   0.484   2.959  1.00  0.00     0.001 A
HETATM   32  C25 UNL     1       7.051  -0.157   3.613  1.00  0.00     0.001 A
HETATM   33  C26 UNL     1       7.487   0.388   4.774  1.00  0.00     0.012 A
HETATM   34  C28 UNL     1       7.345   2.075   6.477  1.00  0.00     0.023 A
ENDBRANCH  17  25
TORSDOF 2
ENDMDL