MODEL 2
REMARK VINA RESULT: 6.315449038      3.981      7.420
REMARK  2 active torsions:
REMARK  status: ('A' for Active; 'I' for Inactive)
REMARK       I    between atoms: N2_8  and  C6_10
REMARK    1  A    between atoms: C6_10  and  C7_12
REMARK    2  A    between atoms: C10_15  and  C11_16
REMARK       I    between atoms: C11_16  and  N3_18
ROOT
HETATM    1  C7  UNL     1       7.027   3.446   6.891  1.00  0.00     0.032 A
HETATM    2  C8  UNL     1       7.769   4.598   6.792  1.00  0.00     0.018 A
HETATM    3  C9  UNL     1       8.576   5.037   7.816  1.00  0.00     0.018 A
HETATM    4  C10 UNL     1       8.670   4.315   9.009  1.00  0.00     0.033 A
HETATM    5  C24 UNL     1       7.928   3.146   9.130  1.00  0.00     0.018 A
HETATM    6  C25 UNL     1       7.136   2.751   8.075  1.00  0.00     0.018 A
ENDROOT
BRANCH   4   7
HETATM    7  C11 UNL     1       9.678   4.728   9.998  1.00  0.00     0.263 C
HETATM    8  O2  UNL     1       9.243   4.619  11.207  1.00  0.00    -0.267 OA
HETATM    9  N3  UNL     1      10.985   5.224   9.768  1.00  0.00    -0.276 N
HETATM   10  C12 UNL     1      11.627   4.970   8.519  1.00  0.00     0.060 A
HETATM   11  C23 UNL     1      11.415   6.298  10.648  1.00  0.00     0.060 A
HETATM   12  C13 UNL     1      11.351   3.743   7.867  1.00  0.00     0.031 A
HETATM   13  C17 UNL     1      12.663   5.678   7.975  1.00  0.00     0.033 A
HETATM   14  C14 UNL     1      12.063   3.301   6.774  1.00  0.00     0.002 A
HETATM   15  C15 UNL     1      13.096   4.046   6.257  1.00  0.00     0.002 A
HETATM   16  C16 UNL     1      13.372   5.252   6.899  1.00  0.00     0.021 A
HETATM   17  S1  UNL     1      13.149   7.205   8.715  1.00  0.00    -0.086 SA
HETATM   18  C18 UNL     1      12.439   7.174  10.375  1.00  0.00     0.033 A
HETATM   19  C19 UNL     1      12.912   8.108  11.278  1.00  0.00     0.021 A
HETATM   20  C20 UNL     1      12.340   8.187  12.518  1.00  0.00     0.002 A
HETATM   21  C21 UNL     1      11.316   7.360  12.871  1.00  0.00     0.002 A
HETATM   22  C22 UNL     1      10.871   6.426  11.922  1.00  0.00     0.031 A
ENDBRANCH   4   7
BRANCH   1  23
HETATM   23  C6  UNL     1       6.168   2.956   5.836  1.00  0.00     0.257 C
HETATM   24  N2  UNL     1       5.671   1.628   5.784  1.00  0.00    -0.309 N
HETATM   25  C5  UNL     1       6.261   0.814   4.943  1.00  0.00     0.108 A
ATOM     26  H2  UNL     1       4.894   1.323   6.370  1.00  0.00     0.170 HD
HETATM   27  N1  UNL     1       5.853  -0.468   4.827  1.00  0.00    -0.352 N
HETATM   28  C26 UNL     1       7.313   1.221   4.146  1.00  0.00     0.055 A
HETATM   29  C4  UNL     1       6.454  -1.333   3.958  1.00  0.00     0.090 A
ATOM     30  H1  UNL     1       5.077  -0.798   5.402  1.00  0.00     0.166 HD
HETATM   31  C3  UNL     1       7.495  -0.945   3.163  1.00  0.00     0.024 A
HETATM   32  C2  UNL     1       7.937   0.348   3.251  1.00  0.00    -0.057 A
HETATM   33  C1  UNL     1       9.064   0.814   2.409  1.00  0.00     0.048 C
HETATM   34  O1  UNL     1       5.840   3.741   4.914  1.00  0.00    -0.267 OA
ENDBRANCH   1  23
TORSDOF 2
ENDMDL