MODEL 2
REMARK VINA RESULT: -9.798215322      0.135      1.176
REMARK  6 active torsions:
REMARK  status: ('A' for Active; 'I' for Inactive)
REMARK    1  A    between atoms: O1_1  and  C1_3
REMARK    2  A    between atoms: C1_3  and  C2_4
REMARK    3  A    between atoms: C1_3  and  N1_10
REMARK    4  A    between atoms: N2_12  and  C9_13
REMARK    5  A    between atoms: C12_16  and  O2_17
REMARK    6  A    between atoms: N3_23  and  C16_24
ROOT
HETATM    1  N1  UNL     1      10.976   5.388   6.827  1.00  0.00    -0.308 N
HETATM    2  C8  UNL     1      10.388   4.102   6.456  1.00  0.00     0.268 C
HETATM    3  N2  UNL     1       9.148   3.845   7.136  1.00  0.00    -0.282 N
HETATM    4  C15 UNL     1       8.737   4.035   8.482  1.00  0.00     0.336 C
HETATM    5  O3  UNL     1       7.730   3.396   8.830  1.00  0.00    -0.246 OA
HETATM    6  N3  UNL     1       9.341   4.871   9.480  1.00  0.00    -0.262 N
HETATM    7  C22 UNL     1      10.597   5.546   9.344  1.00  0.00     0.071 A
HETATM    8  C23 UNL     1      11.108   5.981  10.560  1.00  0.00     0.032 A
HETATM    9  C24 UNL     1      12.316   6.640  10.619  1.00  0.00     0.002 A
HETATM   10  C25 UNL     1      13.014   6.860   9.427  1.00  0.00     0.002 A
HETATM   11  C26 UNL     1      12.498   6.427   8.245  1.00  0.00     0.032 A
HETATM   12  C27 UNL     1      11.278   5.759   8.165  1.00  0.00     0.065 A
ENDROOT
BRANCH   1  13
HETATM   13  C1  UNL     1      11.213   6.326   5.815  1.00  0.00     0.154 C
BRANCH  13  14
HETATM   14  O1  UNL     1      10.156   7.046   5.544  1.00  0.00    -0.345 OA
ATOM     15  H1  UNL     1       9.869   7.615   6.248  1.00  0.00     0.219 HD
ENDBRANCH  13  14
BRANCH  13  16
HETATM   16  C2  UNL     1      12.372   6.646   5.041  1.00  0.00     0.015 A
HETATM   17  C3  UNL     1      12.486   7.674   4.137  1.00  0.00     0.016 A
HETATM   18  C4  UNL     1      13.659   7.936   3.465  1.00  0.00     0.001 A
HETATM   19  C5  UNL     1      14.784   7.188   3.653  1.00  0.00     0.000 A
HETATM   20  C6  UNL     1      14.712   6.146   4.551  1.00  0.00     0.001 A
HETATM   21  C7  UNL     1      13.548   5.895   5.211  1.00  0.00     0.016 A
ENDBRANCH  13  16
ENDBRANCH   1  13
BRANCH   3  22
HETATM   22  C9  UNL     1       8.136   3.289   6.298  1.00  0.00     0.040 A
HETATM   23  C10 UNL     1       8.349   2.226   5.452  1.00  0.00     0.032 A
HETATM   24  C11 UNL     1       7.332   1.717   4.674  1.00  0.00     0.039 A
HETATM   25  C12 UNL     1       6.055   2.245   4.706  1.00  0.00     0.065 A
HETATM   26  C13 UNL     1       5.818   3.316   5.550  1.00  0.00     0.039 A
HETATM   27  C14 UNL     1       6.841   3.819   6.324  1.00  0.00     0.032 A
BRANCH  25  28
HETATM   28  O2  UNL     1       5.022   1.722   3.911  1.00  0.00    -0.361 OA
ATOM     29  H2  UNL     1       4.190   2.170   3.820  1.00  0.00     0.217 HD
ENDBRANCH  25  28
ENDBRANCH   3  22
BRANCH   6  30
HETATM   30  C16 UNL     1       8.664   5.059  10.700  1.00  0.00     0.044 A
HETATM   31  C17 UNL     1       8.043   6.275  10.941  1.00  0.00     0.030 A
HETATM   32  C18 UNL     1       7.371   6.492  12.121  1.00  0.00     0.002 A
HETATM   33  C19 UNL     1       7.306   5.495  13.085  1.00  0.00     0.000 A
HETATM   34  C20 UNL     1       7.917   4.276  12.864  1.00  0.00     0.002 A
HETATM   35  C21 UNL     1       8.581   4.089  11.677  1.00  0.00     0.030 A
ENDBRANCH   6  30
TORSDOF 6
ENDMDL