MODEL 4
REMARK VINA RESULT: -5.447956580      1.558      6.968
REMARK  2 active torsions:
REMARK  status: ('A' for Active; 'I' for Inactive)
REMARK    1  A    between atoms: C1_2  and  C2_3
REMARK       I    between atoms: C1_2  and  N2_24
REMARK    2  A    between atoms: C12_14  and  C13_15
ROOT
HETATM    1  C2  UNL     1       9.405   4.622   8.489  1.00  0.00     0.149 A
HETATM    2  C3  UNL     1       8.961   4.251   9.843  1.00  0.00    -0.007 A
HETATM    3  C4  UNL     1       7.681   3.687  10.027  1.00  0.00     0.011 A
HETATM    4  C5  UNL     1       7.262   3.356  11.290  1.00  0.00     0.001 A
HETATM    5  C6  UNL     1       8.072   3.566  12.381  1.00  0.00     0.003 A
HETATM    6  C7  UNL     1       9.315   4.114  12.183  1.00  0.00     0.038 A
HETATM    7  C8  UNL     1       9.783   4.466  10.920  1.00  0.00     0.083 A
HETATM    8  O2  UNL     1      11.052   5.014  10.778  1.00  0.00    -0.310 OA
HETATM    9  C9  UNL     1      11.521   5.360   9.519  1.00  0.00     0.083 A
HETATM   10  C10 UNL     1      12.808   5.904   9.442  1.00  0.00     0.039 A
HETATM   11  C11 UNL     1      13.337   6.267   8.222  1.00  0.00     0.015 A
HETATM   12  C12 UNL     1      12.572   6.084   7.080  1.00  0.00    -0.024 A
HETATM   13  C18 UNL     1      11.318   5.550   7.198  1.00  0.00     0.023 A
HETATM   14  C19 UNL     1      10.745   5.169   8.409  1.00  0.00    -0.006 A
ENDROOT
BRANCH   1  15
HETATM   15  C1  UNL     1       9.135   3.577   7.461  1.00  0.00     0.237 C
HETATM   16  O1  UNL     1      10.042   2.742   7.183  1.00  0.00    -0.272 OA
HETATM   17  N2  UNL     1       7.900   3.480   6.776  1.00  0.00    -0.312 N
HETATM   18  C20 UNL     1       6.763   4.442   6.854  1.00  0.00     0.173 A
HETATM   19  C27 UNL     1       7.580   2.444   5.861  1.00  0.00     0.050 A
HETATM   20  C21 UNL     1       5.773   3.859   5.899  1.00  0.00    -0.010 A
HETATM   21  C22 UNL     1       4.532   3.888   5.249  1.00  0.00     0.098 A
HETATM   22  C28 UNL     1       6.343   2.734   5.400  1.00  0.00     0.027 A
HETATM   23  N3  UNL     1       4.460   2.787   4.421  1.00  0.00    -0.365 N
HETATM   24  C23 UNL     1       5.578   2.062   4.506  1.00  0.00     0.045 A
ATOM     25  H3  UNL     1       3.663   2.558   3.826  1.00  0.00     0.165 HD
HETATM   26  C24 UNL     1       6.157   0.908   3.991  1.00  0.00     0.030 A
HETATM   27  C25 UNL     1       7.432   0.535   4.413  1.00  0.00     0.005 A
HETATM   28  C26 UNL     1       8.174   1.281   5.347  1.00  0.00     0.031 A
ENDBRANCH   1  15
BRANCH  12  29
HETATM   29  C13 UNL     1      13.144   6.472   5.800  1.00  0.00    -0.011 A
HETATM   30  C14 UNL     1      12.429   7.252   4.933  1.00  0.00     0.015 A
HETATM   31  C15 UNL     1      12.942   7.635   3.717  1.00  0.00     0.018 A
HETATM   32  C16 UNL     1      14.212   7.208   3.391  1.00  0.00     0.087 A
HETATM   33  N1  UNL     1      14.931   6.437   4.240  1.00  0.00    -0.374 N
HETATM   34  C17 UNL     1      14.421   6.066   5.429  1.00  0.00     0.099 A
ATOM     35  H1  UNL     1      15.869   6.134   3.977  1.00  0.00     0.164 HD
ENDBRANCH  12  29
TORSDOF 2
ENDMDL