MODEL 1
REMARK VINA RESULT: -6.795767977      0.000      0.000
REMARK  7 active torsions:
REMARK  status: ('A' for Active; 'I' for Inactive)
REMARK    1  A    between atoms: C1_2  and  C2_4
REMARK    2  A    between atoms: C2_4  and  C3_5
REMARK    3  A    between atoms: N1_6  and  N2_8
REMARK    4  A    between atoms: N2_8  and  C4_10
REMARK    5  A    between atoms: C6_13  and  O3_14
REMARK    6  A    between atoms: N3_16  and  C7_17
REMARK    7  A    between atoms: C7_17  and  C8_18
ROOT
HETATM    1  C4  UNL     1      11.039  -3.208  20.277  1.00  0.00     0.167 A
HETATM    2  S1  UNL     1      10.599  -4.677  21.010  1.00  0.00    -0.060 SA
HETATM    3  C5  UNL     1      10.557  -5.654  19.614  1.00  0.00     0.109 A
HETATM    4  C6  UNL     1      10.896  -4.767  18.629  1.00  0.00     0.151 A
HETATM    5  N3  UNL     1      11.138  -3.525  18.984  1.00  0.00    -0.302 N
ENDROOT
BRANCH   1   6
HETATM    6  N2  UNL     1      11.253  -2.022  20.817  1.00  0.00    -0.280 N
ATOM      7  H2  UNL     1      11.168  -1.147  20.298  1.00  0.00     0.189 HD
BRANCH   6   8
HETATM    8  N1  UNL     1      11.613  -2.084  22.194  1.00  0.00    -0.313 N
HETATM    9  C3  UNL     1      12.793  -1.789  22.575  1.00  0.00     0.090 C
ATOM     10  H1  UNL     1      10.918  -2.368  22.883  1.00  0.00     0.185 HD
BRANCH   9  11
HETATM   11  C2  UNL     1      13.878  -1.364  21.661  1.00  0.00     0.159 C
BRANCH  11  12
HETATM   12  C1  UNL     1      13.912   0.107  21.446  1.00  0.00     0.177 C
HETATM   13  O1  UNL     1      14.958   0.784  21.514  1.00  0.00    -0.648 OA
HETATM   14  O2  UNL     1      12.703   0.734  21.152  1.00  0.00    -0.648 OA
ENDBRANCH  11  12
ENDBRANCH   9  11
ENDBRANCH   6   8
ENDBRANCH   1   6
BRANCH   5  15
HETATM   15  C7  UNL     1      11.522  -2.500  17.970  1.00  0.00     0.179 C
BRANCH  15  16
HETATM   16  C8  UNL     1      10.283  -1.868  17.413  1.00  0.00     0.001 A
HETATM   17  C9  UNL     1       9.631  -0.742  17.815  1.00  0.00     0.017 A
HETATM   18  C10 UNL     1       8.515  -0.392  17.136  1.00  0.00     0.008 A
HETATM   19  C11 UNL     1       8.140  -1.203  16.100  1.00  0.00     0.050 A
HETATM   20  S2  UNL     1       9.338  -2.415  16.104  1.00  0.00    -0.105 SA
ENDBRANCH  15  16
ENDBRANCH   5  15
BRANCH   4  21
HETATM   21  O3  UNL     1      10.964  -5.251  17.282  1.00  0.00    -0.346 OA
ATOM     22  H3  UNL     1      10.315  -4.937  16.663  1.00  0.00     0.219 HD
ENDBRANCH   4  21
TORSDOF 7
ENDMDL