MODEL 2
REMARK VINA RESULT: -7.542927922      1.119      1.121
REMARK  6 active torsions:
REMARK  status: ('A' for Active; 'I' for Inactive)
REMARK    1  A    between atoms: C3_6  and  C4_7
REMARK    2  A    between atoms: N2_8  and  N3_10
REMARK       I    between atoms: N3_10  and  C5_12
REMARK    3  A    between atoms: C5_12  and  C6_14
REMARK    4  A    between atoms: C6_14  and  S1_15
REMARK    5  A    between atoms: S1_15  and  C7_16
REMARK    6  A    between atoms: C7_16  and  C8_20
ROOT
HETATM    1  C1  UNL     1      13.823  -1.614  24.419  1.00  0.00     0.072 C
HETATM    2  C2  UNL     1      12.878  -1.969  23.325  1.00  0.00     0.052 A
HETATM    3  N1  UNL     1      11.634  -2.471  23.491  1.00  0.00    -0.264 N
ATOM      4  H1  UNL     1      11.189  -2.669  24.388  1.00  0.00     0.194 HD
HETATM    5  O1  UNL     1      11.095  -2.663  22.323  1.00  0.00    -0.235 OA
HETATM    6  C3  UNL     1      11.913  -2.315  21.374  1.00  0.00     0.138 A
HETATM    7  C11 UNL     1      13.061  -1.867  21.970  1.00  0.00     0.105 A
HETATM    8  C12 UNL     1      14.260  -1.374  21.363  1.00  0.00     0.104 C
HETATM    9  N5  UNL     1      15.212  -0.985  20.860  1.00  0.00    -0.191 NA
ENDROOT
BRANCH   6  10
HETATM   10  C4  UNL     1      11.718  -2.362  19.926  1.00  0.00     0.148 C
HETATM   11  N2  UNL     1      11.876  -3.418  19.234  1.00  0.00    -0.306 N
ATOM     12  H2  UNL     1      12.152  -4.286  19.693  1.00  0.00     0.186 HD
BRANCH  11  13
HETATM   13  N3  UNL     1      11.675  -3.401  17.855  1.00  0.00    -0.270 N
HETATM   14  C5  UNL     1      10.622  -4.139  17.285  1.00  0.00     0.245 C
HETATM   15  O2  UNL     1       9.862  -4.816  18.018  1.00  0.00    -0.271 OA
ATOM     16  H3  UNL     1      12.292  -2.851  17.258  1.00  0.00     0.190 HD
BRANCH  14  17
HETATM   17  C6  UNL     1      10.336  -4.178  15.827  1.00  0.00     0.185 C
BRANCH  17  18
HETATM   18  S1  UNL     1       8.706  -3.487  15.448  1.00  0.00    -0.107 SA
BRANCH  18  19
HETATM   19  C7  UNL     1       8.859  -1.727  15.261  1.00  0.00     0.044 C
HETATM   20  N4  UNL     1       9.306  -1.291  14.147  1.00  0.00    -0.397 N
ATOM     21  H42 UNL     1       9.556  -1.955  13.415  1.00  0.00     0.156 HD
ATOM     22  H41 UNL     1       9.393  -0.280  14.040  1.00  0.00     0.156 HD
BRANCH  19  23
HETATM   23  C8  UNL     1       8.497  -0.762  16.323  1.00  0.00     0.042 A
HETATM   24  C9  UNL     1       9.537  -0.574  17.444  1.00  0.00     0.012 A
HETATM   25  C10 UNL     1       8.191  -1.187  17.696  1.00  0.00     0.012 A
ENDBRANCH  19  23
ENDBRANCH  18  19
ENDBRANCH  17  18
ENDBRANCH  14  17
ENDBRANCH  11  13
ENDBRANCH   6  10
TORSDOF 6
ENDMDL