MODEL 4
REMARK VINA RESULT: -7.269501285      1.414      1.651
REMARK  6 active torsions:
REMARK  status: ('A' for Active; 'I' for Inactive)
REMARK    1  A    between atoms: C2_2  and  O1_3
REMARK    2  A    between atoms: C3_5  and  C4_6
REMARK    3  A    between atoms: C4_6  and  C5_7
REMARK    4  A    between atoms: N1_8  and  N2_10
REMARK       I    between atoms: N2_10  and  C6_12
REMARK       I    between atoms: C6_12  and  N5_17
REMARK    5  A    between atoms: N5_17  and  N6_19
REMARK    6  A    between atoms: C8_21  and  C9_22
ROOT
HETATM    1  N2  UNL     1      11.202  -3.927  18.286  1.00  0.00    -0.131 N
ATOM      2  H2  UNL     1      12.097  -3.912  17.796  1.00  0.00     0.205 HD
HETATM    3  C6  UNL     1      10.991  -4.867  19.323  1.00  0.00     0.720 C
HETATM    4  N3  UNL     1      10.196  -5.844  19.166  1.00  0.00    -0.123 N
ATOM      5  H3  UNL     1       9.732  -5.898  18.259  1.00  0.00     0.197 HD
HETATM    6  C7  UNL     1       9.880  -6.836  20.060  1.00  0.00     0.196 C
HETATM    7  N4  UNL     1       9.610  -7.676  20.788  1.00  0.00    -0.171 NA
HETATM    8  N5  UNL     1      11.688  -4.696  20.542  1.00  0.00    -0.130 N
ATOM      9  H5  UNL     1      12.698  -4.830  20.596  1.00  0.00     0.205 HD
ENDROOT
BRANCH   1  10
HETATM   10  N1  UNL     1      10.209  -3.023  17.925  1.00  0.00    -0.301 N
HETATM   11  C5  UNL     1       9.820  -2.955  16.707  1.00  0.00     0.084 C
ATOM     12  H1  UNL     1       9.791  -2.414  18.629  1.00  0.00     0.186 HD
BRANCH  11  13
HETATM   13  C4  UNL     1       8.767  -2.008  16.279  1.00  0.00     0.075 C
BRANCH  13  14
HETATM   14  C3  UNL     1       7.558  -2.798  15.968  1.00  0.00     0.010 C
HETATM   15  C2  UNL     1       7.201  -2.974  14.718  1.00  0.00     0.036 C
HETATM   16  C1  UNL     1       8.016  -2.379  13.637  1.00  0.00     0.075 C
BRANCH  15  17
HETATM   17  O1  UNL     1       6.073  -3.709  14.352  1.00  0.00    -0.366 OA
ATOM     18  H1  UNL     1       6.195  -4.622  14.120  1.00  0.00     0.217 HD
ENDBRANCH  15  17
ENDBRANCH  13  14
ENDBRANCH  11  13
ENDBRANCH   1  10
BRANCH   8  19
HETATM   19  N6  UNL     1      10.959  -4.341  21.650  1.00  0.00    -0.296 N
HETATM   20  C8  UNL     1      10.977  -3.253  22.288  1.00  0.00     0.126 C
ATOM     21  H6  UNL     1      10.319  -5.052  22.004  1.00  0.00     0.186 HD
BRANCH  20  22
HETATM   22  C9  UNL     1      11.832  -2.113  21.931  1.00  0.00     0.021 A
HETATM   23  C10 UNL     1      11.539  -1.134  21.013  1.00  0.00     0.021 A
HETATM   24  C11 UNL     1      12.457  -0.172  20.831  1.00  0.00     0.008 A
HETATM   25  C12 UNL     1      13.605  -0.247  21.572  1.00  0.00     0.050 A
HETATM   26  S1  UNL     1      13.364  -1.656  22.498  1.00  0.00    -0.101 SA
ENDBRANCH  20  22
ENDBRANCH   8  19
TORSDOF 6
ENDMDL