MODEL 1
REMARK VINA RESULT: -6.708245132      0.000      0.000
REMARK  6 active torsions:
REMARK  status: ('A' for Active; 'I' for Inactive)
REMARK    1  A    between atoms: C2_3  and  S1_4
REMARK    2  A    between atoms: S1_4  and  C3_5
REMARK    3  A    between atoms: C3_5  and  C4_6
REMARK    4  A    between atoms: C4_6  and  C5_7
REMARK    5  A    between atoms: C5_7  and  O1_8
REMARK    6  A    between atoms: C10_18  and  N3_19
ROOT
HETATM    1  C3  UNL     1      11.164  -2.210  19.640  1.00  0.00     0.086 C
ENDROOT
BRANCH   1   2
HETATM    2  S1  UNL     1      11.219  -2.857  17.976  1.00  0.00    -0.112 SA
BRANCH   2   3
HETATM    3  C2  UNL     1       9.941  -2.249  16.929  1.00  0.00     0.073 A
HETATM    4  N1  UNL     1       9.347  -2.905  15.930  1.00  0.00    -0.327 N
HETATM    5  C1  UNL     1       9.681  -4.254  15.550  1.00  0.00     0.159 C
HETATM    6  C10 UNL     1       8.413  -2.144  15.339  1.00  0.00     0.176 A
HETATM    7  C9  UNL     1       8.405  -0.911  16.005  1.00  0.00     0.058 A
HETATM    8  C8  UNL     1       9.367  -1.001  16.992  1.00  0.00     0.041 A
BRANCH   6   9
HETATM    9  N3  UNL     1       7.561  -2.464  14.247  1.00  0.00    -0.098 N
HETATM   10  O2  UNL     1       6.414  -2.884  14.435  1.00  0.00    -0.531 OA
HETATM   11  O3  UNL     1       7.984  -2.317  12.957  1.00  0.00    -0.531 OA
ENDBRANCH   6   9
ENDBRANCH   2   3
ENDBRANCH   1   2
BRANCH   1  12
HETATM   12  C4  UNL     1      11.692  -0.792  19.737  1.00  0.00     0.080 C
BRANCH  12  13
HETATM   13  C5  UNL     1      12.661  -0.646  20.856  1.00  0.00     0.234 C
HETATM   14  C6  UNL     1      12.188  -1.355  22.131  1.00  0.00     0.144 C
HETATM   15  S2  UNL     1      13.790  -1.348  23.041  1.00  0.00    -0.137 SA
HETATM   16  C7  UNL     1      14.847  -0.925  21.593  1.00  0.00     0.309 C
HETATM   17  N2  UNL     1      13.906  -1.288  20.529  1.00  0.00    -0.034 N
ATOM     18  H22 UNL     1      13.818  -2.295  20.392  1.00  0.00     0.281 HD
ATOM     19  H21 UNL     1      14.245  -1.062  19.594  1.00  0.00     0.281 HD
BRANCH  13  20
HETATM   20  O1  UNL     1      12.812   0.700  21.163  1.00  0.00    -0.364 OA
ATOM     21  H1  UNL     1      12.237   0.926  21.884  1.00  0.00     0.212 HD
ENDBRANCH  13  20
ENDBRANCH  12  13
ENDBRANCH   1  12
TORSDOF 6
ENDMDL