MODEL 5
REMARK VINA RESULT: -6.048225071      1.893      2.246
REMARK  10 active torsions:
REMARK  status: ('A' for Active; 'I' for Inactive)
REMARK    1  A    between atoms: C2_2  and  O1_3
REMARK    2  A    between atoms: O1_3  and  C3_4
REMARK    3  A    between atoms: C3_4  and  O2_5
REMARK    4  A    between atoms: C3_4  and  C4_7
REMARK    5  A    between atoms: C4_7  and  S1_8
REMARK    6  A    between atoms: C9_14  and  C10_15
REMARK    7  A    between atoms: C9_14  and  N2_18
REMARK    8  A    between atoms: C10_15  and  O3_16
REMARK    9  A    between atoms: N2_18  and  N3_20
REMARK   10  A    between atoms: N3_20  and  N4_21
ROOT
HETATM    1  S1  UNL     1       9.798  -3.435  19.646  1.00  0.00    -0.007 SA
HETATM    2  C5  UNL     1      10.224  -4.980  20.383  1.00  0.00     0.136 C
HETATM    3  N1  UNL     1      10.490  -6.009  20.874  1.00  0.00    -0.184 NA
ENDROOT
BRANCH   1   4
HETATM    4  C4  UNL     1      11.357  -2.618  19.141  1.00  0.00     0.175 C
HETATM    5  C6  UNL     1      11.326  -1.154  19.417  1.00  0.00     0.065 C
HETATM    6  C7  UNL     1      12.613  -0.927  20.182  1.00  0.00     0.045 C
HETATM    7  C8  UNL     1      12.405   0.157  21.207  1.00  0.00     0.015 C
HETATM    8  C9  UNL     1      12.863  -2.273  20.775  1.00  0.00     0.186 C
HETATM    9  O4  UNL     1      12.359  -3.195  19.903  1.00  0.00    -0.328 OA
BRANCH   4  10
HETATM   10  C3  UNL     1      11.538  -2.964  17.674  1.00  0.00     0.302 C
BRANCH  10  11
HETATM   11  O1  UNL     1      10.399  -3.516  17.111  1.00  0.00    -0.358 OA
BRANCH  11  12
HETATM   12  C2  UNL     1      10.599  -3.813  15.771  1.00  0.00     0.166 C
HETATM   13  C1  UNL     1       9.410  -3.365  14.936  1.00  0.00     0.033 C
ENDBRANCH  11  12
ENDBRANCH  10  11
BRANCH  10  14
HETATM   14  O2  UNL     1      11.888  -1.763  17.024  1.00  0.00    -0.367 OA
ATOM     15  H2  UNL     1      12.829  -1.633  17.037  1.00  0.00     0.212 HD
ENDBRANCH  10  14
ENDBRANCH   4  10
BRANCH   8  16
HETATM   16  C10 UNL     1      12.293  -2.406  22.172  1.00  0.00     0.227 C
BRANCH  16  17
HETATM   17  O3  UNL     1      13.275  -2.541  23.127  1.00  0.00    -0.396 OA
ATOM     18  H3  UNL     1      13.415  -3.448  23.374  1.00  0.00     0.209 HD
ENDBRANCH  16  17
ENDBRANCH   8  16
BRANCH   8  19
HETATM   19  N2  UNL     1      14.303  -2.531  20.889  1.00  0.00    -0.214 N
ATOM     20  H2  UNL     1      14.632  -3.481  21.056  1.00  0.00     0.200 HD
BRANCH  19  21
HETATM   21  N3  UNL     1      15.118  -1.617  20.784  1.00  0.00    -0.246 NA
BRANCH  21  22
HETATM   22  N4  UNL     1      15.977  -0.851  20.358  1.00  0.00    -0.261 N
ATOM     23  H42 UNL     1      16.108  -1.356  19.481  1.00  0.00     0.193 HD
ATOM     24  H41 UNL     1      16.640  -0.081  20.263  1.00  0.00     0.193 HD
ENDBRANCH  21  22
ENDBRANCH  19  21
ENDBRANCH   8  19
ENDBRANCH   1   4
TORSDOF 10
ENDMDL