MODEL 4
REMARK VINA RESULT: -6.656078595      2.340      6.353
REMARK  6 active torsions:
REMARK  status: ('A' for Active; 'I' for Inactive)
REMARK    1  A    between atoms: C1_2  and  C2_4
REMARK    2  A    between atoms: C2_4  and  C3_5
REMARK    3  A    between atoms: C3_5  and  C4_6
REMARK    4  A    between atoms: C4_6  and  N1_7
REMARK    5  A    between atoms: C5_8  and  O3_9
REMARK    6  A    between atoms: N2_14  and  N3_16
ROOT
HETATM    1  N1  UNL     1      11.609  -2.133  20.688  1.00  0.00    -0.306 N
HETATM    2  C5  UNL     1      11.825  -3.038  21.623  1.00  0.00     0.150 A
HETATM    3  C6  UNL     1      11.932  -4.345  21.207  1.00  0.00     0.109 A
HETATM    4  S1  UNL     1      11.720  -4.215  19.524  1.00  0.00    -0.060 SA
HETATM    5  C7  UNL     1      11.509  -2.531  19.423  1.00  0.00     0.167 A
HETATM    6  N2  UNL     1      11.303  -1.773  18.362  1.00  0.00    -0.278 N
ATOM      7  H2  UNL     1      11.197  -0.760  18.426  1.00  0.00     0.189 HD
ENDROOT
BRANCH   1   8
HETATM    8  C4  UNL     1      11.481  -0.693  21.064  1.00  0.00     0.134 C
BRANCH   8   9
HETATM    9  C3  UNL     1      12.733   0.062  20.824  1.00  0.00     0.031 C
BRANCH   9  10
HETATM   10  C2  UNL     1      13.823  -0.125  21.843  1.00  0.00     0.114 C
BRANCH  10  11
HETATM   11  C1  UNL     1      15.044  -0.733  21.204  1.00  0.00     0.172 C
HETATM   12  O1  UNL     1      16.075  -0.033  21.015  1.00  0.00    -0.648 OA
HETATM   13  O2  UNL     1      15.005  -2.062  20.833  1.00  0.00    -0.648 OA
ENDBRANCH  10  11
ENDBRANCH   9  10
ENDBRANCH   8   9
ENDBRANCH   1   8
BRANCH   6  14
HETATM   14  N3  UNL     1      11.241  -2.450  17.154  1.00  0.00    -0.282 N
HETATM   15  C8  UNL     1      10.137  -2.816  16.581  1.00  0.00     0.132 C
HETATM   16  C9  UNL     1       9.966  -3.540  15.303  1.00  0.00     0.087 C
HETATM   17  O4  UNL     1       8.887  -2.556  17.124  1.00  0.00    -0.338 OA
HETATM   18  C10 UNL     1       8.523  -4.030  15.404  1.00  0.00     0.035 C
HETATM   19  C11 UNL     1       7.876  -2.914  16.196  1.00  0.00     0.177 C
ATOM     20  H3  UNL     1      12.120  -2.674  16.686  1.00  0.00     0.189 HD
ENDBRANCH   6  14
BRANCH   2  21
HETATM   21  O3  UNL     1      11.957  -2.786  23.027  1.00  0.00    -0.346 OA
ATOM     22  H3  UNL     1      12.771  -2.654  23.496  1.00  0.00     0.219 HD
ENDBRANCH   2  21
TORSDOF 6
ENDMDL