MODEL 4
REMARK VINA RESULT: -6.949426906      2.807      3.479
REMARK  5 active torsions:
REMARK  status: ('A' for Active; 'I' for Inactive)
REMARK    1  A    between atoms: C2_2  and  N1_3
REMARK    2  A    between atoms: C3_4  and  S1_5
REMARK    3  A    between atoms: S1_5  and  C4_6
REMARK    4  A    between atoms: C4_6  and  C5_7
REMARK       I    between atoms: C5_7  and  N2_9
REMARK    5  A    between atoms: N2_9  and  N3_11
ROOT
HETATM    1  N3  UNL     1      13.365  -2.077  22.852  1.00  0.00    -0.292 N
ATOM      2  H3  UNL     1      13.278  -2.509  23.772  1.00  0.00     0.187 HD
HETATM    3  C6  UNL     1      13.836  -0.978  23.077  1.00  0.00     0.101 C
HETATM    4  C7  UNL     1      14.136   0.005  21.986  1.00  0.00     0.082 C
HETATM    5  C8  UNL     1      14.139  -0.538  24.425  1.00  0.00     0.114 C
HETATM    6  N4  UNL     1      14.392  -0.206  25.513  1.00  0.00    -0.190 NA
ENDROOT
BRANCH   1   7
HETATM    7  N2  UNL     1      12.912  -2.986  22.020  1.00  0.00    -0.269 N
HETATM    8  C5  UNL     1      11.596  -3.581  22.070  1.00  0.00     0.245 C
HETATM    9  O1  UNL     1      10.822  -3.188  22.979  1.00  0.00    -0.271 OA
ATOM     10  H2  UNL     1      13.540  -3.298  21.279  1.00  0.00     0.190 HD
BRANCH   8  11
HETATM   11  C4  UNL     1      11.198  -4.598  21.096  1.00  0.00     0.186 C
BRANCH  11  12
HETATM   12  S1  UNL     1      11.614  -4.243  19.393  1.00  0.00    -0.083 SA
BRANCH  12  13
HETATM   13  C3  UNL     1      10.755  -2.784  18.836  1.00  0.00     0.164 A
HETATM   14  N1  UNL     1       9.896  -2.712  17.777  1.00  0.00    -0.302 N
HETATM   15  C9  UNL     1       9.512  -1.449  17.710  1.00  0.00     0.195 A
HETATM   16  N6  UNL     1      10.095  -0.722  18.687  1.00  0.00    -0.274 N
HETATM   17  S2  UNL     1       8.454  -0.900  16.564  1.00  0.00    -0.039 SA
HETATM   18  N5  UNL     1      10.848  -1.549  19.364  1.00  0.00    -0.277 N
ATOM     19  H6  UNL     1       9.971   0.275  18.862  1.00  0.00     0.189 HD
ATOM     20  H5  UNL     1      11.420  -1.296  20.170  1.00  0.00     0.189 HD
BRANCH  14  21
HETATM   21  C2  UNL     1       9.535  -3.850  16.983  1.00  0.00     0.129 C
HETATM   22  C1  UNL     1      10.324  -4.039  15.738  1.00  0.00     0.027 C
ENDBRANCH  14  21
ENDBRANCH  12  13
ENDBRANCH  11  12
ENDBRANCH   8  11
ENDBRANCH   1   7
TORSDOF 5
ENDMDL