MODEL 2
REMARK VINA RESULT: -7.563241323      2.312      2.701
REMARK  7 active torsions:
REMARK  status: ('A' for Active; 'I' for Inactive)
REMARK    1  A    between atoms: C2_3  and  O1_4
REMARK    2  A    between atoms: O1_4  and  C3_5
REMARK    3  A    between atoms: C3_5  and  C4_7
REMARK    4  A    between atoms: C4_7  and  O3_8
REMARK    5  A    between atoms: C5_10  and  C6_11
REMARK    6  A    between atoms: N2_13  and  N3_14
REMARK    7  A    between atoms: N3_14  and  C8_16
ROOT
HETATM    1  N1  UNL     1      16.457  -0.850  19.722  1.00  0.00    -0.195 NA
HETATM    2  C1  UNL     1      15.981  -0.442  20.709  1.00  0.00     0.085 C
HETATM    3  C2  UNL     1      15.412   0.051  21.946  1.00  0.00     0.302 C
ENDROOT
BRANCH   3   4
HETATM    4  O1  UNL     1      14.133  -0.542  22.144  1.00  0.00    -0.302 OA
BRANCH   4   5
HETATM    5  C3  UNL     1      13.115  -0.227  21.238  1.00  0.00     0.317 C
HETATM    6  O2  UNL     1      12.724   0.970  21.186  1.00  0.00    -0.257 OA
BRANCH   5   7
HETATM    7  C4  UNL     1      12.561  -1.269  20.415  1.00  0.00     0.144 C
HETATM    8  C5  UNL     1      11.559  -1.039  19.609  1.00  0.00     0.081 C
BRANCH   7   9
HETATM    9  O3  UNL     1      13.140  -2.548  20.516  1.00  0.00    -0.355 OA
ATOM     10  H3  UNL     1      13.284  -3.026  19.707  1.00  0.00     0.218 HD
ENDBRANCH   7   9
BRANCH   8  11
HETATM   11  C6  UNL     1      11.056  -2.164  18.797  1.00  0.00     0.101 A
HETATM   12  C7  UNL     1      11.065  -2.097  17.423  1.00  0.00     0.159 A
HETATM   13  N2  UNL     1      10.547  -3.273  16.970  1.00  0.00    -0.212 N
HETATM   14  C13 UNL     1      10.242  -4.005  18.035  1.00  0.00     0.391 A
HETATM   15  O4  UNL     1       9.728  -5.179  18.076  1.00  0.00    -0.236 OA
HETATM   16  O5  UNL     1      10.564  -3.300  19.122  1.00  0.00    -0.258 OA
BRANCH  13  17
HETATM   17  N3  UNL     1      10.351  -3.560  15.634  1.00  0.00    -0.321 N
ATOM     18  H3  UNL     1      11.160  -3.812  15.066  1.00  0.00     0.181 HD
BRANCH  17  19
HETATM   19  C8  UNL     1       9.069  -3.519  15.013  1.00  0.00     0.100 C
HETATM   20  C9  UNL     1       8.027  -2.818  15.849  1.00  0.00     0.026 C
HETATM   21  C10 UNL     1       6.731  -3.619  15.691  1.00  0.00     0.002 C
HETATM   22  C11 UNL     1       7.037  -4.598  14.550  1.00  0.00     0.002 C
HETATM   23  C12 UNL     1       8.485  -4.936  14.910  1.00  0.00     0.026 C
ENDBRANCH  17  19
ENDBRANCH  13  17
ENDBRANCH   8  11
ENDBRANCH   5   7
ENDBRANCH   4   5
ENDBRANCH   3   4
TORSDOF 7
ENDMDL