MODEL 1
REMARK VINA RESULT: -7.158789496      0.000      0.000
REMARK  8 active torsions:
REMARK  status: ('A' for Active; 'I' for Inactive)
REMARK    1  A    between atoms: N1_1  and  C1_4
REMARK    2  A    between atoms: N2_8  and  C4_9
REMARK    3  A    between atoms: C5_10  and  C6_11
REMARK    4  A    between atoms: C6_11  and  O2_13
REMARK    5  A    between atoms: O2_13  and  C7_14
REMARK    6  A    between atoms: C9_16  and  C10_17
REMARK    7  A    between atoms: C10_17  and  C11_18
REMARK    8  A    between atoms: C11_18  and  O3_19
ROOT
HETATM    1  C6  UNL     1      12.705  -3.593  20.600  1.00  0.00     0.286 C
HETATM    2  O1  UNL     1      12.280  -4.577  21.300  1.00  0.00    -0.260 OA
ENDROOT
BRANCH   1   3
HETATM    3  C5  UNL     1      13.552  -2.620  21.255  1.00  0.00     0.100 C
HETATM    4  C4  UNL     1      13.071  -1.600  21.913  1.00  0.00     0.104 C
BRANCH   4   5
HETATM    5  N2  UNL     1      13.891  -0.609  22.583  1.00  0.00    -0.313 N
HETATM    6  C1  UNL     1      14.051  -0.659  23.912  1.00  0.00     0.148 A
HETATM    7  S1  UNL     1      15.076   0.662  24.238  1.00  0.00    -0.064 SA
HETATM    8  C2  UNL     1      15.263   1.229  22.643  1.00  0.00     0.071 A
HETATM    9  C3  UNL     1      14.499   0.338  21.930  1.00  0.00     0.105 A
BRANCH   6  10
HETATM   10  N1  UNL     1      13.559  -1.497  24.766  1.00  0.00    -0.379 N
ATOM     11  H12 UNL     1      13.949  -1.823  25.650  1.00  0.00     0.158 HD
ATOM     12  H11 UNL     1      12.669  -1.990  24.702  1.00  0.00     0.158 HD
ENDBRANCH   6  10
ENDBRANCH   4   5
ENDBRANCH   1   3
BRANCH   1  13
HETATM   13  O2  UNL     1      12.298  -3.584  19.293  1.00  0.00    -0.286 OA
BRANCH  13  14
HETATM   14  C7  UNL     1      11.391  -2.641  18.801  1.00  0.00     0.275 C
HETATM   15  C8  UNL     1      10.466  -3.151  17.752  1.00  0.00     0.070 C
HETATM   16  C9  UNL     1       9.337  -2.196  17.528  1.00  0.00     0.016 C
HETATM   17  C12 UNL     1       9.865  -0.810  17.567  1.00  0.00     0.002 C
HETATM   18  C13 UNL     1      11.086  -0.475  17.920  1.00  0.00     0.134 C
HETATM   19  O4  UNL     1      12.021  -1.453  18.303  1.00  0.00    -0.332 OA
BRANCH  16  20
HETATM   20  C10 UNL     1       8.614  -2.377  16.209  1.00  0.00     0.034 C
BRANCH  20  21
HETATM   21  C11 UNL     1       8.747  -1.196  15.318  1.00  0.00     0.164 C
BRANCH  21  22
HETATM   22  O3  UNL     1       9.315  -1.493  14.115  1.00  0.00    -0.401 OA
ATOM     23  H3  UNL     1       8.762  -2.033  13.564  1.00  0.00     0.209 HD
ENDBRANCH  21  22
ENDBRANCH  20  21
ENDBRANCH  16  20
ENDBRANCH  13  14
ENDBRANCH   1  13
TORSDOF 8
ENDMDL