MODEL 2
REMARK VINA RESULT: -5.724752591      1.559      2.294
REMARK  9 active torsions:
REMARK  status: ('A' for Active; 'I' for Inactive)
REMARK    1  A    between atoms: N1_2  and  C2_4
REMARK    2  A    between atoms: C2_4  and  C3_5
REMARK    3  A    between atoms: C3_5  and  O1_6
REMARK    4  A    between atoms: C3_5  and  C4_8
REMARK    5  A    between atoms: C4_8  and  N2_9
REMARK    6  A    between atoms: C5_10  and  C6_11
REMARK    7  A    between atoms: C10_15  and  C11_16
REMARK    8  A    between atoms: C11_16  and  O2_17
REMARK    9  A    between atoms: C11_16  and  N3_19
ROOT
HETATM    1  N2  UNL     1      29.821  40.935  16.634  1.00  0.00    -0.299 N
HETATM    2  C5  UNL     1      29.408  41.518  17.791  1.00  0.00     0.040 A
HETATM    3  C10 UNL     1      30.350  41.509  18.849  1.00  0.00     0.092 A
HETATM    4  C16 UNL     1      31.609  40.923  18.700  1.00  0.00     0.262 A
HETATM    5  O3  UNL     1      32.458  40.894  19.622  1.00  0.00    -0.267 OA
HETATM    6  N4  UNL     1      31.962  40.363  17.555  1.00  0.00    -0.275 N
ATOM      7  H4  UNL     1      32.880  39.935  17.442  1.00  0.00     0.173 HD
HETATM    8  C17 UNL     1      31.085  40.374  16.558  1.00  0.00     0.329 A
HETATM    9  O4  UNL     1      31.435  39.832  15.463  1.00  0.00    -0.246 OA
ENDROOT
BRANCH   1  10
HETATM   10  C4  UNL     1      29.037  40.956  15.453  1.00  0.00     0.170 C
BRANCH  10  11
HETATM   11  C3  UNL     1      29.418  42.053  14.469  1.00  0.00     0.174 C
BRANCH  11  12
HETATM   12  C2  UNL     1      28.269  42.871  13.962  1.00  0.00     0.088 C
BRANCH  12  13
HETATM   13  N1  UNL     1      26.964  42.405  14.098  1.00  0.00    -0.404 N
HETATM   14  C1  UNL     1      25.902  43.285  14.440  1.00  0.00     0.145 C
ATOM     15  H1  UNL     1      26.767  41.415  13.949  1.00  0.00     0.158 HD
ENDBRANCH  12  13
ENDBRANCH  11  12
BRANCH  11  16
HETATM   16  O1  UNL     1      30.187  41.502  13.450  1.00  0.00    -0.389 OA
ATOM     17  H1  UNL     1      30.419  42.131  12.777  1.00  0.00     0.210 HD
ENDBRANCH  11  16
ENDBRANCH  10  11
ENDBRANCH   1  10
BRANCH   2  18
HETATM   18  C6  UNL     1      28.119  42.065  17.996  1.00  0.00    -0.008 C
HETATM   19  C7  UNL     1      28.209  43.551  17.507  1.00  0.00     0.021 C
HETATM   20  C8  UNL     1      27.734  42.464  19.465  1.00  0.00     0.021 C
HETATM   21  C9  UNL     1      26.845  41.438  17.567  1.00  0.00     0.021 C
ENDBRANCH   2  18
BRANCH   3  22
HETATM   22  C11 UNL     1      30.166  42.126  20.139  1.00  0.00     0.398 C
BRANCH  22  23
HETATM   23  O2  UNL     1      31.165  43.044  20.414  1.00  0.00    -0.364 OA
ATOM     24  H2  UNL     1      30.814  43.843  20.789  1.00  0.00     0.212 HD
ENDBRANCH  22  23
BRANCH  22  25
HETATM   25  N3  UNL     1      30.335  41.148  21.234  1.00  0.00     0.121 N
HETATM   26  C12 UNL     1      30.210  41.749  22.534  1.00  0.00     0.276 C
HETATM   27  C13 UNL     1      29.964  40.586  23.489  1.00  0.00     0.032 C
HETATM   28  C14 UNL     1      29.404  39.524  22.598  1.00  0.00     0.032 C
HETATM   29  C15 UNL     1      29.247  40.188  21.277  1.00  0.00     0.276 C
ENDBRANCH  22  25
ENDBRANCH   3  22
TORSDOF 9
ENDMDL