MODEL 2
REMARK VINA RESULT: -7.652030518      2.284      5.040
REMARK  9 active torsions:
REMARK  status: ('A' for Active; 'I' for Inactive)
REMARK    1  A    between atoms: O1_2  and  C2_3
REMARK    2  A    between atoms: C2_3  and  C3_5
REMARK    3  A    between atoms: C3_5  and  N1_6
REMARK    4  A    between atoms: C3_5  and  C16_27
REMARK       I    between atoms: N1_6  and  C4_8
REMARK    5  A    between atoms: C4_8  and  C5_10
REMARK    6  A    between atoms: C5_10  and  N2_11
REMARK    7  A    between atoms: C5_10  and  C10_20
REMARK    8  A    between atoms: N2_11  and  C6_12
REMARK    9  A    between atoms: C16_27  and  O5_29
ROOT
HETATM    1  C5  UNL     1      29.731  40.440  19.242  1.00  0.00     0.293 C
ENDROOT
BRANCH   1   2
HETATM    2  C4  UNL     1      30.578  40.741  20.525  1.00  0.00     0.262 C
HETATM    3  N1  UNL     1      31.554  41.723  20.457  1.00  0.00    -0.320 N
ATOM      4  H1  UNL     1      31.687  42.169  19.550  1.00  0.00     0.169 HD
HETATM    5  O3  UNL     1      30.262  40.075  21.505  1.00  0.00    -0.269 OA
BRANCH   3   6
HETATM    6  C3  UNL     1      32.398  42.181  21.523  1.00  0.00     0.116 C
BRANCH   6   7
HETATM    7  C2  UNL     1      33.760  41.769  21.244  1.00  0.00     0.308 C
HETATM    8  O2  UNL     1      34.462  41.855  20.242  1.00  0.00    -0.258 OA
BRANCH   7   9
HETATM    9  O1  UNL     1      34.430  41.201  22.436  1.00  0.00    -0.322 OA
HETATM   10  C1  UNL     1      35.801  41.054  22.366  1.00  0.00     0.213 C
ENDBRANCH   7   9
ENDBRANCH   6   7
BRANCH   6  11
HETATM   11  C16 UNL     1      32.102  43.524  22.055  1.00  0.00     0.170 C
HETATM   12  C17 UNL     1      30.867  43.434  23.000  1.00  0.00     0.046 C
BRANCH  11  13
HETATM   13  O5  UNL     1      33.137  44.158  22.638  1.00  0.00    -0.390 OA
ATOM     14  H5  UNL     1      33.310  43.916  23.540  1.00  0.00     0.210 HD
ENDBRANCH  11  13
ENDBRANCH   6  11
ENDBRANCH   3   6
ENDBRANCH   1   2
BRANCH   1  15
HETATM   15  N2  UNL     1      30.582  40.210  18.234  1.00  0.00    -0.409 NA
BRANCH  15  16
HETATM   16  C6  UNL     1      31.273  39.882  17.335  1.00  0.00     0.190 A
HETATM   17  C7  UNL     1      31.167  38.688  16.597  1.00  0.00     0.091 A
HETATM   18  C8  UNL     1      32.195  38.616  15.693  1.00  0.00     0.026 A
HETATM   19  C9  UNL     1      32.498  37.500  14.739  1.00  0.00     0.070 C
HETATM   20  N3  UNL     1      32.898  39.718  15.855  1.00  0.00    -0.303 N
HETATM   21  N4  UNL     1      32.379  40.489  16.819  1.00  0.00    -0.274 N
ATOM     22  H3  UNL     1      33.730  39.954  15.315  1.00  0.00     0.186 HD
ATOM     23  H4  UNL     1      32.753  41.388  17.120  1.00  0.00     0.189 HD
ENDBRANCH  15  16
ENDBRANCH   1  15
BRANCH   1  24
HETATM   24  C10 UNL     1      28.759  41.590  19.199  1.00  0.00     0.018 A
HETATM   25  C11 UNL     1      27.667  41.853  19.993  1.00  0.00     0.045 A
HETATM   26  C12 UNL     1      27.035  42.971  19.528  1.00  0.00     0.050 A
HETATM   27  C13 UNL     1      25.792  43.653  20.060  1.00  0.00     0.076 C
HETATM   28  O4  UNL     1      27.718  43.368  18.486  1.00  0.00    -0.320 OA
HETATM   29  C14 UNL     1      28.754  42.579  18.249  1.00  0.00     0.059 A
HETATM   30  C15 UNL     1      29.720  42.801  17.112  1.00  0.00     0.077 C
ENDBRANCH   1  24
TORSDOF 9
ENDMDL