MODEL 1
REMARK VINA RESULT: -7.141463674      0.000      0.000
REMARK  7 active torsions:
REMARK  status: ('A' for Active; 'I' for Inactive)
REMARK    1  A    between atoms: C3_4  and  N2_6
REMARK    2  A    between atoms: N2_6  and  S1_8
REMARK    3  A    between atoms: S1_8  and  C5_11
REMARK    4  A    between atoms: C10_18  and  C11_19
REMARK    5  A    between atoms: C11_19  and  C12_21
REMARK    6  A    between atoms: C12_21  and  O4_22
REMARK    7  A    between atoms: O4_22  and  C13_23
ROOT
HETATM    1  C5  UNL     1      29.884  42.010  19.542  1.00  0.00     0.117 A
HETATM    2  C6  UNL     1      28.660  42.190  20.198  1.00  0.00     0.030 A
HETATM    3  C7  UNL     1      27.316  42.390  19.555  1.00  0.00     0.070 C
HETATM    4  N3  UNL     1      28.907  42.153  21.504  1.00  0.00    -0.361 N
ATOM      5  H3  UNL     1      28.198  42.257  22.231  1.00  0.00     0.165 HD
HETATM    6  C8  UNL     1      30.230  41.957  21.741  1.00  0.00     0.021 A
HETATM    7  C9  UNL     1      30.782  41.866  23.092  1.00  0.00     0.069 C
HETATM    8  C10 UNL     1      30.857  41.864  20.492  1.00  0.00     0.059 A
ENDROOT
BRANCH   1   9
HETATM    9  S1  UNL     1      29.990  41.986  17.808  1.00  0.00     0.266 S
HETATM   10  O1  UNL     1      29.710  43.299  17.177  1.00  0.00    -0.200 OA
HETATM   11  O2  UNL     1      28.934  41.038  17.232  1.00  0.00    -0.200 OA
BRANCH   9  12
HETATM   12  N2  UNL     1      31.488  41.380  17.236  1.00  0.00    -0.283 N
ATOM     13  H2  UNL     1      32.345  41.761  17.635  1.00  0.00     0.178 HD
BRANCH  12  14
HETATM   14  C3  UNL     1      31.602  40.382  16.240  1.00  0.00     0.036 C
HETATM   15  C2  UNL     1      31.762  40.746  14.996  1.00  0.00     0.043 C
HETATM   16  C1  UNL     1      31.882  39.693  13.956  1.00  0.00     0.067 C
HETATM   17  N1  UNL     1      31.827  42.107  14.596  1.00  0.00    -0.105 NA
HETATM   18  C4  UNL     1      31.540  38.963  16.614  1.00  0.00     0.070 C
ENDBRANCH  12  14
ENDBRANCH   9  12
ENDBRANCH   1   9
BRANCH   8  19
HETATM   19  C11 UNL     1      32.269  41.611  20.276  1.00  0.00     0.187 C
HETATM   20  O3  UNL     1      32.661  40.578  19.646  1.00  0.00    -0.290 OA
BRANCH  19  21
HETATM   21  C12 UNL     1      33.369  42.485  20.742  1.00  0.00     0.261 C
BRANCH  21  22
HETATM   22  O4  UNL     1      34.642  41.885  20.578  1.00  0.00    -0.322 OA
BRANCH  22  23
HETATM   23  C13 UNL     1      35.273  41.440  21.732  1.00  0.00     0.223 C
HETATM   24  N4  UNL     1      34.586  40.694  22.736  1.00  0.00    -0.063 NA
HETATM   25  S2  UNL     1      36.846  41.759  21.987  1.00  0.00    -0.037 SA
ENDBRANCH  22  23
ENDBRANCH  21  22
ENDBRANCH  19  21
ENDBRANCH   8  19
TORSDOF 7
ENDMDL