MODEL 1
REMARK VINA RESULT: -7.699318708      0.000      0.000
REMARK  7 active torsions:
REMARK  status: ('A' for Active; 'I' for Inactive)
REMARK    1  A    between atoms: N1_3  and  C4_5
REMARK    2  A    between atoms: C4_5  and  C5_6
REMARK    3  A    between atoms: C5_6  and  N2_7
REMARK    4  A    between atoms: N2_7  and  C6_9
REMARK    5  A    between atoms: C6_9  and  C7_10
REMARK    6  A    between atoms: C7_10  and  N3_11
REMARK    7  A    between atoms: N3_11  and  C8_13
ROOT
HETATM    1  C1  UNL     1      37.230  41.542  22.256  1.00  0.00     0.123 C
HETATM    2  C2  UNL     1      36.035  41.674  22.022  1.00  0.00    -0.078 C
HETATM    3  N1  UNL     1      34.683  41.823  21.728  1.00  0.00    -0.355 N
HETATM    4  C3  UNL     1      34.307  42.281  20.392  1.00  0.00     0.159 C
ENDROOT
BRANCH   3   5
HETATM    5  C4  UNL     1      33.637  41.540  22.702  1.00  0.00     0.150 C
BRANCH   5   6
HETATM    6  C5  UNL     1      32.285  41.538  22.032  1.00  0.00     0.134 C
BRANCH   6   7
HETATM    7  N2  UNL     1      31.214  41.977  22.839  1.00  0.00    -0.415 N
ATOM      8  H2  UNL     1      31.212  42.898  23.276  1.00  0.00     0.153 HD
BRANCH   7   9
HETATM    9  C6  UNL     1      30.143  41.070  23.009  1.00  0.00     0.158 C
BRANCH   9  10
HETATM   10  C7  UNL     1      30.164  39.967  21.987  1.00  0.00     0.082 C
BRANCH  10  11
HETATM   11  N3  UNL     1      29.491  40.149  20.794  1.00  0.00    -0.353 N
ATOM     12  H3  UNL     1      29.401  39.262  20.300  1.00  0.00     0.166 HD
BRANCH  11  13
HETATM   13  C8  UNL     1      28.959  41.066  20.138  1.00  0.00     0.128 A
HETATM   14  N4  UNL     1      27.789  41.655  20.370  1.00  0.00    -0.344 N
HETATM   15  C9  UNL     1      27.258  42.665  19.626  1.00  0.00     0.025 A
ATOM     16  H4  UNL     1      27.247  41.326  21.169  1.00  0.00     0.167 HD
HETATM   17  C10 UNL     1      25.943  43.255  19.982  1.00  0.00     0.069 C
HETATM   18  C11 UNL     1      27.931  43.156  18.538  1.00  0.00     0.083 A
HETATM   19  C12 UNL     1      27.401  44.173  17.787  1.00  0.00     0.262 A
HETATM   20  C14 UNL     1      29.160  42.578  18.243  1.00  0.00     0.076 A
HETATM   21  O1  UNL     1      26.285  44.716  18.030  1.00  0.00    -0.267 OA
HETATM   22  N5  UNL     1      28.130  44.610  16.720  1.00  0.00    -0.299 N
HETATM   23  C13 UNL     1      29.312  44.060  16.429  1.00  0.00     0.179 A
ATOM     24  H5  UNL     1      27.768  45.366  16.138  1.00  0.00     0.171 HD
HETATM   25  S1  UNL     1      30.163  44.621  15.128  1.00  0.00    -0.040 SA
HETATM   26  N6  UNL     1      29.838  43.061  17.163  1.00  0.00    -0.331 N
ATOM     27  H6  UNL     1      30.744  42.666  16.910  1.00  0.00     0.168 HD
HETATM   28  C15 UNL     1      29.658  41.570  19.011  1.00  0.00     0.116 A
HETATM   29  C16 UNL     1      30.915  40.979  18.702  1.00  0.00     0.105 C
HETATM   30  N7  UNL     1      31.943  40.513  18.441  1.00  0.00    -0.191 NA
ENDBRANCH  11  13
ENDBRANCH  10  11
ENDBRANCH   9  10
ENDBRANCH   7   9
ENDBRANCH   6   7
ENDBRANCH   5   6
ENDBRANCH   3   5
TORSDOF 7
ENDMDL