MODEL 3
REMARK VINA RESULT: -7.402376842      2.506      3.289
REMARK  8 active torsions:
REMARK  status: ('A' for Active; 'I' for Inactive)
REMARK    1  A    between atoms: C2_5  and  N3_6
REMARK    2  A    between atoms: C2_5  and  C12_25
REMARK    3  A    between atoms: N3_6  and  C3_8
REMARK    4  A    between atoms: C3_8  and  C4_9
REMARK    5  A    between atoms: C3_8  and  C6_16
REMARK    6  A    between atoms: C4_9  and  S1_10
REMARK    7  A    between atoms: S1_10  and  C5_11
REMARK       I    between atoms: C6_16  and  N6_18
REMARK    8  A    between atoms: N6_18  and  C7_20
ROOT
HETATM    1  N1  UNL     1      34.148  41.056  22.450  1.00  0.00    -0.172 NA
HETATM    2  C1  UNL     1      33.571  41.109  21.469  1.00  0.00     0.183 C
HETATM    3  N2  UNL     1      32.937  41.173  20.300  1.00  0.00    -0.281 N
ATOM      4  H2  UNL     1      33.633  41.322  19.569  1.00  0.00     0.179 HD
HETATM    5  C2  UNL     1      31.826  41.121  19.763  1.00  0.00     0.116 C
ENDROOT
BRANCH   5   6
HETATM    6  N3  UNL     1      31.801  41.270  18.309  1.00  0.00    -0.363 N
ATOM      7  H3  UNL     1      32.356  41.989  17.846  1.00  0.00     0.161 HD
BRANCH   6   8
HETATM    8  C3  UNL     1      30.961  40.360  17.541  1.00  0.00     0.184 C
BRANCH   8   9
HETATM    9  C4  UNL     1      29.647  40.829  17.134  1.00  0.00     0.116 C
BRANCH   9  10
HETATM   10  S1  UNL     1      29.473  42.603  17.251  1.00  0.00    -0.095 SA
BRANCH  10  11
HETATM   11  C5  UNL     1      30.266  43.502  15.917  1.00  0.00     0.147 C
HETATM   12  N4  UNL     1      30.251  44.748  16.004  1.00  0.00    -0.382 N
ATOM     13  H42 UNL     1      29.856  45.208  16.824  1.00  0.00     0.157 HD
ATOM     14  H41 UNL     1      30.702  45.259  15.245  1.00  0.00     0.157 HD
HETATM   15  N5  UNL     1      30.811  42.867  14.785  1.00  0.00    -0.075 NA
ENDBRANCH  10  11
ENDBRANCH   9  10
ENDBRANCH   8   9
BRANCH   8  16
HETATM   16  C6  UNL     1      31.836  39.819  16.489  1.00  0.00     0.241 C
HETATM   17  O1  UNL     1      31.788  38.580  16.183  1.00  0.00    -0.271 OA
HETATM   18  N6  UNL     1      32.779  40.596  15.785  1.00  0.00    -0.355 N
ATOM     19  H6  UNL     1      32.847  41.594  15.980  1.00  0.00     0.162 HD
BRANCH  18  20
HETATM   20  C7  UNL     1      33.659  40.003  14.784  1.00  0.00     0.084 C
HETATM   21  C8  UNL     1      33.177  40.146  13.385  1.00  0.00     0.025 C
HETATM   22  C9  UNL     1      34.276  40.837  12.575  1.00  0.00     0.002 C
HETATM   23  C10 UNL     1      35.513  40.765  13.436  1.00  0.00     0.002 C
HETATM   24  C11 UNL     1      34.957  40.839  14.860  1.00  0.00     0.025 C
ENDBRANCH  18  20
ENDBRANCH   8  16
ENDBRANCH   6   8
ENDBRANCH   5   6
BRANCH   5  25
HETATM   25  C12 UNL     1      30.571  40.913  20.505  1.00  0.00     0.189 C
HETATM   26  C13 UNL     1      30.018  42.171  21.148  1.00  0.00     0.040 C
HETATM   27  C14 UNL     1      30.433  42.319  22.568  1.00  0.00     0.005 C
HETATM   28  C15 UNL     1      30.115  41.074  23.385  1.00  0.00     0.026 C
HETATM   29  C16 UNL     1      29.734  39.969  22.417  1.00  0.00     0.168 C
HETATM   30  O2  UNL     1      30.675  39.873  21.380  1.00  0.00    -0.378 OA
ENDBRANCH   5  25
TORSDOF 8
ENDMDL