MODEL 2
REMARK VINA RESULT: -7.616438172      2.751      4.298
REMARK  10 active torsions:
REMARK  status: ('A' for Active; 'I' for Inactive)
REMARK       I    between atoms: N2_3  and  C2_5
REMARK       I    between atoms: C2_5  and  N3_7
REMARK    1  A    between atoms: N3_7  and  C3_9
REMARK    2  A    between atoms: C3_9  and  C4_10
REMARK    3  A    between atoms: C6_12  and  N4_13
REMARK    4  A    between atoms: N4_13  and  N5_15
REMARK    5  A    between atoms: N5_15  and  C7_17
REMARK    6  A    between atoms: C7_17  and  C8_18
REMARK    7  A    between atoms: C8_18  and  C9_19
REMARK    8  A    between atoms: C9_19  and  C10_20
REMARK    9  A    between atoms: C10_20  and  C11_21
REMARK   10  A    between atoms: C11_21  and  C12_22
ROOT
HETATM    1  N1  UNL     1      38.043  40.800  22.595  1.00  0.00    -0.172 NA
HETATM    2  C1  UNL     1      37.164  41.456  22.288  1.00  0.00     0.185 C
HETATM    3  N2  UNL     1      36.124  42.311  21.915  1.00  0.00    -0.245 N
ATOM      4  H2  UNL     1      36.354  43.168  21.413  1.00  0.00     0.183 HD
HETATM    5  C2  UNL     1      34.737  42.032  22.210  1.00  0.00     0.329 C
HETATM    6  O1  UNL     1      34.447  40.979  22.800  1.00  0.00    -0.246 OA
HETATM    7  N3  UNL     1      33.780  43.009  21.829  1.00  0.00    -0.338 N
ATOM      8  H3  UNL     1      34.111  43.795  21.270  1.00  0.00     0.164 HD
ENDROOT
BRANCH   7   9
HETATM    9  C3  UNL     1      32.367  42.979  22.171  1.00  0.00     0.163 C
BRANCH   9  10
HETATM   10  C4  UNL     1      31.681  42.012  21.232  1.00  0.00    -0.026 A
HETATM   11  C5  UNL     1      31.927  41.986  19.879  1.00  0.00     0.059 A
HETATM   12  C6  UNL     1      31.329  40.991  19.070  1.00  0.00     0.122 A
HETATM   13  N6  UNL     1      30.514  40.105  19.722  1.00  0.00    -0.322 N
HETATM   14  C13 UNL     1      30.248  40.098  21.024  1.00  0.00     0.150 A
ATOM     15  H6  UNL     1      30.070  39.382  19.156  1.00  0.00     0.169 HD
HETATM   16  C14 UNL     1      30.845  41.064  21.780  1.00  0.00     0.003 A
HETATM   17  O4  UNL     1      29.451  39.305  21.900  1.00  0.00    -0.335 OA
HETATM   18  C15 UNL     1      30.415  40.888  23.209  1.00  0.00     0.070 C
HETATM   19  C16 UNL     1      29.065  40.196  22.984  1.00  0.00     0.182 C
BRANCH  12  20
HETATM   20  N4  UNL     1      31.642  40.835  17.875  1.00  0.00    -0.286 N
ATOM     21  H4  UNL     1      32.303  40.093  17.641  1.00  0.00     0.188 HD
BRANCH  20  22
HETATM   22  N5  UNL     1      31.140  41.613  16.849  1.00  0.00    -0.310 N
ATOM     23  H5  UNL     1      31.466  42.573  16.735  1.00  0.00     0.186 HD
BRANCH  22  24
HETATM   24  C7  UNL     1      30.272  41.142  16.043  1.00  0.00     0.107 C
BRANCH  24  25
HETATM   25  C8  UNL     1      29.704  39.810  16.258  1.00  0.00     0.019 C
BRANCH  25  26
HETATM   26  C9  UNL     1      30.015  38.784  15.506  1.00  0.00     0.002 C
BRANCH  26  27
HETATM   27  C10 UNL     1      31.129  37.890  15.704  1.00  0.00     0.007 C
BRANCH  27  28
HETATM   28  C11 UNL     1      32.261  37.965  15.116  1.00  0.00     0.084 C
BRANCH  28  29
HETATM   29  C12 UNL     1      33.412  38.783  15.336  1.00  0.00     0.198 C
HETATM   30  O2  UNL     1      34.591  38.240  15.448  1.00  0.00    -0.645 OA
HETATM   31  O3  UNL     1      33.459  40.154  15.467  1.00  0.00    -0.645 OA
ENDBRANCH  28  29
ENDBRANCH  27  28
ENDBRANCH  26  27
ENDBRANCH  25  26
ENDBRANCH  24  25
ENDBRANCH  22  24
ENDBRANCH  20  22
ENDBRANCH  12  20
ENDBRANCH   9  10
ENDBRANCH   7   9
TORSDOF 10
ENDMDL