MODEL 5
REMARK VINA RESULT: -6.153391662      3.184      5.741
REMARK  8 active torsions:
REMARK  status: ('A' for Active; 'I' for Inactive)
REMARK       I    between atoms: N1_2  and  C2_4
REMARK    1  A    between atoms: C2_4  and  O2_6
REMARK    2  A    between atoms: O2_6  and  C3_7
REMARK    3  A    between atoms: C3_7  and  C4_8
REMARK    4  A    between atoms: C4_8  and  C5_9
REMARK    5  A    between atoms: C5_9  and  O4_11
REMARK    6  A    between atoms: O4_11  and  C6_12
REMARK    7  A    between atoms: C11_20  and  C12_21
REMARK    8  A    between atoms: C12_21  and  N3_22
REMARK       I    between atoms: N3_22  and  C13_24
ROOT
HETATM    1  C4  UNL     1      27.230  41.623  16.285  1.00  0.00     0.237 C
HETATM    2  N2  UNL     1      27.475  42.993  16.392  1.00  0.00    -0.054 N
ATOM      3  H21 UNL     1      26.693  43.510  16.795  1.00  0.00     0.278 HD
ATOM      4  H22 UNL     1      27.495  43.469  15.490  1.00  0.00     0.278 HD
HETATM    5  C9  UNL     1      28.693  43.142  17.135  1.00  0.00     0.239 C
HETATM    6  C10 UNL     1      28.865  41.912  17.965  1.00  0.00     0.024 C
HETATM    7  C11 UNL     1      28.794  42.270  19.457  1.00  0.00     0.010 C
HETATM    8  C14 UNL     1      27.384  42.766  19.576  1.00  0.00     0.007 C
HETATM    9  C15 UNL     1      26.615  41.811  18.713  1.00  0.00     0.008 C
HETATM   10  C16 UNL     1      27.574  41.174  17.729  1.00  0.00     0.040 C
ENDROOT
BRANCH   1  11
HETATM   11  C3  UNL     1      26.026  41.016  15.744  1.00  0.00     0.230 C
BRANCH  11  12
HETATM   12  O2  UNL     1      25.390  39.901  16.164  1.00  0.00    -0.301 OA
BRANCH  12  13
HETATM   13  C2  UNL     1      24.113  39.658  16.563  1.00  0.00     0.360 C
HETATM   14  N1  UNL     1      23.109  40.671  16.695  1.00  0.00    -0.341 N
HETATM   15  C1  UNL     1      21.789  40.407  17.169  1.00  0.00     0.151 C
ATOM     16  H1  UNL     1      23.349  41.628  16.438  1.00  0.00     0.164 HD
HETATM   17  O1  UNL     1      23.798  38.484  16.841  1.00  0.00    -0.239 OA
ENDBRANCH  12  13
ENDBRANCH  11  12
ENDBRANCH   1  11
BRANCH   1  18
HETATM   18  C5  UNL     1      28.395  41.049  15.433  1.00  0.00     0.298 C
HETATM   19  O3  UNL     1      28.795  41.626  14.458  1.00  0.00    -0.262 OA
BRANCH  18  20
HETATM   20  O4  UNL     1      28.938  39.864  15.839  1.00  0.00    -0.315 OA
BRANCH  20  21
HETATM   21  C6  UNL     1      30.162  39.292  15.593  1.00  0.00     0.123 C
HETATM   22  C7  UNL     1      29.853  37.810  15.053  1.00  0.00     0.040 C
HETATM   23  C8  UNL     1      30.960  39.032  16.841  1.00  0.00     0.040 C
ENDBRANCH  20  21
ENDBRANCH  18  20
ENDBRANCH   1  18
BRANCH   7  24
HETATM   24  C12 UNL     1      28.922  40.980  20.251  1.00  0.00     0.129 C
BRANCH  24  25
HETATM   25  N3  UNL     1      28.928  41.261  21.656  1.00  0.00    -0.345 N
HETATM   26  C13 UNL     1      30.066  40.855  22.442  1.00  0.00     0.328 C
HETATM   27  N4  UNL     1      30.075  41.130  23.836  1.00  0.00    -0.040 NA
HETATM   28  O5  UNL     1      31.035  40.268  21.925  1.00  0.00    -0.251 OA
ATOM     29  H3  UNL     1      28.141  41.741  22.093  1.00  0.00     0.163 HD
ENDBRANCH  24  25
ENDBRANCH   7  24
TORSDOF 8
ENDMDL