MODEL 2
REMARK VINA RESULT: -6.303811571      1.495      1.745
REMARK  10 active torsions:
REMARK  status: ('A' for Active; 'I' for Inactive)
REMARK    1  A    between atoms: C2_2  and  C4_4
REMARK    2  A    between atoms: C4_4  and  C5_5
REMARK    3  A    between atoms: C5_5  and  O1_6
REMARK    4  A    between atoms: C5_5  and  C17_30
REMARK    5  A    between atoms: O1_6  and  C6_7
REMARK    6  A    between atoms: C9_10  and  N1_11
REMARK       I    between atoms: N1_11  and  C10_13
REMARK       I    between atoms: C10_13  and  N2_15
REMARK    7  A    between atoms: N2_15  and  C11_17
REMARK    8  A    between atoms: C11_17  and  O3_18
REMARK    9  A    between atoms: C11_17  and  C12_20
REMARK   10  A    between atoms: C12_20  and  N3_21
ROOT
HETATM    1  C6  UNL     1      28.211  41.913  19.576  1.00  0.00     0.124 C
HETATM    2  C7  UNL     1      28.730  42.689  20.755  1.00  0.00     0.034 C
HETATM    3  C8  UNL     1      30.105  42.392  21.187  1.00  0.00     0.029 C
HETATM    4  C9  UNL     1      31.053  41.991  20.091  1.00  0.00     0.108 C
HETATM    5  C13 UNL     1      30.483  40.896  19.255  1.00  0.00     0.068 C
HETATM    6  C14 UNL     1      30.048  39.697  20.034  1.00  0.00     0.033 C
HETATM    7  C15 UNL     1      31.405  40.552  18.173  1.00  0.00     0.071 C
HETATM    8  N4  UNL     1      32.146  40.269  17.329  1.00  0.00    -0.196 NA
HETATM    9  C16 UNL     1      29.246  41.518  18.595  1.00  0.00     0.058 C
ENDROOT
BRANCH   4  10
HETATM   10  N1  UNL     1      32.348  41.652  20.683  1.00  0.00    -0.337 N
HETATM   11  C10 UNL     1      33.212  42.620  21.208  1.00  0.00     0.322 C
HETATM   12  O2  UNL     1      32.769  43.828  21.126  1.00  0.00    -0.247 OA
HETATM   13  N2  UNL     1      34.451  42.423  21.788  1.00  0.00    -0.291 N
ATOM     14  H2  UNL     1      34.897  43.286  22.099  1.00  0.00     0.172 HD
ATOM     15  H1  UNL     1      32.632  40.673  20.713  1.00  0.00     0.164 HD
BRANCH  13  16
HETATM   16  C11 UNL     1      35.214  41.282  22.033  1.00  0.00     0.145 C
BRANCH  16  17
HETATM   17  O3  UNL     1      34.618  40.126  22.035  1.00  0.00    -0.348 OA
ATOM     18  H3  UNL     1      33.775  40.052  22.466  1.00  0.00     0.219 HD
ENDBRANCH  16  17
BRANCH  16  19
HETATM   19  C12 UNL     1      36.658  41.192  22.303  1.00  0.00     0.313 C
BRANCH  19  20
HETATM   20  N3  UNL     1      37.321  42.500  22.220  1.00  0.00    -0.072 N
ATOM     21  H33 UNL     1      37.013  43.018  21.396  1.00  0.00     0.274 HD
ATOM     22  H32 UNL     1      36.982  43.132  22.944  1.00  0.00     0.274 HD
ATOM     23  H31 UNL     1      38.337  42.419  22.247  1.00  0.00     0.274 HD
ENDBRANCH  19  20
ENDBRANCH  16  19
ENDBRANCH  13  16
ENDBRANCH   4  10
BRANCH   1  24
HETATM   24  O1  UNL     1      27.235  42.665  18.924  1.00  0.00    -0.371 OA
BRANCH  24  25
HETATM   25  C5  UNL     1      25.966  42.130  19.027  1.00  0.00     0.211 C
BRANCH  25  26
HETATM   26  C4  UNL     1      25.498  41.508  17.765  1.00  0.00     0.045 C
BRANCH  26  27
HETATM   27  C2  UNL     1      26.093  42.039  16.498  1.00  0.00    -0.020 C
HETATM   28  C1  UNL     1      26.874  40.938  15.784  1.00  0.00     0.009 C
HETATM   29  C3  UNL     1      24.999  42.483  15.531  1.00  0.00     0.009 C
ENDBRANCH  26  27
ENDBRANCH  25  26
BRANCH  25  30
HETATM   30  C17 UNL     1      25.032  43.294  19.283  1.00  0.00     0.260 C
HETATM   31  N5  UNL     1      25.495  44.461  19.928  1.00  0.00    -0.060 NA
HETATM   32  O4  UNL     1      23.852  43.124  18.880  1.00  0.00    -0.274 OA
ENDBRANCH  25  30
ENDBRANCH  24  25
ENDBRANCH   1  24
TORSDOF 10
ENDMDL