MODEL 5
REMARK VINA RESULT: -6.643449893      3.062      5.573
REMARK  7 active torsions:
REMARK  status: ('A' for Active; 'I' for Inactive)
REMARK    1  A    between atoms: C2_2  and  O1_3
REMARK    2  A    between atoms: N1_5  and  C3_7
REMARK    3  A    between atoms: N3_11  and  C5_13
REMARK    4  A    between atoms: C5_13  and  C6_14
REMARK    5  A    between atoms: C10_20  and  N4_21
REMARK    6  A    between atoms: N4_21  and  C11_23
REMARK    7  A    between atoms: C16_28  and  C17_29
ROOT
HETATM    1  C3  UNL     1      29.670  42.060  21.104  1.00  0.00     0.124 A
HETATM    2  N2  UNL     1      28.449  42.375  20.639  1.00  0.00    -0.326 N
ATOM      3  H2  UNL     1      27.816  42.869  21.269  1.00  0.00     0.169 HD
HETATM    4  C4  UNL     1      27.994  42.081  19.383  1.00  0.00     0.130 A
HETATM    5  N3  UNL     1      26.822  42.391  18.964  1.00  0.00    -0.372 N
ATOM      6  H3  UNL     1      26.548  42.140  18.015  1.00  0.00     0.161 HD
HETATM    7  C10 UNL     1      28.793  41.420  18.485  1.00  0.00     0.080 A
HETATM    8  C14 UNL     1      30.054  41.073  18.908  1.00  0.00    -0.013 A
HETATM    9  C15 UNL     1      30.937  40.418  17.901  1.00  0.00     0.052 C
HETATM   10  C16 UNL     1      30.503  41.379  20.205  1.00  0.00     0.081 A
ENDROOT
BRANCH   5  11
HETATM   11  C5  UNL     1      25.891  43.083  19.806  1.00  0.00     0.155 C
BRANCH  11  12
HETATM   12  C6  UNL     1      24.666  43.579  19.077  1.00  0.00     0.163 C
HETATM   13  C7  UNL     1      24.928  43.481  17.608  1.00  0.00     0.201 C
HETATM   14  O2  UNL     1      25.846  44.434  17.172  1.00  0.00    -0.386 OA
HETATM   15  C8  UNL     1      25.337  45.674  17.473  1.00  0.00     0.193 C
HETATM   16  C9  UNL     1      25.188  45.839  18.954  1.00  0.00     0.194 C
HETATM   17  O3  UNL     1      24.366  44.876  19.499  1.00  0.00    -0.380 OA
ENDBRANCH  11  12
ENDBRANCH   5  11
BRANCH   7  18
HETATM   18  N4  UNL     1      28.302  41.121  17.172  1.00  0.00    -0.383 N
ATOM     19  H4  UNL     1      27.720  40.289  17.071  1.00  0.00     0.160 HD
BRANCH  18  20
HETATM   20  C11 UNL     1      28.554  41.879  16.009  1.00  0.00     0.073 C
HETATM   21  C12 UNL     1      29.018  43.271  16.131  1.00  0.00     0.031 C
HETATM   22  C13 UNL     1      27.283  41.869  15.147  1.00  0.00     0.031 C
ENDBRANCH  18  20
ENDBRANCH   7  18
BRANCH   1  23
HETATM   23  N1  UNL     1      30.134  42.552  22.360  1.00  0.00    -0.326 N
HETATM   24  C2  UNL     1      31.175  43.359  22.720  1.00  0.00     0.112 C
HETATM   25  C1  UNL     1      32.081  44.118  21.877  1.00  0.00     0.097 C
ATOM     26  H1  UNL     1      29.573  42.235  23.151  1.00  0.00     0.169 HD
BRANCH  24  27
HETATM   27  O1  UNL     1      31.407  43.490  23.993  1.00  0.00    -0.350 OA
ATOM     28  H1  UNL     1      32.317  43.670  24.201  1.00  0.00     0.219 HD
ENDBRANCH  24  27
ENDBRANCH   1  23
BRANCH  10  29
HETATM   29  C17 UNL     1      31.748  40.849  20.662  1.00  0.00     0.269 C
HETATM   30  N5  UNL     1      33.053  41.106  20.141  1.00  0.00    -0.057 NA
HETATM   31  O4  UNL     1      31.789  40.043  21.647  1.00  0.00    -0.271 OA
ENDBRANCH  10  29
TORSDOF 7
ENDMDL