MODEL 5
REMARK VINA RESULT: -6.670752955      4.196      6.493
REMARK  7 active torsions:
REMARK  status: ('A' for Active; 'I' for Inactive)
REMARK    1  A    between atoms: C2_2  and  C4_4
REMARK    2  A    between atoms: C2_2  and  S1_25
REMARK    3  A    between atoms: C4_4  and  N1_5
REMARK    4  A    between atoms: N1_5  and  C5_7
REMARK    5  A    between atoms: C6_10  and  C7_11
REMARK    6  A    between atoms: C7_11  and  N3_12
REMARK    7  A    between atoms: N3_12  and  C8_14
ROOT
HETATM    1  C5  UNL     1      32.054  40.082  15.698  1.00  0.00     0.271 C
HETATM    2  N2  UNL     1      32.131  40.305  17.104  1.00  0.00    -0.387 N
ATOM      3  H2  UNL     1      32.968  40.071  17.637  1.00  0.00     0.156 HD
HETATM    4  C6  UNL     1      30.990  40.865  17.725  1.00  0.00     0.114 C
HETATM    5  C14 UNL     1      30.400  42.081  17.086  1.00  0.00     0.149 C
HETATM    6  N4  UNL     1      30.350  41.888  15.651  1.00  0.00    -0.356 N
ATOM      7  H4  UNL     1      30.034  42.630  15.025  1.00  0.00     0.162 HD
HETATM    8  C15 UNL     1      30.767  40.595  15.142  1.00  0.00     0.260 C
HETATM    9  O1  UNL     1      30.047  40.007  14.304  1.00  0.00    -0.269 OA
ENDROOT
BRANCH   1  10
HETATM   10  N1  UNL     1      33.141  40.693  15.053  1.00  0.00    -0.373 N
ATOM     11  H1  UNL     1      33.485  41.565  15.453  1.00  0.00     0.161 HD
BRANCH  10  12
HETATM   12  C4  UNL     1      33.786  40.224  13.929  1.00  0.00     0.082 C
BRANCH  12  13
HETATM   13  C2  UNL     1      35.267  40.192  13.793  1.00  0.00     0.087 C
HETATM   14  C1  UNL     1      35.974  41.150  14.713  1.00  0.00     0.037 C
HETATM   15  C3  UNL     1      35.742  40.219  12.391  1.00  0.00     0.037 C
BRANCH  13  16
HETATM   16  S1  UNL     1      35.824  38.549  14.447  1.00  0.00     0.153 S
HETATM   17  C16 UNL     1      35.534  37.379  13.166  1.00  0.00     0.162 C
HETATM   18  O2  UNL     1      34.938  38.291  15.623  1.00  0.00    -0.227 OA
HETATM   19  O3  UNL     1      37.225  38.639  14.900  1.00  0.00    -0.227 OA
ENDBRANCH  13  16
ENDBRANCH  12  13
ENDBRANCH  10  12
ENDBRANCH   1  10
BRANCH   4  20
HETATM   20  C7  UNL     1      31.370  41.269  19.162  1.00  0.00     0.140 C
BRANCH  20  21
HETATM   21  N3  UNL     1      30.409  42.213  19.603  1.00  0.00    -0.415 N
ATOM     22  H3  UNL     1      30.146  43.017  19.034  1.00  0.00     0.153 HD
BRANCH  21  23
HETATM   23  C8  UNL     1      29.829  41.977  20.887  1.00  0.00     0.076 C
HETATM   24  C9  UNL     1      28.907  40.790  20.795  1.00  0.00     0.024 C
HETATM   25  C10 UNL     1      29.556  39.618  21.489  1.00  0.00     0.002 C
HETATM   26  C11 UNL     1      29.505  39.878  22.990  1.00  0.00     0.000 C
HETATM   27  C12 UNL     1      30.202  41.178  23.237  1.00  0.00     0.002 C
HETATM   28  C13 UNL     1      30.816  41.758  21.981  1.00  0.00     0.024 C
ENDBRANCH  21  23
ENDBRANCH  20  21
ENDBRANCH   4  20
TORSDOF 7
ENDMDL