MODEL 2
REMARK VINA RESULT: -8.131779920      1.579      2.081
REMARK  9 active torsions:
REMARK  status: ('A' for Active; 'I' for Inactive)
REMARK    1  A    between atoms: O1_2  and  C2_3
REMARK    2  A    between atoms: C5_6  and  C6_7
REMARK    3  A    between atoms: C6_7  and  N1_8
REMARK       I    between atoms: N1_8  and  C7_10
REMARK    4  A    between atoms: C7_10  and  C8_12
REMARK    5  A    between atoms: C8_12  and  N2_13
REMARK    6  A    between atoms: C8_12  and  C9_17
REMARK    7  A    between atoms: C14_26  and  N5_27
REMARK    8  A    between atoms: N5_27  and  C15_29
REMARK    9  A    between atoms: C15_29  and  O3_30
ROOT
HETATM    1  N1  UNL     1       5.052   6.064   9.428  1.00  0.00    -0.290 N
ATOM      2  H1  UNL     1       5.611   6.912   9.530  1.00  0.00     0.178 HD
HETATM    3  C7  UNL     1       3.941   5.831  10.365  1.00  0.00     0.267 C
HETATM    4  O2  UNL     1       3.299   4.768  10.162  1.00  0.00    -0.270 OA
ENDROOT
BRANCH   1   5
HETATM    5  C6  UNL     1       5.355   5.210   8.454  1.00  0.00    -0.027 C
BRANCH   5   6
HETATM    6  C5  UNL     1       5.672   4.318   7.431  1.00  0.00     0.035 A
HETATM    7  C4  UNL     1       7.008   4.036   7.048  1.00  0.00     0.025 A
HETATM    8  C3  UNL     1       7.315   3.253   5.963  1.00  0.00     0.040 A
HETATM    9  C2  UNL     1       6.307   2.715   5.220  1.00  0.00     0.095 A
HETATM   10  C14 UNL     1       4.969   2.965   5.569  1.00  0.00     0.074 A
HETATM   11  C12 UNL     1       4.657   3.738   6.633  1.00  0.00    -0.013 A
HETATM   12  C13 UNL     1       3.245   4.022   6.967  1.00  0.00     0.052 C
BRANCH   9  13
HETATM   13  O1  UNL     1       6.528   1.927   4.122  1.00  0.00    -0.354 OA
HETATM   14  C1  UNL     1       6.921   2.451   2.881  1.00  0.00     0.210 C
ENDBRANCH   9  13
BRANCH  10  15
HETATM   15  N5  UNL     1       3.981   2.344   4.788  1.00  0.00    -0.345 N
ATOM     16  H5  UNL     1       3.774   1.365   4.984  1.00  0.00     0.167 HD
BRANCH  15  17
HETATM   17  C15 UNL     1       3.268   2.959   3.773  1.00  0.00     0.223 C
BRANCH  17  18
HETATM   18  O3  UNL     1       2.109   2.383   3.514  1.00  0.00    -0.356 OA
ATOM     19  H3  UNL     1       1.654   2.072   4.288  1.00  0.00     0.218 HD
ENDBRANCH  17  18
ENDBRANCH  15  17
ENDBRANCH  10  15
ENDBRANCH   5   6
ENDBRANCH   1   5
BRANCH   3  20
HETATM   20  C8  UNL     1       3.609   6.755  11.440  1.00  0.00     0.342 C
BRANCH  20  21
HETATM   21  N2  UNL     1       4.718   7.582  11.828  1.00  0.00    -0.059 N
ATOM     22  H23 UNL     1       5.562   7.024  11.956  1.00  0.00     0.275 HD
ATOM     23  H22 UNL     1       5.024   8.170  11.052  1.00  0.00     0.275 HD
ATOM     24  H21 UNL     1       4.522   8.143  12.657  1.00  0.00     0.275 HD
ENDBRANCH  20  21
BRANCH  20  25
HETATM   25  C9  UNL     1       3.103   5.958  12.600  1.00  0.00     0.121 A
HETATM   26  N3  UNL     1       3.543   4.734  12.954  1.00  0.00    -0.352 N
HETATM   27  C10 UNL     1       2.884   4.291  14.018  1.00  0.00     0.106 A
ATOM     28  H3  UNL     1       4.280   4.219  12.470  1.00  0.00     0.166 HD
HETATM   29  C11 UNL     1       1.969   5.282  14.377  1.00  0.00     0.106 A
HETATM   30  N4  UNL     1       2.136   6.287  13.481  1.00  0.00    -0.352 N
ATOM     31  H4  UNL     1       1.609   7.160  13.474  1.00  0.00     0.166 HD
ENDBRANCH  20  25
ENDBRANCH   3  20
TORSDOF 9
ENDMDL