MODEL 3
REMARK VINA RESULT: -8.792093316      2.143      2.681
REMARK  9 active torsions:
REMARK  status: ('A' for Active; 'I' for Inactive)
REMARK    1  A    between atoms: C2_2  and  N1_3
REMARK    2  A    between atoms: N1_3  and  C3_5
REMARK    3  A    between atoms: C3_5  and  C4_9
REMARK    4  A    between atoms: C4_9  and  N3_10
REMARK    5  A    between atoms: C4_9  and  C5_14
REMARK    6  A    between atoms: C5_14  and  C6_15
REMARK    7  A    between atoms: C9_22  and  O1_23
REMARK    8  A    between atoms: C9_22  and  C10_25
REMARK    9  A    between atoms: C14_29  and  N6_30
ROOT
HETATM    1  C3  UNL     1       5.611   3.653   7.097  1.00  0.00     0.106 C
HETATM    2  N2  UNL     1       6.781   3.929   6.643  1.00  0.00    -0.387 N
ATOM      3  H21 UNL     1       6.890   4.054   5.637  1.00  0.00     0.157 HD
ATOM      4  H22 UNL     1       7.554   4.031   7.300  1.00  0.00     0.157 HD
ENDROOT
BRANCH   1   5
HETATM    5  N1  UNL     1       5.461   3.481   8.480  1.00  0.00    -0.343 N
ATOM      6  H1  UNL     1       5.719   2.600   8.925  1.00  0.00     0.167 HD
BRANCH   5   7
HETATM    7  C2  UNL     1       4.914   4.614   9.291  1.00  0.00     0.058 C
HETATM    8  C1  UNL     1       5.782   5.574   9.474  1.00  0.00     0.046 C
HETATM    9  C9  UNL     1       3.559   4.451   9.698  1.00  0.00     0.101 C
BRANCH   9  10
HETATM   10  O1  UNL     1       3.050   3.287   9.315  1.00  0.00    -0.358 OA
ATOM     11  H1  UNL     1       3.575   2.549   9.601  1.00  0.00     0.217 HD
ENDBRANCH   9  10
BRANCH   9  12
HETATM   12  C10 UNL     1       2.653   5.279  10.427  1.00  0.00     0.002 A
HETATM   13  C11 UNL     1       1.822   6.161   9.684  1.00  0.00     0.014 A
HETATM   14  C12 UNL     1       0.960   6.982  10.360  1.00  0.00     0.003 A
HETATM   15  C13 UNL     1       0.850   7.006  11.714  1.00  0.00     0.036 A
HETATM   16  C14 UNL     1       1.641   6.167  12.446  1.00  0.00     0.103 A
HETATM   17  C15 UNL     1       2.538   5.309  11.788  1.00  0.00     0.050 A
BRANCH  16  18
HETATM   18  N6  UNL     1       1.550   6.169  13.863  1.00  0.00    -0.116 N
HETATM   19  O2  UNL     1       1.531   7.235  14.511  1.00  0.00    -0.532 OA
HETATM   20  O3  UNL     1       1.479   5.003  14.557  1.00  0.00    -0.532 OA
ENDBRANCH  16  18
ENDBRANCH   9  12
ENDBRANCH   5   7
ENDBRANCH   1   5
BRANCH   1  21
HETATM   21  C4  UNL     1       4.492   3.503   6.146  1.00  0.00     0.255 C
BRANCH  21  22
HETATM   22  N3  UNL     1       3.642   2.414   6.591  1.00  0.00    -0.068 N
ATOM     23  H33 UNL     1       2.916   2.183   5.912  1.00  0.00     0.275 HD
ATOM     24  H32 UNL     1       4.126   1.516   6.590  1.00  0.00     0.275 HD
ATOM     25  H31 UNL     1       3.258   2.649   7.506  1.00  0.00     0.275 HD
ENDBRANCH  21  22
BRANCH  21  26
HETATM   26  C5  UNL     1       3.647   4.708   5.985  1.00  0.00     0.099 C
BRANCH  26  27
HETATM   27  C6  UNL     1       4.061   5.682   4.973  1.00  0.00     0.028 A
HETATM   28  C7  UNL     1       3.245   5.961   3.864  1.00  0.00     0.114 A
HETATM   29  N4  UNL     1       3.887   6.886   3.144  1.00  0.00    -0.360 N
HETATM   30  C8  UNL     1       5.052   7.208   3.727  1.00  0.00     0.180 A
ATOM     31  H4  UNL     1       3.540   7.290   2.274  1.00  0.00     0.166 HD
HETATM   32  N5  UNL     1       5.127   6.467   4.823  1.00  0.00    -0.355 N
ATOM     33  H5  UNL     1       5.910   6.495   5.476  1.00  0.00     0.166 HD
ENDBRANCH  26  27
ENDBRANCH  21  26
ENDBRANCH   1  21
TORSDOF 9
ENDMDL