MODEL 5
REMARK VINA RESULT: -8.261580209      1.521      1.784
REMARK  9 active torsions:
REMARK  status: ('A' for Active; 'I' for Inactive)
REMARK    1  A    between atoms: C2_2  and  C3_3
REMARK    2  A    between atoms: C3_3  and  O1_4
REMARK    3  A    between atoms: O1_4  and  C4_5
REMARK    4  A    between atoms: C6_7  and  N1_8
REMARK    5  A    between atoms: N1_8  and  C7_9
REMARK    6  A    between atoms: C7_9  and  O2_11
REMARK    7  A    between atoms: C8_13  and  N3_14
REMARK    8  A    between atoms: C10_18  and  C11_19
REMARK    9  A    between atoms: N4_20  and  N5_22
ROOT
HETATM    1  C4  UNL     1       4.710   4.396   8.245  1.00  0.00     0.084 A
HETATM    2  C5  UNL     1       5.399   3.625   7.285  1.00  0.00     0.085 A
HETATM    3  C6  UNL     1       4.942   3.380   6.010  1.00  0.00     0.146 A
HETATM    4  C8  UNL     1       3.707   3.960   5.685  1.00  0.00     0.144 A
HETATM    5  C9  UNL     1       3.039   4.702   6.617  1.00  0.00     0.055 A
HETATM    6  C10 UNL     1       3.504   4.932   7.877  1.00  0.00     0.017 A
ENDROOT
BRANCH   6   7
HETATM    7  C11 UNL     1       2.673   5.729   8.814  1.00  0.00     0.121 C
HETATM    8  N4  UNL     1       2.336   5.259   9.929  1.00  0.00    -0.309 N
ATOM      9  H4  UNL     1       2.717   4.319  10.035  1.00  0.00     0.186 HD
BRANCH   8  10
HETATM   10  N5  UNL     1       1.653   5.584  11.000  1.00  0.00    -0.276 N
HETATM   11  C12 UNL     1       1.948   6.130  12.118  1.00  0.00     0.215 C
HETATM   12  N6  UNL     1       3.305   6.514  12.358  1.00  0.00    -0.065 NA
HETATM   13  N7  UNL     1       0.982   6.380  13.128  1.00  0.00    -0.065 NA
ATOM     14  H5  UNL     1       0.663   5.347  10.926  1.00  0.00     0.189 HD
ENDBRANCH   8  10
ENDBRANCH   6   7
BRANCH   1  15
HETATM   15  O1  UNL     1       5.206   4.626   9.513  1.00  0.00    -0.346 OA
BRANCH  15  16
HETATM   16  C3  UNL     1       5.979   5.655   9.978  1.00  0.00     0.202 C
BRANCH  16  17
HETATM   17  C2  UNL     1       6.853   6.375   9.041  1.00  0.00    -0.011 C
HETATM   18  C1  UNL     1       8.029   6.052   8.578  1.00  0.00     0.009 C
ENDBRANCH  16  17
ENDBRANCH  15  16
ENDBRANCH   1  15
BRANCH   4  19
HETATM   19  N3  UNL     1       3.163   3.828   4.389  1.00  0.00    -0.112 N
HETATM   20  O3  UNL     1       3.547   4.521   3.467  1.00  0.00    -0.532 OA
HETATM   21  O4  UNL     1       2.112   2.967   4.201  1.00  0.00    -0.532 OA
ENDBRANCH   4  19
BRANCH   3  22
HETATM   22  N1  UNL     1       5.529   2.481   5.128  1.00  0.00    -0.365 NA
BRANCH  22  23
HETATM   23  C7  UNL     1       6.090   1.624   4.286  1.00  0.00     0.306 C
HETATM   24  N2  UNL     1       6.167   1.686   2.835  1.00  0.00    -0.042 NA
BRANCH  23  25
HETATM   25  O2  UNL     1       6.690   0.508   4.660  1.00  0.00    -0.324 OA
ATOM     26  H2  UNL     1       6.269  -0.342   4.673  1.00  0.00     0.221 HD
ENDBRANCH  23  25
ENDBRANCH  22  23
ENDBRANCH   3  22
TORSDOF 9
ENDMDL