MODEL 3
REMARK VINA RESULT: -8.360484038      1.399      2.254
REMARK  9 active torsions:
REMARK  status: ('A' for Active; 'I' for Inactive)
REMARK    1  A    between atoms: N1_2  and  C2_4
REMARK    2  A    between atoms: C2_4  and  C3_8
REMARK    3  A    between atoms: C3_8  and  N3_9
REMARK    4  A    between atoms: C3_8  and  C13_28
REMARK       I    between atoms: N3_9  and  C4_11
REMARK    5  A    between atoms: C4_11  and  C5_13
REMARK    6  A    between atoms: C5_13  and  N4_14
REMARK    7  A    between atoms: C5_13  and  C6_18
REMARK    8  A    between atoms: C6_18  and  C7_19
REMARK    9  A    between atoms: C11_23  and  N5_24
ROOT
HETATM    1  N3  UNL     1       4.908   4.048   7.338  1.00  0.00    -0.347 N
ATOM      2  H3  UNL     1       5.078   3.424   8.128  1.00  0.00     0.163 HD
HETATM    3  C4  UNL     1       4.350   5.335   7.544  1.00  0.00     0.249 C
HETATM    4  O1  UNL     1       4.138   6.113   6.563  1.00  0.00    -0.271 OA
ENDROOT
BRANCH   3   5
HETATM    5  C5  UNL     1       3.987   5.840   8.898  1.00  0.00     0.278 C
BRANCH   5   6
HETATM    6  N4  UNL     1       4.335   7.238   9.028  1.00  0.00    -0.066 N
ATOM      7  H43 UNL     1       4.639   7.638   8.140  1.00  0.00     0.275 HD
ATOM      8  H42 UNL     1       3.512   7.821   9.184  1.00  0.00     0.275 HD
ATOM      9  H41 UNL     1       5.034   7.368   9.760  1.00  0.00     0.275 HD
ENDBRANCH   5   6
BRANCH   5  10
HETATM   10  C6  UNL     1       2.471   5.744   9.004  1.00  0.00     0.081 C
BRANCH  10  11
HETATM   11  C7  UNL     1       1.990   5.982  10.364  1.00  0.00    -0.053 A
HETATM   12  C8  UNL     1       0.953   6.858  10.580  1.00  0.00     0.007 A
HETATM   13  C9  UNL     1       0.468   7.110  11.858  1.00  0.00     0.003 A
HETATM   14  C10 UNL     1       1.034   6.469  12.950  1.00  0.00     0.036 A
HETATM   15  C11 UNL     1       2.068   5.595  12.731  1.00  0.00     0.103 A
HETATM   16  C12 UNL     1       2.547   5.349  11.453  1.00  0.00     0.043 A
BRANCH  15  17
HETATM   17  N5  UNL     1       2.661   4.929  13.843  1.00  0.00    -0.116 N
HETATM   18  O2  UNL     1       2.797   5.512  14.942  1.00  0.00    -0.532 OA
HETATM   19  O3  UNL     1       3.096   3.648  13.749  1.00  0.00    -0.532 OA
ENDBRANCH  15  17
ENDBRANCH  10  11
ENDBRANCH   5  10
ENDBRANCH   3   5
BRANCH   1  20
HETATM   20  C3  UNL     1       5.231   3.637   5.997  1.00  0.00     0.154 C
BRANCH  20  21
HETATM   21  C2  UNL     1       4.273   2.640   5.463  1.00  0.00     0.093 C
HETATM   22  N2  UNL     1       3.582   1.901   6.269  1.00  0.00    -0.387 N
ATOM     23  H22 UNL     1       2.922   1.215   5.902  1.00  0.00     0.157 HD
ATOM     24  H21 UNL     1       3.739   2.051   7.266  1.00  0.00     0.157 HD
BRANCH  21  25
HETATM   25  N1  UNL     1       4.055   2.432   4.083  1.00  0.00    -0.383 N
HETATM   26  C1  UNL     1       3.000   3.153   3.420  1.00  0.00     0.147 C
ATOM     27  H1  UNL     1       4.639   1.778   3.561  1.00  0.00     0.160 HD
ENDBRANCH  21  25
ENDBRANCH  20  21
BRANCH  20  28
HETATM   28  C13 UNL     1       6.655   3.126   5.960  1.00  0.00     0.007 C
HETATM   29  C14 UNL     1       7.444   3.752   7.090  1.00  0.00     0.012 C
HETATM   30  C15 UNL     1       7.345   3.395   4.651  1.00  0.00     0.012 C
ENDBRANCH  20  28
ENDBRANCH   1  20
TORSDOF 9
ENDMDL