MODEL 5
REMARK VINA RESULT: -8.208706938      4.483      6.832
REMARK  9 active torsions:
REMARK  status: ('A' for Active; 'I' for Inactive)
REMARK       I    between atoms: C1_2  and  N2_4
REMARK    1  A    between atoms: N2_4  and  C2_6
REMARK    2  A    between atoms: C2_6  and  O2_7
REMARK    3  A    between atoms: C2_6  and  C3_9
REMARK    4  A    between atoms: C3_9  and  C4_10
REMARK    5  A    between atoms: C3_9  and  C9_17
REMARK    6  A    between atoms: C9_17  and  O3_18
REMARK    7  A    between atoms: C9_17  and  N4_20
REMARK    8  A    between atoms: N4_20  and  C10_22
REMARK    9  A    between atoms: C10_22  and  C11_23
ROOT
HETATM    1  C3  UNL     1       2.883   6.243  10.411  1.00  0.00     0.169 C
ENDROOT
BRANCH   1   2
HETATM    2  C2  UNL     1       2.274   5.410  11.433  1.00  0.00     0.135 C
BRANCH   2   3
HETATM    3  N2  UNL     1       2.756   4.417  12.262  1.00  0.00    -0.294 N
HETATM    4  C1  UNL     1       2.862   4.578  13.667  1.00  0.00     0.334 C
HETATM    5  N1  UNL     1       2.468   5.787  14.271  1.00  0.00    -0.040 NA
HETATM    6  O1  UNL     1       3.302   3.672  14.427  1.00  0.00    -0.251 OA
ATOM      7  H2  UNL     1       3.049   3.532  11.847  1.00  0.00     0.172 HD
ENDBRANCH   2   3
BRANCH   2   8
HETATM    8  O2  UNL     1       0.998   5.663  11.598  1.00  0.00    -0.348 OA
ATOM      9  H2  UNL     1       0.739   6.529  11.308  1.00  0.00     0.219 HD
ENDBRANCH   2   8
ENDBRANCH   1   2
BRANCH   1  10
HETATM   10  C4  UNL     1       3.329   5.358   9.282  1.00  0.00    -0.023 A
HETATM   11  C5  UNL     1       2.686   5.432   8.072  1.00  0.00     0.011 A
HETATM   12  C6  UNL     1       3.071   4.625   7.005  1.00  0.00     0.018 A
HETATM   13  C7  UNL     1       4.116   3.742   7.179  1.00  0.00     0.087 A
HETATM   14  N3  UNL     1       4.734   3.679   8.364  1.00  0.00    -0.375 N
HETATM   15  C8  UNL     1       4.360   4.468   9.415  1.00  0.00     0.096 A
ATOM     16  H3  UNL     1       5.506   3.025   8.486  1.00  0.00     0.164 HD
ENDBRANCH   1  10
BRANCH   1  17
HETATM   17  C9  UNL     1       3.965   7.185  10.784  1.00  0.00     0.132 C
BRANCH  17  18
HETATM   18  O3  UNL     1       4.179   7.293  12.179  1.00  0.00    -0.348 OA
ATOM     19  H3  UNL     1       4.298   8.185  12.484  1.00  0.00     0.219 HD
ENDBRANCH  17  18
BRANCH  17  20
HETATM   20  N4  UNL     1       4.325   8.268  10.002  1.00  0.00    -0.349 N
ATOM     21  H4  UNL     1       3.598   8.945   9.773  1.00  0.00     0.167 HD
BRANCH  20  22
HETATM   22  C10 UNL     1       5.600   8.501   9.505  1.00  0.00     0.102 C
BRANCH  22  23
HETATM   23  C11 UNL     1       6.187   9.794   9.938  1.00  0.00    -0.005 A
HETATM   24  C12 UNL     1       5.718  10.582  10.952  1.00  0.00     0.015 A
HETATM   25  C13 UNL     1       6.384  11.758  11.220  1.00  0.00     0.018 A
HETATM   26  C14 UNL     1       7.492  12.159  10.510  1.00  0.00     0.087 A
HETATM   27  N5  UNL     1       7.934  11.367   9.518  1.00  0.00    -0.374 N
HETATM   28  C15 UNL     1       7.314  10.212   9.222  1.00  0.00     0.100 A
ATOM     29  H5  UNL     1       8.755  11.648   8.981  1.00  0.00     0.164 HD
ENDBRANCH  22  23
ENDBRANCH  20  22
ENDBRANCH  17  20
ENDBRANCH   1  17
TORSDOF 9
ENDMDL