MODEL 2
REMARK VINA RESULT: -7.809967818      1.897      2.193
REMARK  10 active torsions:
REMARK  status: ('A' for Active; 'I' for Inactive)
REMARK    1  A    between atoms: N1_1  and  N2_4
REMARK       I    between atoms: N2_4  and  C1_6
REMARK    2  A    between atoms: C1_6  and  C2_8
REMARK    3  A    between atoms: C2_8  and  N3_9
REMARK    4  A    between atoms: N3_9  and  C3_10
REMARK    5  A    between atoms: C3_10  and  O2_11
REMARK    6  A    between atoms: C3_10  and  C4_13
REMARK    7  A    between atoms: C9_18  and  O3_19
REMARK    8  A    between atoms: O3_19  and  C10_20
REMARK    9  A    between atoms: C10_20  and  C11_21
REMARK   10  A    between atoms: C11_21  and  C12_23
ROOT
HETATM    1  C4  UNL     1       4.468   4.824   9.069  1.00  0.00     0.062 A
HETATM    2  C5  UNL     1       5.479   5.517   9.711  1.00  0.00     0.020 A
HETATM    3  C6  UNL     1       6.706   5.760   9.152  1.00  0.00     0.001 A
HETATM    4  C7  UNL     1       6.951   5.289   7.882  1.00  0.00     0.003 A
HETATM    5  C8  UNL     1       5.949   4.586   7.217  1.00  0.00     0.038 A
HETATM    6  C9  UNL     1       4.707   4.358   7.827  1.00  0.00     0.085 A
ENDROOT
BRANCH   1   7
HETATM    7  C3  UNL     1       3.142   4.754   9.721  1.00  0.00     0.227 C
BRANCH   7   8
HETATM    8  N3  UNL     1       2.301   5.753   9.918  1.00  0.00    -0.387 NA
BRANCH   8   9
HETATM    9  C2  UNL     1       1.421   6.793  10.124  1.00  0.00     0.261 C
BRANCH   9  10
HETATM   10  C1  UNL     1       0.903   7.010  11.501  1.00  0.00     0.288 C
HETATM   11  N2  UNL     1       1.839   7.072  12.561  1.00  0.00    -0.271 N
ATOM     12  H2  UNL     1       2.838   6.966  12.386  1.00  0.00     0.189 HD
HETATM   13  O1  UNL     1      -0.343   7.130  11.687  1.00  0.00    -0.264 OA
BRANCH  11  14
HETATM   14  N1  UNL     1       1.364   7.278  13.833  1.00  0.00    -0.342 N
ATOM     15  H12 UNL     1       0.410   7.610  13.974  1.00  0.00     0.176 HD
ATOM     16  H11 UNL     1       1.990   7.091  14.617  1.00  0.00     0.176 HD
ENDBRANCH  11  14
ENDBRANCH   9  10
ENDBRANCH   8   9
ENDBRANCH   7   8
BRANCH   7  17
HETATM   17  O2  UNL     1       2.837   3.550  10.124  1.00  0.00    -0.335 OA
ATOM     18  H2  UNL     1       3.120   2.793   9.625  1.00  0.00     0.220 HD
ENDBRANCH   7  17
ENDBRANCH   1   7
BRANCH   6  19
HETATM   19  O3  UNL     1       3.743   3.621   7.108  1.00  0.00    -0.342 OA
BRANCH  19  20
HETATM   20  C10 UNL     1       3.317   4.168   5.865  1.00  0.00     0.261 C
BRANCH  20  21
HETATM   21  C11 UNL     1       3.327   3.215   4.763  1.00  0.00     0.206 C
HETATM   22  O4  UNL     1       2.196   2.889   4.267  1.00  0.00    -0.288 OA
BRANCH  21  23
HETATM   23  C12 UNL     1       4.564   2.660   4.229  1.00  0.00     0.122 A
HETATM   24  C13 UNL     1       5.419   1.788   4.917  1.00  0.00     0.043 A
HETATM   25  C14 UNL     1       6.467   1.478   4.082  1.00  0.00     0.027 A
HETATM   26  C15 UNL     1       6.215   2.180   2.896  1.00  0.00     0.142 A
HETATM   27  O5  UNL     1       5.110   2.833   3.062  1.00  0.00    -0.319 OA
ENDBRANCH  21  23
ENDBRANCH  20  21
ENDBRANCH  19  20
ENDBRANCH   6  19
TORSDOF 10
ENDMDL