MODEL 3
REMARK VINA RESULT: -7.406819481      2.780      5.277
REMARK  9 active torsions:
REMARK  status: ('A' for Active; 'I' for Inactive)
REMARK    1  A    between atoms: C2_2  and  C4_4
REMARK    2  A    between atoms: C4_4  and  N1_5
REMARK    3  A    between atoms: C4_4  and  C6_9
REMARK    4  A    between atoms: N1_5  and  C5_7
REMARK       I    between atoms: C6_9  and  N2_11
REMARK    5  A    between atoms: N2_11  and  C7_13
REMARK    6  A    between atoms: C7_13  and  C8_14
REMARK    7  A    between atoms: C7_13  and  C11_26
REMARK    8  A    between atoms: C8_14  and  C9_16
REMARK    9  A    between atoms: C10_23  and  O4_24
ROOT
HETATM    1  C7  UNL     1       3.690   6.493   9.631  1.00  0.00     0.168 C
ENDROOT
BRANCH   1   2
HETATM    2  N2  UNL     1       3.880   5.072   9.216  1.00  0.00    -0.347 N
HETATM    3  C6  UNL     1       3.871   4.693   7.874  1.00  0.00     0.241 C
HETATM    4  O2  UNL     1       3.685   5.635   7.022  1.00  0.00    -0.271 OA
ATOM      5  H2  UNL     1       4.022   4.360   9.932  1.00  0.00     0.163 HD
BRANCH   3   6
HETATM    6  C4  UNL     1       4.051   3.344   7.353  1.00  0.00     0.179 C
BRANCH   6   7
HETATM    7  C2  UNL     1       2.927   2.771   6.561  1.00  0.00     0.009 C
HETATM    8  C1  UNL     1       2.461   1.410   6.907  1.00  0.00     0.012 C
HETATM    9  C3  UNL     1       3.295   2.820   5.075  1.00  0.00     0.012 C
ENDBRANCH   6   7
BRANCH   6  10
HETATM   10  N1  UNL     1       5.242   3.284   6.479  1.00  0.00    -0.355 N
ATOM     11  H1  UNL     1       5.141   3.084   5.484  1.00  0.00     0.162 HD
BRANCH  10  12
HETATM   12  C5  UNL     1       6.515   3.506   7.035  1.00  0.00     0.349 C
HETATM   13  O1  UNL     1       7.578   2.968   6.623  1.00  0.00    -0.284 OA
ENDBRANCH  10  12
ENDBRANCH   6  10
ENDBRANCH   3   6
ENDBRANCH   1   2
BRANCH   1  14
HETATM   14  C8  UNL     1       2.628   6.457  10.651  1.00  0.00     0.204 C
HETATM   15  O3  UNL     1       1.657   7.290  10.593  1.00  0.00    -0.288 OA
BRANCH  14  16
HETATM   16  C9  UNL     1       2.575   5.529  11.769  1.00  0.00     0.149 A
HETATM   17  N3  UNL     1       2.788   4.203  11.768  1.00  0.00    -0.279 N
HETATM   18  N4  UNL     1       2.692   3.685  12.963  1.00  0.00    -0.240 N
ATOM     19  H3  UNL     1       3.002   3.663  10.930  1.00  0.00     0.189 HD
HETATM   20  N5  UNL     1       2.407   4.690  13.790  1.00  0.00    -0.264 N
ATOM     21  H4  UNL     1       2.812   2.704  13.213  1.00  0.00     0.208 HD
HETATM   22  C10 UNL     1       2.326   5.830  13.105  1.00  0.00     0.188 A
ATOM     23  H5  UNL     1       2.272   4.600  14.797  1.00  0.00     0.190 HD
BRANCH  22  24
HETATM   24  O4  UNL     1       2.050   7.101  13.587  1.00  0.00    -0.343 OA
ATOM     25  H4  UNL     1       2.331   7.428  14.433  1.00  0.00     0.219 HD
ENDBRANCH  22  24
ENDBRANCH  14  16
ENDBRANCH   1  14
BRANCH   1  26
HETATM   26  C11 UNL     1       5.008   6.842  10.329  1.00  0.00    -0.024 C
HETATM   27  C12 UNL     1       5.792   5.627  10.704  1.00  0.00     0.017 C
HETATM   28  C13 UNL     1       5.802   7.599   9.238  1.00  0.00     0.017 C
HETATM   29  C14 UNL     1       4.853   7.740  11.502  1.00  0.00     0.017 C
ENDBRANCH   1  26
TORSDOF 9
ENDMDL