MODEL 5
REMARK VINA RESULT: -7.912550475      1.307      1.882
REMARK  9 active torsions:
REMARK  status: ('A' for Active; 'I' for Inactive)
REMARK    1  A    between atoms: O1_2  and  C2_3
REMARK    2  A    between atoms: C2_3  and  O2_4
REMARK    3  A    between atoms: C2_3  and  C3_6
REMARK    4  A    between atoms: C3_6  and  C4_7
REMARK    5  A    between atoms: C3_6  and  N1_15
REMARK    6  A    between atoms: C4_7  and  O3_8
REMARK    7  A    between atoms: O3_8  and  C5_9
REMARK       I    between atoms: N1_15  and  C11_17
REMARK    8  A    between atoms: C11_17  and  C12_19
REMARK    9  A    between atoms: C15_24  and  N3_25
ROOT
HETATM    1  N1  UNL     1       3.540   3.592   7.781  1.00  0.00    -0.344 N
ATOM      2  H1  UNL     1       3.192   2.790   8.308  1.00  0.00     0.163 HD
HETATM    3  C11 UNL     1       3.406   4.902   8.332  1.00  0.00     0.269 C
HETATM    4  O4  UNL     1       3.836   5.870   7.672  1.00  0.00    -0.266 OA
ENDROOT
BRANCH   1   5
HETATM    5  C3  UNL     1       4.158   3.378   6.490  1.00  0.00     0.164 C
BRANCH   5   6
HETATM    6  C2  UNL     1       3.446   2.278   5.714  1.00  0.00     0.280 C
BRANCH   6   7
HETATM    7  O1  UNL     1       2.380   2.857   5.068  1.00  0.00    -0.364 OA
HETATM    8  C1  UNL     1       2.748   3.880   4.206  1.00  0.00     0.204 C
ENDBRANCH   6   7
BRANCH   6   9
HETATM    9  O2  UNL     1       2.927   1.397   6.670  1.00  0.00    -0.369 OA
ATOM     10  H2  UNL     1       1.990   1.547   6.715  1.00  0.00     0.212 HD
ENDBRANCH   6   9
ENDBRANCH   5   6
BRANCH   5  11
HETATM   11  C4  UNL     1       5.618   3.036   6.699  1.00  0.00     0.205 C
BRANCH  11  12
HETATM   12  O3  UNL     1       6.431   3.475   5.653  1.00  0.00    -0.349 OA
BRANCH  12  13
HETATM   13  C5  UNL     1       7.403   4.428   5.931  1.00  0.00     0.068 A
HETATM   14  C6  UNL     1       7.548   4.979   7.192  1.00  0.00     0.037 A
HETATM   15  C7  UNL     1       8.499   5.925   7.502  1.00  0.00     0.003 A
HETATM   16  C8  UNL     1       9.351   6.344   6.507  1.00  0.00     0.000 A
HETATM   17  C9  UNL     1       9.233   5.814   5.238  1.00  0.00     0.003 A
HETATM   18  C10 UNL     1       8.275   4.869   4.946  1.00  0.00     0.037 A
ENDBRANCH  12  13
ENDBRANCH  11  12
ENDBRANCH   5  11
ENDBRANCH   1   5
BRANCH   3  19
HETATM   19  C12 UNL     1       2.784   5.127   9.633  1.00  0.00     0.118 A
HETATM   20  C13 UNL     1       1.921   6.182   9.785  1.00  0.00     0.053 A
HETATM   21  C14 UNL     1       1.348   6.371  11.024  1.00  0.00     0.108 A
HETATM   22  N2  UNL     1       1.635   5.544  12.033  1.00  0.00    -0.202 N
HETATM   23  C15 UNL     1       2.476   4.516  11.878  1.00  0.00     0.676 A
ATOM     24  H2  UNL     1       1.201   5.699  12.943  1.00  0.00     0.183 HD
HETATM   25  N4  UNL     1       3.050   4.310  10.677  1.00  0.00    -0.187 N
ATOM     26  H4  UNL     1       3.693   3.527  10.554  1.00  0.00     0.184 HD
BRANCH  23  27
HETATM   27  N3  UNL     1       2.748   3.717  12.866  1.00  0.00    -0.234 N
ATOM     28  H32 UNL     1       2.904   2.726  12.685  1.00  0.00     0.174 HD
ATOM     29  H31 UNL     1       2.810   4.066  13.823  1.00  0.00     0.174 HD
ENDBRANCH  23  27
ENDBRANCH   3  19
TORSDOF 9
ENDMDL