MODEL 1
REMARK VINA RESULT: -8.038638765      0.000      0.000
REMARK  9 active torsions:
REMARK  status: ('A' for Active; 'I' for Inactive)
REMARK    1  A    between atoms: C2_2  and  N1_3
REMARK    2  A    between atoms: C2_2  and  C3_7
REMARK       I    between atoms: C3_7  and  N2_9
REMARK    3  A    between atoms: N2_9  and  C4_11
REMARK    4  A    between atoms: C4_11  and  C5_12
REMARK    5  A    between atoms: C4_11  and  C6_14
REMARK    6  A    between atoms: C6_14  and  C7_15
REMARK    7  A    between atoms: C7_15  and  C8_16
REMARK    8  A    between atoms: C7_15  and  C13_26
REMARK    9  A    between atoms: C11_19  and  N3_20
ROOT
HETATM    1  C7  UNL     1       3.423   4.906   7.124  1.00  0.00     0.097 C
ENDROOT
BRANCH   1   2
HETATM    2  C6  UNL     1       4.094   3.597   6.817  1.00  0.00     0.050 C
BRANCH   2   3
HETATM    3  C4  UNL     1       3.541   2.911   5.618  1.00  0.00     0.147 C
BRANCH   3   4
HETATM    4  N2  UNL     1       4.495   2.225   4.798  1.00  0.00    -0.348 N
HETATM    5  C3  UNL     1       5.282   2.820   3.768  1.00  0.00     0.248 C
HETATM    6  O1  UNL     1       5.135   4.040   3.533  1.00  0.00    -0.271 OA
ATOM      7  H2  UNL     1       4.623   1.228   4.965  1.00  0.00     0.163 HD
BRANCH   5   8
HETATM    8  C2  UNL     1       6.261   2.011   2.984  1.00  0.00     0.270 C
HETATM    9  C1  UNL     1       6.876   0.913   3.790  1.00  0.00     0.050 C
BRANCH   8  10
HETATM   10  N1  UNL     1       7.289   2.887   2.496  1.00  0.00    -0.067 N
ATOM     11  H13 UNL     1       7.056   3.283   1.585  1.00  0.00     0.275 HD
ATOM     12  H12 UNL     1       7.336   3.757   3.027  1.00  0.00     0.275 HD
ATOM     13  H11 UNL     1       8.182   2.395   2.485  1.00  0.00     0.275 HD
ENDBRANCH   8  10
ENDBRANCH   5   8
ENDBRANCH   3   4
BRANCH   3  14
HETATM   14  C5  UNL     1       2.470   1.946   6.071  1.00  0.00     0.256 C
HETATM   15  O2  UNL     1       2.696   1.210   7.006  1.00  0.00    -0.305 OA
ENDBRANCH   3  14
ENDBRANCH   2   3
ENDBRANCH   1   2
BRANCH   1  16
HETATM   16  C8  UNL     1       2.995   5.034   8.539  1.00  0.00    -0.031 A
HETATM   17  C9  UNL     1       2.138   6.054   8.882  1.00  0.00     0.013 A
HETATM   18  C10 UNL     1       1.762   6.155  10.194  1.00  0.00     0.048 A
HETATM   19  C11 UNL     1       2.234   5.251  11.165  1.00  0.00     0.098 A
HETATM   20  N4  UNL     1       3.088   4.257  10.750  1.00  0.00    -0.352 N
HETATM   21  C12 UNL     1       3.461   4.144   9.482  1.00  0.00     0.097 A
ATOM     22  H4  UNL     1       3.444   3.589  11.433  1.00  0.00     0.166 HD
BRANCH  19  23
HETATM   23  N3  UNL     1       1.898   5.355  12.310  1.00  0.00    -0.385 N
ATOM     24  H32 UNL     1       1.340   6.144  12.636  1.00  0.00     0.157 HD
ATOM     25  H31 UNL     1       2.163   4.648  12.997  1.00  0.00     0.157 HD
ENDBRANCH  19  23
ENDBRANCH   1  16
BRANCH   1  26
HETATM   26  C13 UNL     1       4.374   6.011   6.844  1.00  0.00     0.131 A
HETATM   27  N5  UNL     1       4.756   6.475   5.653  1.00  0.00    -0.348 N
HETATM   28  C14 UNL     1       5.624   7.476   5.834  1.00  0.00     0.114 A
ATOM     29  H5  UNL     1       4.438   6.123   4.751  1.00  0.00     0.167 HD
HETATM   30  C15 UNL     1       5.772   7.624   7.188  1.00  0.00     0.161 A
HETATM   31  O3  UNL     1       5.003   6.723   7.748  1.00  0.00    -0.308 OA
ENDBRANCH   1  26
TORSDOF 9
ENDMDL