MODEL 5
REMARK VINA RESULT: -7.643919911      2.102      2.682
REMARK  9 active torsions:
REMARK  status: ('A' for Active; 'I' for Inactive)
REMARK    1  A    between atoms: N1_1  and  C1_4
REMARK    2  A    between atoms: C3_8  and  S1_9
REMARK    3  A    between atoms: S1_9  and  C4_10
REMARK    4  A    between atoms: C4_10  and  C5_11
REMARK    5  A    between atoms: C5_11  and  N3_12
REMARK       I    between atoms: N3_12  and  C6_14
REMARK    6  A    between atoms: C6_14  and  C7_16
REMARK    7  A    between atoms: C7_16  and  N4_17
REMARK    8  A    between atoms: C7_16  and  C8_21
REMARK    9  A    between atoms: C8_21  and  C9_22
ROOT
HETATM    1  N3  UNL     1       6.343   5.693   8.081  1.00  0.00    -0.359 N
ATOM      2  H3  UNL     1       6.815   5.381   8.929  1.00  0.00     0.162 HD
HETATM    3  C6  UNL     1       4.944   5.559   7.959  1.00  0.00     0.248 C
HETATM    4  O1  UNL     1       4.391   5.952   6.905  1.00  0.00    -0.271 OA
ENDROOT
BRANCH   1   5
HETATM    5  C5  UNL     1       7.110   6.275   6.993  1.00  0.00     0.133 C
BRANCH   5   6
HETATM    6  C4  UNL     1       8.247   5.393   6.591  1.00  0.00     0.100 C
BRANCH   6   7
HETATM    7  S1  UNL     1       7.893   4.329   5.211  1.00  0.00    -0.108 SA
BRANCH   7   8
HETATM    8  C3  UNL     1       6.219   3.794   5.064  1.00  0.00     0.101 A
HETATM    9  C2  UNL     1       5.795   2.634   5.628  1.00  0.00     0.144 A
HETATM   10  N2  UNL     1       4.519   2.242   5.491  1.00  0.00    -0.198 N
HETATM   11  C1  UNL     1       3.644   2.983   4.801  1.00  0.00     0.690 A
ATOM     12  H2  UNL     1       4.212   1.368   5.918  1.00  0.00     0.183 HD
HETATM   13  N6  UNL     1       4.059   4.133   4.240  1.00  0.00    -0.132 N
HETATM   14  N5  UNL     1       5.332   4.528   4.373  1.00  0.00    -0.279 N
ATOM     15  H6  UNL     1       3.402   4.706   3.712  1.00  0.00     0.205 HD
ATOM     16  H5  UNL     1       5.633   5.402   3.942  1.00  0.00     0.188 HD
BRANCH  11  17
HETATM   17  N1  UNL     1       2.433   2.580   4.688  1.00  0.00    -0.233 N
ATOM     18  H12 UNL     1       2.202   1.588   4.635  1.00  0.00     0.174 HD
ATOM     19  H11 UNL     1       1.680   3.268   4.652  1.00  0.00     0.174 HD
ENDBRANCH  11  17
ENDBRANCH   7   8
ENDBRANCH   6   7
ENDBRANCH   5   6
ENDBRANCH   1   5
BRANCH   3  20
HETATM   20  C7  UNL     1       4.178   4.961   9.081  1.00  0.00     0.278 C
BRANCH  20  21
HETATM   21  N4  UNL     1       4.215   3.529   9.017  1.00  0.00    -0.066 N
ATOM     22  H43 UNL     1       3.282   3.131   8.912  1.00  0.00     0.275 HD
ATOM     23  H42 UNL     1       4.622   3.200   8.141  1.00  0.00     0.275 HD
ATOM     24  H41 UNL     1       4.701   3.142   9.827  1.00  0.00     0.275 HD
ENDBRANCH  20  21
BRANCH  20  25
HETATM   25  C8  UNL     1       2.749   5.396   8.933  1.00  0.00     0.081 C
BRANCH  25  26
HETATM   26  C9  UNL     1       2.105   5.808  10.174  1.00  0.00    -0.056 A
HETATM   27  C10 UNL     1       1.124   6.785  10.091  1.00  0.00     0.007 A
HETATM   28  C11 UNL     1       0.438   7.266  11.179  1.00  0.00     0.001 A
HETATM   29  C12 UNL     1       0.752   6.739  12.418  1.00  0.00     0.000 A
HETATM   30  C13 UNL     1       1.733   5.760  12.516  1.00  0.00     0.001 A
HETATM   31  C14 UNL     1       2.409   5.291  11.413  1.00  0.00     0.007 A
ENDBRANCH  25  26
ENDBRANCH  20  25
ENDBRANCH   3  20
TORSDOF 9
ENDMDL