MODEL 4
REMARK VINA RESULT: -8.168592407      1.969      2.707
REMARK  9 active torsions:
REMARK  status: ('A' for Active; 'I' for Inactive)
REMARK    1  A    between atoms: C2_2  and  C3_3
REMARK    2  A    between atoms: C2_2  and  C8_16
REMARK    3  A    between atoms: C3_3  and  C4_4
REMARK    4  A    between atoms: C4_4  and  N2_7
REMARK    5  A    between atoms: N2_7  and  O1_8
REMARK    6  A    between atoms: O1_8  and  C6_9
REMARK    7  A    between atoms: C6_9  and  C7_11
REMARK    8  A    between atoms: C7_11  and  N3_12
REMARK       I    between atoms: C8_16  and  N4_18
REMARK       I    between atoms: N4_18  and  C9_20
REMARK    9  A    between atoms: C9_20  and  C10_22
ROOT
HETATM    1  C4  UNL     1      -0.578   7.820  17.395  1.00  0.00     0.214 C
HETATM    2  C5  UNL     1       0.303   8.209  18.525  1.00  0.00     0.083 C
HETATM    3  N1  UNL     1       0.977   8.507  19.412  1.00  0.00    -0.195 NA
ENDROOT
BRANCH   1   4
HETATM    4  C3  UNL     1       0.299   7.516  16.210  1.00  0.00     0.052 C
BRANCH   4   5
HETATM    5  C2  UNL     1       1.383   6.527  16.449  1.00  0.00     0.076 C
HETATM    6  C1  UNL     1       2.527   6.916  15.491  1.00  0.00     0.020 C
BRANCH   5   7
HETATM    7  C8  UNL     1       1.029   5.143  16.063  1.00  0.00     0.228 C
HETATM    8  O3  UNL     1       0.613   4.360  16.939  1.00  0.00    -0.273 OA
HETATM    9  N4  UNL     1       1.159   4.712  14.715  1.00  0.00    -0.293 N
HETATM   10  C9  UNL     1       0.833   3.409  14.312  1.00  0.00     0.258 C
ATOM     11  H4  UNL     1       1.501   5.373  14.018  1.00  0.00     0.172 HD
HETATM   12  O4  UNL     1       0.406   2.613  15.217  1.00  0.00    -0.267 OA
BRANCH  10  13
HETATM   13  C10 UNL     1       0.952   2.936  12.950  1.00  0.00     0.032 A
HETATM   14  C11 UNL     1       0.247   3.584  11.945  1.00  0.00     0.017 A
HETATM   15  C12 UNL     1       0.336   3.161  10.638  1.00  0.00     0.001 A
HETATM   16  C13 UNL     1       1.110   2.101  10.266  1.00  0.00     0.000 A
HETATM   17  C14 UNL     1       1.811   1.455  11.250  1.00  0.00     0.001 A
HETATM   18  C15 UNL     1       1.730   1.869  12.572  1.00  0.00     0.017 A
ENDBRANCH  10  13
ENDBRANCH   5   7
ENDBRANCH   4   5
ENDBRANCH   1   4
BRANCH   1  19
HETATM   19  N2  UNL     1      -1.377   8.977  17.030  1.00  0.00    -0.072 NA
BRANCH  19  20
HETATM   20  O1  UNL     1      -2.692   8.822  17.425  1.00  0.00    -0.204 OA
BRANCH  20  21
HETATM   21  C6  UNL     1      -3.106   9.010  18.730  1.00  0.00     0.302 C
HETATM   22  O2  UNL     1      -2.733  10.054  19.310  1.00  0.00    -0.262 OA
BRANCH  21  23
HETATM   23  C7  UNL     1      -3.957   8.056  19.470  1.00  0.00     0.341 C
BRANCH  23  24
HETATM   24  N3  UNL     1      -3.513   8.018  20.845  1.00  0.00    -0.070 N
ATOM     25  H33 UNL     1      -2.517   8.219  20.940  1.00  0.00     0.274 HD
ATOM     26  H32 UNL     1      -3.866   8.803  21.392  1.00  0.00     0.274 HD
ATOM     27  H31 UNL     1      -3.770   7.114  21.241  1.00  0.00     0.274 HD
ENDBRANCH  23  24
ENDBRANCH  21  23
ENDBRANCH  20  21
ENDBRANCH  19  20
ENDBRANCH   1  19
TORSDOF 9
ENDMDL