MODEL 1
REMARK VINA RESULT: -8.511952558      0.000      0.000
REMARK  9 active torsions:
REMARK  status: ('A' for Active; 'I' for Inactive)
REMARK    1  A    between atoms: C2_2  and  C3_4
REMARK    2  A    between atoms: C3_4  and  O2_5
REMARK    3  A    between atoms: O2_5  and  C4_6
REMARK    4  A    between atoms: C9_11  and  O3_12
REMARK    5  A    between atoms: O3_12  and  C10_13
REMARK    6  A    between atoms: C10_13  and  C11_14
REMARK    7  A    between atoms: C11_14  and  O4_15
REMARK    8  A    between atoms: C11_14  and  C12_17
REMARK    9  A    between atoms: C14_21  and  N2_22
ROOT
HETATM    1  C11 UNL     1       0.582   3.156  15.236  1.00  0.00     0.082 C
ENDROOT
BRANCH   1   2
HETATM    2  C10 UNL     1       0.934   4.454  15.789  1.00  0.00     0.241 C
BRANCH   2   3
HETATM    3  O3  UNL     1      -0.076   5.250  16.286  1.00  0.00    -0.342 OA
BRANCH   3   4
HETATM    4  C9  UNL     1      -0.488   6.427  15.719  1.00  0.00     0.102 A
HETATM    5  C4  UNL     1      -0.153   7.602  16.437  1.00  0.00     0.102 A
HETATM    6  C5  UNL     1      -0.538   8.816  15.918  1.00  0.00     0.039 A
HETATM    7  C6  UNL     1      -1.243   8.901  14.718  1.00  0.00     0.003 A
HETATM    8  C7  UNL     1      -1.565   7.757  14.028  1.00  0.00     0.003 A
HETATM    9  C8  UNL     1      -1.183   6.542  14.539  1.00  0.00     0.039 A
BRANCH   5  10
HETATM   10  O2  UNL     1       0.541   7.423  17.613  1.00  0.00    -0.341 OA
BRANCH  10  11
HETATM   11  C3  UNL     1       0.531   8.370  18.637  1.00  0.00     0.253 C
BRANCH  11  12
HETATM   12  C2  UNL     1      -0.567   8.232  19.616  1.00  0.00     0.146 C
HETATM   13  C1  UNL     1      -1.677   9.240  19.624  1.00  0.00     0.093 C
HETATM   14  O1  UNL     1      -0.638   7.339  20.434  1.00  0.00    -0.296 OA
ENDBRANCH  11  12
ENDBRANCH  10  11
ENDBRANCH   5  10
ENDBRANCH   3   4
ENDBRANCH   2   3
ENDBRANCH   1   2
BRANCH   1  15
HETATM   15  O4  UNL     1       0.163   2.248  16.073  1.00  0.00    -0.362 OA
ATOM     16  H4  UNL     1      -0.132   1.423  15.704  1.00  0.00     0.217 HD
ENDBRANCH   1  15
BRANCH   1  17
HETATM   17  C12 UNL     1       0.656   2.794  13.843  1.00  0.00     0.055 A
HETATM   18  C13 UNL     1      -0.530   2.817  13.113  1.00  0.00     0.124 A
HETATM   19  N1  UNL     1      -0.528   2.564  11.808  1.00  0.00    -0.201 N
HETATM   20  C14 UNL     1       0.620   2.283  11.193  1.00  0.00     0.677 A
ATOM     21  H1  UNL     1      -1.401   2.584  11.282  1.00  0.00     0.183 HD
HETATM   22  N3  UNL     1       1.775   2.249  11.853  1.00  0.00    -0.176 N
HETATM   23  C15 UNL     1       1.836   2.501  13.201  1.00  0.00     0.129 A
ATOM     24  H3  UNL     1       2.634   2.032  11.346  1.00  0.00     0.186 HD
HETATM   25  N4  UNL     1       2.970   2.351  13.782  1.00  0.00    -0.384 N
ATOM     26  H42 UNL     1       3.014   2.537  14.784  1.00  0.00     0.157 HD
ATOM     27  H41 UNL     1       3.845   2.133  13.305  1.00  0.00     0.157 HD
BRANCH  20  28
HETATM   28  N2  UNL     1       0.615   2.036   9.909  1.00  0.00    -0.234 N
ATOM     29  H22 UNL     1       0.723   2.812   9.255  1.00  0.00     0.174 HD
ATOM     30  H21 UNL     1       0.501   1.076   9.585  1.00  0.00     0.174 HD
ENDBRANCH  20  28
ENDBRANCH   1  17
TORSDOF 9
ENDMDL