MODEL 4
REMARK VINA RESULT: -8.920355587      2.083      3.109
REMARK  9 active torsions:
REMARK  status: ('A' for Active; 'I' for Inactive)
REMARK    1  A    between atoms: N1_1  and  C1_4
REMARK    2  A    between atoms: C4_7  and  O1_8
REMARK    3  A    between atoms: O1_8  and  C5_9
REMARK    4  A    between atoms: C9_13  and  C10_14
REMARK    5  A    between atoms: C10_14  and  N2_15
REMARK       I    between atoms: N2_15  and  C11_17
REMARK    6  A    between atoms: C11_17  and  C12_19
REMARK    7  A    between atoms: C12_19  and  N3_20
REMARK    8  A    between atoms: C12_19  and  C13_24
REMARK    9  A    between atoms: C13_24  and  C14_25
ROOT
HETATM    1  C5  UNL     1      -0.878   4.166  14.120  1.00  0.00     0.078 A
HETATM    2  C6  UNL     1      -1.784   3.145  14.283  1.00  0.00     0.037 A
HETATM    3  C7  UNL     1      -3.020   3.324  14.919  1.00  0.00     0.003 A
HETATM    4  C8  UNL     1      -3.379   4.557  15.414  1.00  0.00     0.009 A
HETATM    5  C9  UNL     1      -2.486   5.597  15.263  1.00  0.00    -0.038 A
HETATM    6  C15 UNL     1      -1.272   5.414  14.636  1.00  0.00     0.046 A
ENDROOT
BRANCH   5   7
HETATM    7  C10 UNL     1      -2.846   6.939  15.792  1.00  0.00     0.161 C
BRANCH   7   8
HETATM    8  N2  UNL     1      -1.809   7.482  16.611  1.00  0.00    -0.355 N
HETATM    9  C11 UNL     1      -1.152   8.685  16.305  1.00  0.00     0.249 C
HETATM   10  O2  UNL     1      -1.480   9.313  15.273  1.00  0.00    -0.271 OA
ATOM     11  H2  UNL     1      -1.536   6.975  17.453  1.00  0.00     0.162 HD
BRANCH   9  12
HETATM   12  C12 UNL     1      -0.091   9.207  17.176  1.00  0.00     0.284 C
BRANCH  12  13
HETATM   13  N3  UNL     1       1.023   8.291  17.167  1.00  0.00    -0.066 N
ATOM     14  H33 UNL     1       0.981   7.638  16.384  1.00  0.00     0.275 HD
ATOM     15  H32 UNL     1       1.900   8.751  16.923  1.00  0.00     0.275 HD
ATOM     16  H31 UNL     1       1.072   7.814  18.067  1.00  0.00     0.275 HD
ENDBRANCH  12  13
BRANCH  12  17
HETATM   17  C13 UNL     1      -0.575   9.505  18.574  1.00  0.00     0.155 C
BRANCH  17  18
HETATM   18  C14 UNL     1       0.049   8.540  19.511  1.00  0.00     0.175 C
HETATM   19  O3  UNL     1       0.966   8.912  20.265  1.00  0.00    -0.648 OA
HETATM   20  O4  UNL     1      -0.402   7.210  19.536  1.00  0.00    -0.648 OA
ENDBRANCH  17  18
ENDBRANCH  12  17
ENDBRANCH   9  12
ENDBRANCH   7   8
ENDBRANCH   5   7
BRANCH   1  21
HETATM   21  O1  UNL     1       0.338   4.048  13.510  1.00  0.00    -0.293 OA
BRANCH  21  22
HETATM   22  C4  UNL     1       1.150   3.021  13.252  1.00  0.00     0.162 A
HETATM   23  C3  UNL     1       1.076   2.466  11.964  1.00  0.00     0.061 A
HETATM   24  C2  UNL     1       1.845   1.414  11.560  1.00  0.00     0.053 A
HETATM   25  C1  UNL     1       2.737   0.867  12.452  1.00  0.00     0.113 A
HETATM   26  N5  UNL     1       2.809   1.399  13.686  1.00  0.00    -0.284 N
HETATM   27  N4  UNL     1       2.047   2.422  14.051  1.00  0.00    -0.278 N
ATOM     28  H5  UNL     1       3.467   1.005  14.359  1.00  0.00     0.188 HD
ATOM     29  H4  UNL     1       2.150   2.776  15.002  1.00  0.00     0.189 HD
BRANCH  25  30
HETATM   30  N1  UNL     1       3.470  -0.126  12.085  1.00  0.00    -0.384 N
ATOM     31  H12 UNL     1       3.115  -0.878  11.493  1.00  0.00     0.157 HD
ATOM     32  H11 UNL     1       4.441  -0.171  12.391  1.00  0.00     0.157 HD
ENDBRANCH  25  30
ENDBRANCH  21  22
ENDBRANCH   1  21
TORSDOF 9
ENDMDL