MODEL 1
REMARK VINA RESULT: -9.057358520      0.000      0.000
REMARK  6 active torsions:
REMARK  status: ('A' for Active; 'I' for Inactive)
REMARK    1  A    between atoms: N3_4  and  N4_6
REMARK    2  A    between atoms: N4_6  and  C2_7
REMARK       I    between atoms: N4_6  and  C15_23
REMARK    3  A    between atoms: C2_7  and  C3_8
REMARK    4  A    between atoms: C6_11  and  O1_12
REMARK    5  A    between atoms: O1_12  and  C7_13
REMARK    6  A    between atoms: C7_13  and  C8_14
REMARK       I    between atoms: C15_23  and  N6_24
REMARK       I    between atoms: C15_23  and  N7_28
ROOT
HETATM    1  C2  UNL     1      -1.163   7.159  16.701  1.00  0.00     0.186 C
ENDROOT
BRANCH   1   2
HETATM    2  N4  UNL     1      -0.061   8.058  16.833  1.00  0.00    -0.269 N
HETATM    3  C15 UNL     1       0.340   8.868  15.705  1.00  0.00     0.497 C
HETATM    4  N6  UNL     1      -0.485   8.643  14.546  1.00  0.00    -0.031 N
HETATM    5  N7  UNL     1       0.303  10.283  16.038  1.00  0.00    -0.031 N
ATOM      6  H63 UNL     1      -0.508   7.654  14.298  1.00  0.00     0.279 HD
ATOM      7  H62 UNL     1      -1.472   8.780  14.765  1.00  0.00     0.279 HD
ATOM      8  H61 UNL     1      -0.201   9.214  13.750  1.00  0.00     0.279 HD
ATOM      9  H73 UNL     1      -0.611  10.562  16.394  1.00  0.00     0.279 HD
ATOM     10  H72 UNL     1       0.862  10.488  16.866  1.00  0.00     0.279 HD
ATOM     11  H71 UNL     1       0.587  10.854  15.242  1.00  0.00     0.279 HD
BRANCH   2  12
HETATM   12  N3  UNL     1       0.622   8.150  18.042  1.00  0.00    -0.275 N
HETATM   13  C1  UNL     1       0.190   8.840  19.043  1.00  0.00     0.215 C
HETATM   14  N1  UNL     1       0.967   8.866  20.231  1.00  0.00    -0.065 NA
HETATM   15  N2  UNL     1      -1.033   9.563  18.971  1.00  0.00    -0.065 NA
ATOM     16  H3  UNL     1       1.504   7.648  18.141  1.00  0.00     0.189 HD
ENDBRANCH   2  12
ENDBRANCH   1   2
BRANCH   1  17
HETATM   17  C3  UNL     1      -0.769   5.783  16.306  1.00  0.00    -0.023 A
HETATM   18  C4  UNL     1      -1.731   4.863  15.886  1.00  0.00     0.014 A
HETATM   19  C5  UNL     1      -1.356   3.583  15.524  1.00  0.00     0.057 A
HETATM   20  C6  UNL     1      -0.043   3.164  15.561  1.00  0.00     0.142 A
HETATM   21  N5  UNL     1       0.871   4.061  15.967  1.00  0.00    -0.346 N
HETATM   22  C14 UNL     1       0.532   5.335  16.331  1.00  0.00     0.099 A
ATOM     23  H5  UNL     1       1.851   3.783  16.006  1.00  0.00     0.167 HD
BRANCH  20  24
HETATM   24  O1  UNL     1       0.268   1.866  15.184  1.00  0.00    -0.331 OA
BRANCH  24  25
HETATM   25  C7  UNL     1      -0.420   1.147  14.208  1.00  0.00     0.216 C
BRANCH  25  26
HETATM   26  C8  UNL     1       0.141   1.502  12.876  1.00  0.00    -0.034 A
HETATM   27  C9  UNL     1       1.015   0.659  12.235  1.00  0.00     0.009 A
HETATM   28  C10 UNL     1       1.545   0.975  10.993  1.00  0.00     0.001 A
HETATM   29  C11 UNL     1       1.180   2.166  10.395  1.00  0.00     0.000 A
HETATM   30  C12 UNL     1       0.307   3.029  11.013  1.00  0.00     0.001 A
HETATM   31  C13 UNL     1      -0.196   2.680  12.242  1.00  0.00     0.009 A
ENDBRANCH  25  26
ENDBRANCH  24  25
ENDBRANCH  20  24
ENDBRANCH   1  17
TORSDOF 6
ENDMDL