MODEL 5
REMARK VINA RESULT: -8.198504775      1.770      2.114
REMARK  10 active torsions:
REMARK  status: ('A' for Active; 'I' for Inactive)
REMARK    1  A    between atoms: C2_2  and  C3_3
REMARK    2  A    between atoms: C2_2  and  C4_8
REMARK    3  A    between atoms: C3_3  and  O1_4
REMARK    4  A    between atoms: O1_4  and  N1_5
REMARK    5  A    between atoms: C4_8  and  O2_9
REMARK    6  A    between atoms: O2_9  and  C5_10
REMARK    7  A    between atoms: C8_13  and  C9_14
REMARK    8  A    between atoms: C9_14  and  C10_15
REMARK    9  A    between atoms: C10_15  and  C11_16
REMARK   10  A    between atoms: C12_21  and  N4_22
ROOT
HETATM    1  C5  UNL     1      -0.419   2.839  13.805  1.00  0.00     0.068 A
HETATM    2  C6  UNL     1      -1.581   3.116  14.494  1.00  0.00     0.037 A
HETATM    3  C7  UNL     1      -1.937   4.439  14.735  1.00  0.00     0.014 A
HETATM    4  C8  UNL     1      -1.204   5.519  14.327  1.00  0.00    -0.036 A
HETATM    5  C14 UNL     1      -0.033   5.192  13.630  1.00  0.00     0.014 A
HETATM    6  C15 UNL     1       0.377   3.934  13.361  1.00  0.00     0.037 A
ENDROOT
BRANCH   4   7
HETATM    7  C9  UNL     1      -1.543   6.917  14.558  1.00  0.00     0.014 C
BRANCH   7   8
HETATM    8  C10 UNL     1      -0.760   7.740  15.162  1.00  0.00     0.037 C
BRANCH   8   9
HETATM    9  C11 UNL     1      -0.650   8.051  16.566  1.00  0.00     0.117 A
HETATM   10  N2  UNL     1      -0.809   7.005  17.455  1.00  0.00    -0.281 N
HETATM   11  N3  UNL     1      -0.725   7.194  18.747  1.00  0.00    -0.132 N
ATOM     12  H2  UNL     1      -0.994   6.067  17.098  1.00  0.00     0.187 HD
HETATM   13  C12 UNL     1      -0.484   8.395  19.286  1.00  0.00     0.693 A
ATOM     14  H3  UNL     1      -0.849   6.394  19.369  1.00  0.00     0.205 HD
HETATM   15  N5  UNL     1      -0.328   9.415  18.441  1.00  0.00    -0.153 N
HETATM   16  C13 UNL     1      -0.403   9.282  17.095  1.00  0.00     0.287 A
ATOM     17  H5  UNL     1      -0.144  10.341  18.827  1.00  0.00     0.187 HD
HETATM   18  O3  UNL     1      -0.250  10.269  16.344  1.00  0.00    -0.265 OA
BRANCH  13  19
HETATM   19  N4  UNL     1      -0.401   8.579  20.570  1.00  0.00    -0.233 N
ATOM     20  H42 UNL     1       0.281   8.065  21.127  1.00  0.00     0.174 HD
ATOM     21  H41 UNL     1      -1.004   9.235  21.068  1.00  0.00     0.174 HD
ENDBRANCH  13  19
ENDBRANCH   8   9
ENDBRANCH   7   8
ENDBRANCH   4   7
BRANCH   1  22
HETATM   22  O2  UNL     1      -0.051   1.614  13.566  1.00  0.00    -0.351 OA
BRANCH  22  23
HETATM   23  C4  UNL     1       0.608   0.651  13.030  1.00  0.00     0.182 C
BRANCH  23  24
HETATM   24  C2  UNL     1       1.959   0.860  12.364  1.00  0.00     0.032 C
HETATM   25  C1  UNL     1       1.858   1.319  10.975  1.00  0.00     0.014 C
BRANCH  24  26
HETATM   26  C3  UNL     1       2.765  -0.421  12.517  1.00  0.00     0.206 C
BRANCH  26  27
HETATM   27  O1  UNL     1       3.293  -0.390  13.824  1.00  0.00    -0.287 OA
BRANCH  27  28
HETATM   28  N1  UNL     1       3.796   0.820  14.119  1.00  0.00    -0.311 N
ATOM     29  H12 UNL     1       4.283   1.408  13.443  1.00  0.00     0.184 HD
ATOM     30  H11 UNL     1       3.626   1.064  15.095  1.00  0.00     0.184 HD
ENDBRANCH  27  28
ENDBRANCH  26  27
ENDBRANCH  24  26
ENDBRANCH  23  24
ENDBRANCH  22  23
ENDBRANCH   1  22
TORSDOF 10
ENDMDL