MODEL 3
REMARK VINA RESULT: -9.190190887      1.140      1.208
REMARK  6 active torsions:
REMARK  status: ('A' for Active; 'I' for Inactive)
REMARK    1  A    between atoms: C2_2  and  C3_4
REMARK    2  A    between atoms: C3_4  and  C5_6
REMARK    3  A    between atoms: C5_6  and  C6_8
REMARK       I    between atoms: C6_8  and  N1_10
REMARK    4  A    between atoms: N1_10  and  N2_12
REMARK    5  A    between atoms: C7_14  and  C8_15
REMARK    6  A    between atoms: C11_18  and  N3_19
REMARK       I    between atoms: N3_19  and  C12_21
ROOT
HETATM    1  N2  UNL     1      -0.323   5.584  15.810  1.00  0.00    -0.308 N
ATOM      2  H2  UNL     1       0.600   5.300  16.139  1.00  0.00     0.186 HD
HETATM    3  C7  UNL     1      -0.743   5.150  14.691  1.00  0.00     0.118 C
ENDROOT
BRANCH   3   4
HETATM    4  C8  UNL     1       0.075   4.251  13.870  1.00  0.00    -0.019 A
HETATM    5  C9  UNL     1       1.179   3.605  14.387  1.00  0.00     0.015 A
HETATM    6  C10 UNL     1       1.926   2.760  13.571  1.00  0.00     0.030 A
HETATM    7  C11 UNL     1       1.594   2.550  12.251  1.00  0.00     0.034 A
HETATM    8  C13 UNL     1       0.492   3.190  11.724  1.00  0.00     0.030 A
HETATM    9  C14 UNL     1      -0.243   4.028  12.548  1.00  0.00     0.015 A
BRANCH   7  10
HETATM   10  N3  UNL     1       2.371   1.678  11.423  1.00  0.00    -0.331 N
HETATM   11  C12 UNL     1       2.491   0.296  11.674  1.00  0.00     0.186 C
HETATM   12  N4  UNL     1       3.491  -0.180  12.333  1.00  0.00    -0.373 N
HETATM   13  N5  UNL     1       1.535  -0.664  11.226  1.00  0.00    -0.064 NA
ATOM     14  H42 UNL     1       4.174   0.506  12.653  1.00  0.00     0.158 HD
ATOM     15  H41 UNL     1       3.577  -1.181  12.514  1.00  0.00     0.158 HD
ATOM     16  H3  UNL     1       2.859   2.073  10.620  1.00  0.00     0.168 HD
ENDBRANCH   7  10
ENDBRANCH   3   4
BRANCH   1  17
HETATM   17  N1  UNL     1      -1.089   6.434  16.592  1.00  0.00    -0.264 N
HETATM   18  C6  UNL     1      -0.785   7.810  16.776  1.00  0.00     0.306 C
HETATM   19  O3  UNL     1       0.224   8.272  16.199  1.00  0.00    -0.263 OA
ATOM     20  H1  UNL     1      -1.911   6.052  17.059  1.00  0.00     0.190 HD
BRANCH  18  21
HETATM   21  C5  UNL     1      -1.620   8.680  17.613  1.00  0.00     0.229 C
HETATM   22  O2  UNL     1      -2.821   8.790  17.290  1.00  0.00    -0.286 OA
BRANCH  21  23
HETATM   23  C3  UNL     1      -1.102   9.397  18.776  1.00  0.00     0.131 C
HETATM   24  C4  UNL     1      -2.298   9.933  19.566  1.00  0.00     0.026 C
BRANCH  23  25
HETATM   25  C2  UNL     1      -0.295   8.540  19.634  1.00  0.00     0.134 C
HETATM   26  C1  UNL     1      -0.939   7.357  20.311  1.00  0.00     0.091 C
HETATM   27  O1  UNL     1       0.871   8.739  19.830  1.00  0.00    -0.298 OA
ENDBRANCH  23  25
ENDBRANCH  21  23
ENDBRANCH  18  21
ENDBRANCH   1  17
TORSDOF 6
ENDMDL