MODEL 1
REMARK VINA RESULT: -8.985117978      0.000      0.000
REMARK  11 active torsions:
REMARK  status: ('A' for Active; 'I' for Inactive)
REMARK       I    between atoms: C1_2  and  N1_4
REMARK    1  A    between atoms: N1_4  and  N2_6
REMARK    2  A    between atoms: N2_6  and  C2_7
REMARK    3  A    between atoms: C2_7  and  O3_8
REMARK    4  A    between atoms: C2_7  and  C3_10
REMARK    5  A    between atoms: C3_10  and  C4_11
REMARK    6  A    between atoms: C4_11  and  N3_12
REMARK    7  A    between atoms: N3_12  and  C5_14
REMARK    8  A    between atoms: C5_14  and  O4_15
REMARK    9  A    between atoms: C5_14  and  C6_17
REMARK   10  A    between atoms: C7_18  and  C8_19
REMARK   11  A    between atoms: C12_23  and  N4_24
ROOT
HETATM    1  C5  UNL     1       1.331   5.855  15.530  1.00  0.00     0.135 C
ENDROOT
BRANCH   1   2
HETATM    2  N3  UNL     1       0.782   7.111  15.214  1.00  0.00    -0.371 N
ATOM      3  H3  UNL     1       1.380   7.936  15.253  1.00  0.00     0.161 HD
BRANCH   2   4
HETATM    4  C4  UNL     1      -0.550   7.259  14.851  1.00  0.00     0.131 C
BRANCH   4   5
HETATM    5  C3  UNL     1      -0.770   8.798  14.646  1.00  0.00     0.122 C
BRANCH   5   6
HETATM    6  C2  UNL     1       0.012   9.534  15.596  1.00  0.00     0.216 C
BRANCH   6   7
HETATM    7  N2  UNL     1      -0.256   9.460  16.926  1.00  0.00    -0.300 NA
BRANCH   7   8
HETATM    8  N1  UNL     1      -0.521   9.383  18.210  1.00  0.00    -0.174 N
HETATM    9  C1  UNL     1       0.246   8.541  19.076  1.00  0.00     0.314 C
HETATM   10  O1  UNL     1       1.216   7.876  18.701  1.00  0.00    -0.628 OA
HETATM   11  O2  UNL     1      -0.108   8.464  20.436  1.00  0.00    -0.628 OA
ATOM     12  H1  UNL     1      -1.287   9.933  18.597  1.00  0.00     0.208 HD
ENDBRANCH   7   8
ENDBRANCH   6   7
BRANCH   6  13
HETATM   13  O3  UNL     1       0.984  10.312  15.150  1.00  0.00    -0.337 OA
ATOM     14  H3  UNL     1       0.788  11.169  14.790  1.00  0.00     0.220 HD
ENDBRANCH   6  13
ENDBRANCH   5   6
ENDBRANCH   4   5
ENDBRANCH   2   4
ENDBRANCH   1   2
BRANCH   1  15
HETATM   15  O4  UNL     1       2.640   5.797  15.501  1.00  0.00    -0.346 OA
ATOM     16  H4  UNL     1       3.006   5.312  14.771  1.00  0.00     0.219 HD
ENDBRANCH   1  15
BRANCH   1  17
HETATM   17  C6  UNL     1       0.504   4.706  15.857  1.00  0.00     0.056 C
HETATM   18  C7  UNL     1       0.288   3.641  15.265  1.00  0.00     0.015 C
BRANCH  18  19
HETATM   19  C8  UNL     1       0.824   3.171  13.950  1.00  0.00    -0.034 A
HETATM   20  C9  UNL     1       0.505   3.555  12.719  1.00  0.00     0.011 A
HETATM   21  C10 UNL     1       0.898   2.839  11.598  1.00  0.00     0.003 A
HETATM   22  C11 UNL     1       1.664   1.680  11.700  1.00  0.00     0.036 A
HETATM   23  C12 UNL     1       1.990   1.313  12.956  1.00  0.00     0.103 A
HETATM   24  C13 UNL     1       1.611   2.004  14.081  1.00  0.00     0.047 A
BRANCH  23  25
HETATM   25  N4  UNL     1       2.761   0.131  13.198  1.00  0.00    -0.116 N
HETATM   26  O5  UNL     1       3.567   0.056  14.090  1.00  0.00    -0.532 OA
HETATM   27  O6  UNL     1       2.603  -0.936  12.319  1.00  0.00    -0.532 OA
ENDBRANCH  23  25
ENDBRANCH  18  19
ENDBRANCH   1  17
TORSDOF 11
ENDMDL