MODEL 2
REMARK VINA RESULT: -7.379797328      1.630      1.714
REMARK  8 active torsions:
REMARK  status: ('A' for Active; 'I' for Inactive)
REMARK    1  A    between atoms: C1_2  and  C2_4
REMARK    2  A    between atoms: C2_4  and  N2_5
REMARK    3  A    between atoms: C2_4  and  C7_17
REMARK       I    between atoms: N2_5  and  C3_7
REMARK    4  A    between atoms: C3_7  and  C4_9
REMARK    5  A    between atoms: C4_9  and  N3_10
REMARK    6  A    between atoms: C4_9  and  C5_14
REMARK    7  A    between atoms: C5_14  and  C6_15
REMARK    8  A    between atoms: C10_20  and  N4_21
ROOT
HETATM    1  C2  UNL     1      -0.687   3.493  15.423  1.00  0.00     0.207 C
ENDROOT
BRANCH   1   2
HETATM    2  C1  UNL     1      -1.333   2.988  16.628  1.00  0.00     0.258 C
HETATM    3  N1  UNL     1      -1.685   3.799  17.743  1.00  0.00    -0.060 NA
HETATM    4  O1  UNL     1      -1.642   1.752  16.776  1.00  0.00    -0.274 OA
ENDBRANCH   1   2
BRANCH   1   5
HETATM    5  N2  UNL     1       0.472   2.718  15.002  1.00  0.00    -0.342 N
HETATM    6  C3  UNL     1       0.405   1.689  14.044  1.00  0.00     0.249 C
HETATM    7  O2  UNL     1      -0.704   1.430  13.529  1.00  0.00    -0.271 OA
ATOM      8  H2  UNL     1       1.377   2.931  15.422  1.00  0.00     0.163 HD
BRANCH   6   9
HETATM    9  C4  UNL     1       1.589   0.936  13.648  1.00  0.00     0.275 C
BRANCH   9  10
HETATM   10  N3  UNL     1       2.749   1.865  13.710  1.00  0.00    -0.066 N
ATOM     11  H33 UNL     1       3.296   1.876  12.850  1.00  0.00     0.275 HD
ATOM     12  H32 UNL     1       2.473   2.848  13.704  1.00  0.00     0.275 HD
ATOM     13  H31 UNL     1       3.300   1.611  14.530  1.00  0.00     0.275 HD
ENDBRANCH   9  10
BRANCH   9  14
HETATM   14  C5  UNL     1       1.620   0.403  12.262  1.00  0.00     0.053 C
BRANCH  14  15
HETATM   15  C6  UNL     1       2.198   1.262  11.203  1.00  0.00     0.088 C
HETATM   16  S1  UNL     1       0.844   2.234  10.420  1.00  0.00    -0.098 SA
ENDBRANCH  14  15
ENDBRANCH   9  14
ENDBRANCH   6   9
ENDBRANCH   1   5
BRANCH   1  17
HETATM   17  C7  UNL     1      -0.398   4.942  15.398  1.00  0.00    -0.027 A
HETATM   18  C8  UNL     1       0.696   5.546  15.940  1.00  0.00     0.012 A
HETATM   19  C9  UNL     1       0.911   6.912  15.899  1.00  0.00     0.037 A
HETATM   20  C10 UNL     1      -0.029   7.713  15.278  1.00  0.00     0.102 A
HETATM   21  C11 UNL     1      -1.142   7.145  14.720  1.00  0.00     0.037 A
HETATM   22  C12 UNL     1      -1.328   5.774  14.777  1.00  0.00     0.012 A
BRANCH  20  23
HETATM   23  N4  UNL     1       0.173   9.119  15.226  1.00  0.00    -0.116 N
HETATM   24  O3  UNL     1       1.268   9.589  14.889  1.00  0.00    -0.532 OA
HETATM   25  O4  UNL     1      -0.859   9.966  15.553  1.00  0.00    -0.532 OA
ENDBRANCH  20  23
ENDBRANCH   1  17
TORSDOF 8
ENDMDL