MODEL 4
REMARK VINA RESULT: -7.827561133      3.556      6.668
REMARK  8 active torsions:
REMARK  status: ('A' for Active; 'I' for Inactive)
REMARK    1  A    between atoms: N1_1  and  C1_5
REMARK    2  A    between atoms: C1_5  and  C2_6
REMARK    3  A    between atoms: C1_5  and  C4_10
REMARK    4  A    between atoms: C2_6  and  C3_8
REMARK       I    between atoms: C4_10  and  N2_12
REMARK    5  A    between atoms: N2_12  and  C5_14
REMARK    6  A    between atoms: C5_14  and  C6_15
REMARK    7  A    between atoms: C5_14  and  C12_23
REMARK    8  A    between atoms: C6_15  and  C7_16
ROOT
HETATM    1  C5  UNL     1      -1.196   2.156  13.946  1.00  0.00     0.156 C
ENDROOT
BRANCH   1   2
HETATM    2  N2  UNL     1      -0.396   1.617  12.889  1.00  0.00    -0.347 N
HETATM    3  C4  UNL     1       0.513   2.427  12.162  1.00  0.00     0.256 C
HETATM    4  O2  UNL     1       0.609   3.628  12.455  1.00  0.00    -0.271 OA
ATOM      5  H2  UNL     1      -0.482   0.627  12.653  1.00  0.00     0.163 HD
BRANCH   3   6
HETATM    6  C1  UNL     1       1.319   1.825  11.078  1.00  0.00     0.344 C
BRANCH   6   7
HETATM    7  N1  UNL     1       0.616   1.797   9.818  1.00  0.00    -0.059 N
ATOM      8  H13 UNL     1      -0.261   2.317   9.845  1.00  0.00     0.275 HD
ATOM      9  H12 UNL     1       1.080   2.347   9.096  1.00  0.00     0.275 HD
ATOM     10  H11 UNL     1       0.488   0.821   9.549  1.00  0.00     0.275 HD
ENDBRANCH   6   7
BRANCH   6  11
HETATM   11  C2  UNL     1       1.745   0.437  11.399  1.00  0.00     0.176 C
HETATM   12  O1  UNL     1       0.956  -0.491  11.210  1.00  0.00    -0.294 OA
BRANCH  11  13
HETATM   13  C3  UNL     1       3.078   0.081  11.937  1.00  0.00     0.167 C
HETATM   14  S1  UNL     1       2.999   0.229  13.745  1.00  0.00    -0.090 SA
ENDBRANCH  11  13
ENDBRANCH   6  11
ENDBRANCH   3   6
ENDBRANCH   1   2
BRANCH   1  15
HETATM   15  C6  UNL     1      -0.692   1.786  15.319  1.00  0.00     0.073 C
BRANCH  15  16
HETATM   16  C7  UNL     1      -0.777   2.848  16.301  1.00  0.00    -0.040 A
HETATM   17  C8  UNL     1      -1.798   2.867  17.218  1.00  0.00     0.010 A
HETATM   18  C9  UNL     1      -1.902   3.879  18.175  1.00  0.00     0.018 A
HETATM   19  C10 UNL     1      -0.929   4.854  18.145  1.00  0.00     0.087 A
HETATM   20  N3  UNL     1       0.070   4.857  17.266  1.00  0.00    -0.375 N
HETATM   21  C11 UNL     1       0.154   3.857  16.338  1.00  0.00     0.094 A
ATOM     22  H3  UNL     1       0.767   5.601  17.283  1.00  0.00     0.164 HD
ENDBRANCH  15  16
ENDBRANCH   1  15
BRANCH   1  23
HETATM   23  C12 UNL     1      -2.587   1.675  13.839  1.00  0.00     0.104 A
HETATM   24  N4  UNL     1      -2.950   0.410  13.582  1.00  0.00    -0.353 N
HETATM   25  C13 UNL     1      -4.319   0.347  13.560  1.00  0.00     0.106 A
ATOM     26  H4  UNL     1      -2.315  -0.374  13.429  1.00  0.00     0.166 HD
HETATM   27  C14 UNL     1      -4.785   1.613  13.810  1.00  0.00     0.106 A
HETATM   28  N5  UNL     1      -3.700   2.377  13.971  1.00  0.00    -0.353 N
ATOM     29  H5  UNL     1      -3.728   3.377  14.171  1.00  0.00     0.166 HD
ENDBRANCH   1  23
TORSDOF 8
ENDMDL