MODEL 4
REMARK VINA RESULT: -8.721666618      1.278      1.542
REMARK  8 active torsions:
REMARK  status: ('A' for Active; 'I' for Inactive)
REMARK    1  A    between atoms: O1_2  and  C2_3
REMARK    2  A    between atoms: C5_6  and  C6_7
REMARK    3  A    between atoms: C6_7  and  C7_8
REMARK    4  A    between atoms: C7_8  and  C8_9
REMARK       I    between atoms: C8_9  and  N1_11
REMARK    5  A    between atoms: N1_11  and  N2_13
REMARK    6  A    between atoms: N2_13  and  C9_14
REMARK    7  A    between atoms: C9_14  and  C10_15
REMARK    8  A    between atoms: C10_15  and  C11_17
ROOT
HETATM    1  C8  UNL     1       3.659   3.738   7.172  1.00  0.00     0.256 C
HETATM    2  O2  UNL     1       4.377   3.217   8.041  1.00  0.00    -0.267 OA
HETATM    3  N1  UNL     1       3.661   3.059   5.873  1.00  0.00    -0.270 N
ATOM      4  H1  UNL     1       3.110   3.419   5.093  1.00  0.00     0.185 HD
ENDROOT
BRANCH   3   5
HETATM    5  N2  UNL     1       4.429   1.916   5.734  1.00  0.00    -0.131 NA
BRANCH   5   6
HETATM    6  C9  UNL     1       5.647   2.263   5.026  1.00  0.00     0.219 C
BRANCH   6   7
HETATM    7  C10 UNL     1       5.240   3.010   3.782  1.00  0.00     0.183 C
HETATM    8  O3  UNL     1       4.207   2.686   3.154  1.00  0.00    -0.291 OA
BRANCH   7   9
HETATM    9  C11 UNL     1       6.065   4.108   3.330  1.00  0.00     0.104 A
HETATM   10  C12 UNL     1       5.809   5.443   3.439  1.00  0.00     0.041 A
HETATM   11  C13 UNL     1       4.593   6.056   4.074  1.00  0.00     0.071 C
HETATM   12  N3  UNL     1       6.842   6.111   2.884  1.00  0.00    -0.301 N
HETATM   13  N4  UNL     1       7.721   5.240   2.437  1.00  0.00    -0.266 N
ATOM     14  H3  UNL     1       6.928   7.125   2.822  1.00  0.00     0.186 HD
HETATM   15  C14 UNL     1       7.298   3.998   2.681  1.00  0.00     0.275 A
ATOM     16  H4  UNL     1       8.597   5.478   1.973  1.00  0.00     0.190 HD
HETATM   17  O4  UNL     1       7.847   2.900   2.416  1.00  0.00    -0.266 OA
ENDBRANCH   7   9
ENDBRANCH   6   7
ENDBRANCH   5   6
ENDBRANCH   3   5
BRANCH   1  18
HETATM   18  C7  UNL     1       2.853   4.895   7.304  1.00  0.00     0.076 C
BRANCH  18  19
HETATM   19  C6  UNL     1       2.825   5.834   8.170  1.00  0.00     0.017 C
BRANCH  19  20
HETATM   20  C5  UNL     1       2.153   5.961   9.431  1.00  0.00    -0.036 A
HETATM   21  C4  UNL     1       1.143   6.817   9.775  1.00  0.00     0.014 A
HETATM   22  C3  UNL     1       0.701   6.904  11.074  1.00  0.00     0.037 A
HETATM   23  C2  UNL     1       1.250   6.135  12.078  1.00  0.00     0.068 A
HETATM   24  C16 UNL     1       2.259   5.268  11.750  1.00  0.00     0.037 A
HETATM   25  C15 UNL     1       2.723   5.159  10.464  1.00  0.00     0.014 A
BRANCH  23  26
HETATM   26  O1  UNL     1       0.816   6.207  13.398  1.00  0.00    -0.356 OA
HETATM   27  C1  UNL     1       1.601   5.493  14.366  1.00  0.00     0.210 C
ENDBRANCH  23  26
ENDBRANCH  19  20
ENDBRANCH  18  19
ENDBRANCH   1  18
TORSDOF 8
ENDMDL