MODEL 4
REMARK VINA RESULT: -8.795504300      1.318      1.938
REMARK  8 active torsions:
REMARK  status: ('A' for Active; 'I' for Inactive)
REMARK    1  A    between atoms: C2_2  and  C3_3
REMARK    2  A    between atoms: C2_2  and  N4_21
REMARK    3  A    between atoms: C3_3  and  C4_4
REMARK    4  A    between atoms: C4_4  and  C6_6
REMARK       I    between atoms: C6_6  and  N1_8
REMARK    5  A    between atoms: N1_8  and  C7_10
REMARK    6  A    between atoms: C10_13  and  O2_14
REMARK    7  A    between atoms: O2_14  and  C11_15
REMARK    8  A    between atoms: N4_21  and  S1_23
ROOT
HETATM    1  C6  UNL     1       3.094   4.813   8.775  1.00  0.00     0.227 C
HETATM    2  O1  UNL     1       3.276   4.080   9.768  1.00  0.00    -0.273 OA
HETATM    3  N1  UNL     1       2.238   5.951   8.926  1.00  0.00    -0.307 N
ATOM      4  H1  UNL     1       2.071   6.566   8.130  1.00  0.00     0.171 HD
ENDROOT
BRANCH   1   5
HETATM    5  C4  UNL     1       3.732   4.542   7.444  1.00  0.00     0.076 C
HETATM    6  C5  UNL     1       2.725   5.240   6.471  1.00  0.00     0.020 C
BRANCH   5   7
HETATM    7  C3  UNL     1       5.045   5.216   7.270  1.00  0.00     0.039 C
BRANCH   7   8
HETATM    8  C2  UNL     1       6.175   4.446   6.721  1.00  0.00     0.089 C
HETATM    9  C1  UNL     1       7.503   4.700   7.355  1.00  0.00     0.033 C
BRANCH   8  10
HETATM   10  N4  UNL     1       5.892   3.017   6.614  1.00  0.00    -0.315 N
ATOM     11  H4  UNL     1       5.682   2.425   7.417  1.00  0.00     0.172 HD
BRANCH  10  12
HETATM   12  S1  UNL     1       5.951   2.438   5.001  1.00  0.00     0.223 S
HETATM   13  C12 UNL     1       4.529   2.943   4.061  1.00  0.00     0.185 C
HETATM   14  O4  UNL     1       7.154   3.058   4.350  1.00  0.00    -0.206 OA
HETATM   15  O5  UNL     1       6.010   0.938   4.956  1.00  0.00    -0.206 OA
ENDBRANCH  10  12
ENDBRANCH   8  10
ENDBRANCH   7   8
ENDBRANCH   5   7
ENDBRANCH   1   5
BRANCH   3  16
HETATM   16  C7  UNL     1       1.620   6.232  10.173  1.00  0.00     0.153 A
HETATM   17  C8  UNL     1       0.681   7.205  10.438  1.00  0.00     0.061 A
HETATM   18  C9  UNL     1       0.392   7.081  11.773  1.00  0.00     0.069 A
HETATM   19  C10 UNL     1       1.152   6.047  12.289  1.00  0.00     0.195 A
HETATM   20  O3  UNL     1       1.858   5.585  11.292  1.00  0.00    -0.270 OA
BRANCH  19  21
HETATM   21  O2  UNL     1       1.202   5.558  13.574  1.00  0.00    -0.258 OA
BRANCH  21  22
HETATM   22  C11 UNL     1       2.344   4.905  14.010  1.00  0.00     0.232 C
HETATM   23  N2  UNL     1       2.749   3.894  13.337  1.00  0.00    -0.367 N
ATOM     24  H22 UNL     1       2.238   3.588  12.509  1.00  0.00     0.159 HD
ATOM     25  H21 UNL     1       3.590   3.414  13.657  1.00  0.00     0.159 HD
HETATM   26  N3  UNL     1       3.052   5.330  15.159  1.00  0.00    -0.056 NA
ENDBRANCH  21  22
ENDBRANCH  19  21
ENDBRANCH   3  16
TORSDOF 8
ENDMDL