MODEL 2
REMARK VINA RESULT: -9.033400069      1.887      2.915
REMARK  7 active torsions:
REMARK  status: ('A' for Active; 'I' for Inactive)
REMARK    1  A    between atoms: C1_4  and  C2_5
REMARK    2  A    between atoms: C2_5  and  N2_6
REMARK       I    between atoms: N2_6  and  C3_8
REMARK    3  A    between atoms: C3_8  and  C4_10
REMARK    4  A    between atoms: C6_12  and  C7_13
REMARK    5  A    between atoms: C7_13  and  C8_14
REMARK    6  A    between atoms: C12_20  and  C13_21
REMARK    7  A    between atoms: C15_25  and  N5_26
ROOT
HETATM    1  C4  UNL     1       4.769   4.609   8.636  1.00  0.00     0.034 A
HETATM    2  C5  UNL     1       4.358   4.971   9.901  1.00  0.00     0.024 A
HETATM    3  C6  UNL     1       5.102   5.814  10.739  1.00  0.00    -0.049 A
HETATM    4  C14 UNL     1       6.281   6.280  10.250  1.00  0.00     0.043 A
HETATM    5  C15 UNL     1       6.751   5.949   8.975  1.00  0.00     0.104 A
HETATM    6  C16 UNL     1       5.978   5.122   8.206  1.00  0.00     0.053 A
ENDROOT
BRANCH   3   7
HETATM    7  C7  UNL     1       4.534   6.152  12.095  1.00  0.00     0.096 C
BRANCH   7   8
HETATM    8  C8  UNL     1       3.104   6.422  12.040  1.00  0.00     0.028 A
HETATM    9  N3  UNL     1       2.657   7.203  10.997  1.00  0.00    -0.368 N
HETATM   10  C9  UNL     1       1.358   7.437  10.775  1.00  0.00     0.088 A
ATOM     11  H3  UNL     1       3.344   7.620  10.369  1.00  0.00     0.165 HD
HETATM   12  C10 UNL     1       0.383   6.900  11.590  1.00  0.00     0.018 A
HETATM   13  C11 UNL     1       0.793   6.122  12.637  1.00  0.00     0.020 A
HETATM   14  C12 UNL     1       2.166   5.888  12.857  1.00  0.00     0.052 A
BRANCH  14  15
HETATM   15  C13 UNL     1       2.472   5.166  14.060  1.00  0.00     0.266 C
HETATM   16  N4  UNL     1       3.015   3.874  14.180  1.00  0.00    -0.057 NA
HETATM   17  O2  UNL     1       2.239   5.749  15.182  1.00  0.00    -0.271 OA
ENDBRANCH  14  15
ENDBRANCH   7   8
ENDBRANCH   3   7
BRANCH   1  18
HETATM   18  C3  UNL     1       3.963   3.727   7.796  1.00  0.00     0.252 C
HETATM   19  N2  UNL     1       3.896   3.790   6.402  1.00  0.00    -0.352 N
ATOM     20  H2  UNL     1       4.440   4.496   5.905  1.00  0.00     0.163 HD
HETATM   21  O1  UNL     1       3.273   2.837   8.391  1.00  0.00    -0.268 OA
BRANCH  19  22
HETATM   22  C2  UNL     1       3.066   2.870   5.649  1.00  0.00     0.166 C
BRANCH  22  23
HETATM   23  C1  UNL     1       2.759   3.417   4.317  1.00  0.00     0.072 C
HETATM   24  N1  UNL     1       2.792   2.655   3.302  1.00  0.00    -0.410 N
ATOM     25  H12 UNL     1       3.031   1.671   3.427  1.00  0.00     0.155 HD
ATOM     26  H11 UNL     1       2.579   3.034   2.380  1.00  0.00     0.155 HD
ENDBRANCH  22  23
ENDBRANCH  19  22
ENDBRANCH   1  18
BRANCH   5  27
HETATM   27  N5  UNL     1       7.989   6.458   8.502  1.00  0.00    -0.116 N
HETATM   28  O3  UNL     1       8.520   7.416   9.121  1.00  0.00    -0.532 OA
HETATM   29  O4  UNL     1       8.599   5.940   7.412  1.00  0.00    -0.532 OA
ENDBRANCH   5  27
TORSDOF 7
ENDMDL