MODEL 5
REMARK VINA RESULT: -7.442048884      2.395      7.821
REMARK  8 active torsions:
REMARK  status: ('A' for Active; 'I' for Inactive)
REMARK    1  A    between atoms: C2_2  and  C3_3
REMARK    2  A    between atoms: C3_3  and  O1_4
REMARK    3  A    between atoms: O1_4  and  C4_5
REMARK    4  A    between atoms: C5_8  and  N2_9
REMARK    5  A    between atoms: C7_16  and  N4_17
REMARK       I    between atoms: N4_17  and  C8_19
REMARK    6  A    between atoms: C8_19  and  C9_21
REMARK    7  A    between atoms: C9_21  and  O4_22
REMARK    8  A    between atoms: O4_22  and  C10_23
ROOT
HETATM    1  C10 UNL     1       2.471   5.549   9.224  1.00  0.00     0.069 A
HETATM    2  C11 UNL     1       3.234   4.974  10.252  1.00  0.00     0.038 A
HETATM    3  C12 UNL     1       3.048   5.265  11.581  1.00  0.00     0.025 A
HETATM    4  C13 UNL     1       2.058   6.170  11.910  1.00  0.00     0.044 A
HETATM    5  C14 UNL     1       1.852   6.486  13.306  1.00  0.00     0.099 C
HETATM    6  N5  UNL     1       1.675   6.752  14.425  1.00  0.00    -0.191 NA
HETATM    7  C15 UNL     1       1.297   6.748  10.920  1.00  0.00     0.025 A
HETATM    8  C16 UNL     1       1.499   6.440   9.573  1.00  0.00     0.038 A
ENDROOT
BRANCH   1   9
HETATM    9  O4  UNL     1       2.776   5.156   7.955  1.00  0.00    -0.342 OA
BRANCH   9  10
HETATM   10  C9  UNL     1       3.384   4.009   7.493  1.00  0.00     0.278 C
BRANCH  10  11
HETATM   11  C8  UNL     1       4.370   4.226   6.410  1.00  0.00     0.246 C
HETATM   12  N4  UNL     1       5.250   3.189   6.026  1.00  0.00    -0.317 N
ATOM     13  H4  UNL     1       5.190   2.293   6.508  1.00  0.00     0.169 HD
HETATM   14  O3  UNL     1       4.430   5.333   5.825  1.00  0.00    -0.271 OA
BRANCH  12  15
HETATM   15  C7  UNL     1       6.203   3.346   5.008  1.00  0.00     0.156 A
HETATM   16  C4  UNL     1       7.428   3.931   5.221  1.00  0.00     0.190 A
HETATM   17  N1  UNL     1       8.304   4.050   4.180  1.00  0.00    -0.168 N
HETATM   18  C5  UNL     1       7.959   3.598   2.967  1.00  0.00     0.680 A
ATOM     19  H1  UNL     1       9.216   4.482   4.325  1.00  0.00     0.186 HD
HETATM   20  N3  UNL     1       6.763   3.021   2.735  1.00  0.00    -0.154 N
HETATM   21  C6  UNL     1       5.892   2.892   3.731  1.00  0.00     0.290 A
ATOM     22  H3  UNL     1       6.527   2.686   1.801  1.00  0.00     0.187 HD
HETATM   23  O2  UNL     1       4.768   2.350   3.514  1.00  0.00    -0.265 OA
BRANCH  16  24
HETATM   24  O1  UNL     1       7.779   4.396   6.474  1.00  0.00    -0.330 OA
BRANCH  24  25
HETATM   25  C3  UNL     1       7.941   5.776   6.733  1.00  0.00     0.204 C
BRANCH  25  26
HETATM   26  C2  UNL     1       7.858   5.938   8.207  1.00  0.00    -0.011 C
HETATM   27  C1  UNL     1       6.729   5.717   8.850  1.00  0.00     0.009 C
ENDBRANCH  25  26
ENDBRANCH  24  25
ENDBRANCH  16  24
BRANCH  18  28
HETATM   28  N2  UNL     1       8.774   3.700   1.964  1.00  0.00    -0.234 N
ATOM     29  H22 UNL     1       9.687   3.254   2.055  1.00  0.00     0.174 HD
ATOM     30  H21 UNL     1       8.505   4.209   1.122  1.00  0.00     0.174 HD
ENDBRANCH  18  28
ENDBRANCH  12  15
ENDBRANCH  10  11
ENDBRANCH   9  10
ENDBRANCH   1   9
TORSDOF 8
ENDMDL