MODEL 1
REMARK VINA RESULT: -8.660906382      0.000      0.000
REMARK  7 active torsions:
REMARK  status: ('A' for Active; 'I' for Inactive)
REMARK    1  A    between atoms: N1_1  and  N2_4
REMARK    2  A    between atoms: N2_4  and  C1_5
REMARK    3  A    between atoms: C1_5  and  C2_7
REMARK       I    between atoms: C2_7  and  N3_9
REMARK    4  A    between atoms: N3_9  and  C3_11
REMARK    5  A    between atoms: C3_11  and  C4_12
REMARK    6  A    between atoms: C3_11  and  C5_15
REMARK    7  A    between atoms: C6_18  and  C7_19
ROOT
HETATM    1  C3  UNL     1       4.255   2.378   6.630  1.00  0.00     0.243 C
ENDROOT
BRANCH   1   2
HETATM    2  N3  UNL     1       4.688   2.989   5.386  1.00  0.00    -0.339 N
HETATM    3  C2  UNL     1       5.660   2.411   4.542  1.00  0.00     0.250 C
HETATM    4  O1  UNL     1       6.163   1.306   4.911  1.00  0.00    -0.271 OA
ATOM      5  H3  UNL     1       4.269   3.877   5.108  1.00  0.00     0.163 HD
BRANCH   3   6
HETATM    6  C1  UNL     1       6.050   3.087   3.296  1.00  0.00     0.262 C
HETATM    7  S1  UNL     1       6.168   4.879   3.558  1.00  0.00    -0.062 SA
BRANCH   6   8
HETATM    8  N2  UNL     1       7.278   2.542   2.752  1.00  0.00    -0.122 NA
BRANCH   8   9
HETATM    9  N1  UNL     1       7.996   3.471   2.019  1.00  0.00    -0.347 N
ATOM     10  H12 UNL     1       7.851   4.477   2.109  1.00  0.00     0.172 HD
ATOM     11  H11 UNL     1       8.674   3.038   1.391  1.00  0.00     0.172 HD
ENDBRANCH   8   9
ENDBRANCH   6   8
ENDBRANCH   3   6
ENDBRANCH   1   2
BRANCH   1  12
HETATM   12  C4  UNL     1       2.866   1.888   6.464  1.00  0.00     0.203 C
HETATM   13  O2  UNL     1       2.401   1.062   7.258  1.00  0.00    -0.646 OA
HETATM   14  O3  UNL     1       2.094   2.362   5.414  1.00  0.00    -0.646 OA
ENDBRANCH   1  12
BRANCH   1  15
HETATM   15  C5  UNL     1       4.314   3.380   7.741  1.00  0.00     0.085 A
HETATM   16  N4  UNL     1       3.338   3.977   8.395  1.00  0.00    -0.351 N
HETATM   17  C6  UNL     1       3.616   4.826   9.336  1.00  0.00     0.049 A
ATOM     18  H4  UNL     1       2.366   3.773   8.163  1.00  0.00     0.166 HD
HETATM   19  C13 UNL     1       4.941   5.063   9.605  1.00  0.00     0.082 A
HETATM   20  S2  UNL     1       5.708   4.034   8.470  1.00  0.00    -0.084 SA
BRANCH  17  21
HETATM   21  C7  UNL     1       2.550   5.524  10.104  1.00  0.00    -0.009 A
HETATM   22  C8  UNL     1       1.711   6.432   9.530  1.00  0.00     0.014 A
HETATM   23  C9  UNL     1       0.715   7.091  10.223  1.00  0.00     0.001 A
HETATM   24  C10 UNL     1       0.544   6.834  11.558  1.00  0.00     0.000 A
HETATM   25  C11 UNL     1       1.368   5.926  12.172  1.00  0.00     0.001 A
HETATM   26  C12 UNL     1       2.354   5.283  11.457  1.00  0.00     0.014 A
ENDBRANCH  17  21
ENDBRANCH   1  15
TORSDOF 7
ENDMDL