MODEL 4
REMARK VINA RESULT: -8.034229233      2.889      3.815
REMARK  7 active torsions:
REMARK  status: ('A' for Active; 'I' for Inactive)
REMARK    1  A    between atoms: C2_2  and  S1_4
REMARK    2  A    between atoms: S1_4  and  C4_5
REMARK    3  A    between atoms: C4_5  and  C5_6
REMARK       I    between atoms: C5_6  and  N1_8
REMARK    4  A    between atoms: N1_8  and  N2_10
REMARK    5  A    between atoms: N2_10  and  S2_12
REMARK    6  A    between atoms: S2_12  and  C6_15
REMARK    7  A    between atoms: C9_18  and  N3_19
REMARK       I    between atoms: N3_19  and  C10_21
ROOT
HETATM    1  S2  UNL     1       3.327   3.550   4.051  1.00  0.00     0.276 S
HETATM    2  O2  UNL     1       3.200   4.886   3.393  1.00  0.00    -0.199 OA
HETATM    3  O3  UNL     1       2.076   2.783   3.724  1.00  0.00    -0.199 OA
ENDROOT
BRANCH   1   4
HETATM    4  N2  UNL     1       4.665   2.721   3.399  1.00  0.00    -0.220 N
ATOM      5  H2  UNL     1       4.581   2.072   2.616  1.00  0.00     0.200 HD
BRANCH   4   6
HETATM    6  N1  UNL     1       5.872   2.995   4.012  1.00  0.00    -0.260 N
HETATM    7  C5  UNL     1       6.816   3.952   3.472  1.00  0.00     0.245 C
HETATM    8  O1  UNL     1       6.490   4.518   2.427  1.00  0.00    -0.271 OA
ATOM      9  H1  UNL     1       6.107   2.505   4.875  1.00  0.00     0.190 HD
BRANCH   7  10
HETATM   10  C4  UNL     1       8.070   4.171   4.198  1.00  0.00     0.178 C
BRANCH  10  11
HETATM   11  S1  UNL     1       8.099   5.438   5.428  1.00  0.00    -0.156 SA
BRANCH  11  12
HETATM   12  C2  UNL     1       7.314   5.110   6.978  1.00  0.00     0.039 C
HETATM   13  C1  UNL     1       8.038   5.711   8.153  1.00  0.00     0.021 C
HETATM   14  C3  UNL     1       7.021   3.636   7.205  1.00  0.00     0.021 C
ENDBRANCH  11  12
ENDBRANCH  10  11
ENDBRANCH   7  10
ENDBRANCH   4   6
ENDBRANCH   1   4
BRANCH   1  15
HETATM   15  C6  UNL     1       3.393   3.742   5.789  1.00  0.00     0.081 A
HETATM   16  C7  UNL     1       3.329   2.629   6.595  1.00  0.00     0.027 A
HETATM   17  C8  UNL     1       3.387   2.762   7.990  1.00  0.00     0.031 A
HETATM   18  C9  UNL     1       3.507   3.975   8.613  1.00  0.00     0.036 A
HETATM   19  C11 UNL     1       3.568   5.075   7.766  1.00  0.00     0.031 A
HETATM   20  C12 UNL     1       3.513   4.968   6.395  1.00  0.00     0.027 A
BRANCH  18  21
HETATM   21  N3  UNL     1       3.573   4.178  10.001  1.00  0.00    -0.311 N
HETATM   22  C10 UNL     1       2.756   4.967  10.808  1.00  0.00     0.333 C
HETATM   23  N4  UNL     1       2.991   5.041  12.208  1.00  0.00    -0.040 NA
HETATM   24  O4  UNL     1       1.806   5.628  10.371  1.00  0.00    -0.251 OA
ATOM     25  H3  UNL     1       4.321   3.681  10.484  1.00  0.00     0.170 HD
ENDBRANCH  18  21
ENDBRANCH   1  15
TORSDOF 7
ENDMDL