MODEL 5
REMARK VINA RESULT: -8.414230945      1.085      1.196
REMARK  8 active torsions:
REMARK  status: ('A' for Active; 'I' for Inactive)
REMARK    1  A    between atoms: C5_6  and  S1_7
REMARK    2  A    between atoms: S1_7  and  N2_10
REMARK    3  A    between atoms: N2_10  and  C6_12
REMARK    4  A    between atoms: C6_12  and  C7_13
REMARK    5  A    between atoms: C7_13  and  N3_14
REMARK    6  A    between atoms: C7_13  and  C8_18
REMARK    7  A    between atoms: C8_18  and  N4_19
REMARK       I    between atoms: N4_19  and  C9_21
REMARK    8  A    between atoms: C9_21  and  C10_23
ROOT
HETATM    1  C7  UNL     1       3.497   3.050   7.301  1.00  0.00     0.219 C
ENDROOT
BRANCH   1   2
HETATM    2  C6  UNL     1       4.827   3.606   7.812  1.00  0.00     0.166 C
BRANCH   2   3
HETATM    3  N2  UNL     1       4.824   3.762   9.236  1.00  0.00    -0.313 N
ATOM      4  H2  UNL     1       4.780   2.974   9.883  1.00  0.00     0.172 HD
BRANCH   3   5
HETATM    5  S1  UNL     1       4.901   5.380   9.748  1.00  0.00     0.258 S
HETATM    6  O1  UNL     1       5.941   5.464  10.853  1.00  0.00    -0.201 OA
HETATM    7  O2  UNL     1       5.301   6.337   8.698  1.00  0.00    -0.201 OA
BRANCH   5   8
HETATM    8  C5  UNL     1       3.398   5.945  10.462  1.00  0.00     0.081 A
HETATM    9  C4  UNL     1       2.355   6.206   9.595  1.00  0.00     0.025 A
HETATM   10  C3  UNL     1       1.153   6.649  10.085  1.00  0.00     0.003 A
HETATM   11  C2  UNL     1       1.008   6.826  11.443  1.00  0.00     0.026 A
HETATM   12  C1  UNL     1       2.036   6.571  12.320  1.00  0.00     0.047 A
HETATM   13  N1  UNL     1       1.889   6.753  13.724  1.00  0.00    -0.102 NA
HETATM   14  C14 UNL     1       3.231   6.126  11.797  1.00  0.00     0.051 A
ENDBRANCH   5   8
ENDBRANCH   3   5
ENDBRANCH   2   3
ENDBRANCH   1   2
BRANCH   1  15
HETATM   15  N3  UNL     1       3.010   2.229   8.382  1.00  0.00    -0.072 N
ATOM     16  H33 UNL     1       3.633   2.190   9.189  1.00  0.00     0.274 HD
ATOM     17  H32 UNL     1       2.209   2.622   8.876  1.00  0.00     0.274 HD
ATOM     18  H31 UNL     1       2.830   1.322   7.952  1.00  0.00     0.274 HD
ENDBRANCH   1  15
BRANCH   1  19
HETATM   19  C8  UNL     1       3.781   2.223   6.098  1.00  0.00     0.157 C
BRANCH  19  20
HETATM   20  N4  UNL     1       4.765   2.671   5.180  1.00  0.00    -0.353 N
HETATM   21  C9  UNL     1       4.684   3.008   3.837  1.00  0.00     0.275 C
HETATM   22  O3  UNL     1       3.644   2.960   3.166  1.00  0.00    -0.265 OA
ATOM     23  H4  UNL     1       5.699   2.761   5.579  1.00  0.00     0.162 HD
BRANCH  21  24
HETATM   24  C10 UNL     1       5.884   3.465   3.097  1.00  0.00     0.142 A
HETATM   25  C11 UNL     1       6.841   2.635   2.545  1.00  0.00     0.045 A
HETATM   26  C12 UNL     1       7.785   3.458   1.948  1.00  0.00     0.027 A
HETATM   27  C13 UNL     1       7.369   4.732   2.160  1.00  0.00     0.143 A
HETATM   28  O4  UNL     1       6.259   4.680   2.833  1.00  0.00    -0.317 OA
ENDBRANCH  21  24
ENDBRANCH  19  20
ENDBRANCH   1  19
TORSDOF 8
ENDMDL