MODEL 4
REMARK VINA RESULT: -9.048211546      1.082      1.112
REMARK  7 active torsions:
REMARK  status: ('A' for Active; 'I' for Inactive)
REMARK    1  A    between atoms: C5_5  and  C6_6
REMARK       I    between atoms: C6_6  and  N1_8
REMARK    2  A    between atoms: N1_8  and  C7_10
REMARK    3  A    between atoms: C7_10  and  C8_11
REMARK    4  A    between atoms: C8_11  and  N3_14
REMARK    5  A    between atoms: N3_14  and  C10_16
REMARK    6  A    between atoms: C10_16  and  C11_17
REMARK    7  A    between atoms: C10_16  and  C13_26
ROOT
HETATM    1  C8  UNL     1       5.060   7.668  10.261  1.00  0.00     0.225 C
HETATM    2  C9  UNL     1       5.506   8.811  11.089  1.00  0.00     0.089 C
HETATM    3  N2  UNL     1       5.799   9.726  11.753  1.00  0.00    -0.195 NA
ENDROOT
BRANCH   1   4
HETATM    4  C7  UNL     1       6.116   6.625  10.141  1.00  0.00     0.103 C
BRANCH   4   5
HETATM    5  N1  UNL     1       6.121   5.734   9.071  1.00  0.00    -0.332 N
HETATM    6  C6  UNL     1       7.053   5.268   8.148  1.00  0.00     0.279 C
HETATM    7  O1  UNL     1       8.265   5.574   8.059  1.00  0.00    -0.265 OA
ATOM      8  H1  UNL     1       5.204   5.313   8.927  1.00  0.00     0.168 HD
BRANCH   6   9
HETATM    9  C5  UNL     1       6.583   4.284   7.126  1.00  0.00     0.143 A
HETATM   10  C4  UNL     1       7.318   3.803   6.084  1.00  0.00     0.045 A
HETATM   11  C3  UNL     1       6.492   2.930   5.407  1.00  0.00     0.035 A
HETATM   12  C2  UNL     1       5.290   2.914   6.061  1.00  0.00     0.050 A
HETATM   13  C1  UNL     1       4.053   2.152   5.760  1.00  0.00     0.076 C
HETATM   14  O3  UNL     1       5.404   3.738   7.075  1.00  0.00    -0.310 OA
ENDBRANCH   6   9
ENDBRANCH   4   5
ENDBRANCH   1   4
BRANCH   1  15
HETATM   15  N3  UNL     1       3.909   7.163  10.894  1.00  0.00    -0.390 N
ATOM     16  H3  UNL     1       3.452   7.775  11.572  1.00  0.00     0.155 HD
BRANCH  15  17
HETATM   17  C10 UNL     1       3.336   5.924  10.691  1.00  0.00     0.151 C
BRANCH  17  18
HETATM   18  C11 UNL     1       3.121   5.287  12.055  1.00  0.00     0.123 A
HETATM   19  N4  UNL     1       3.095   5.983  13.224  1.00  0.00    -0.294 N
HETATM   20  C12 UNL     1       2.851   5.114  14.227  1.00  0.00     0.340 A
ATOM     21  H4  UNL     1       3.236   6.989  13.325  1.00  0.00     0.172 HD
HETATM   22  O2  UNL     1       2.756   5.394  15.449  1.00  0.00    -0.245 OA
HETATM   23  N5  UNL     1       2.724   3.888  13.686  1.00  0.00    -0.250 N
HETATM   24  N6  UNL     1       2.894   4.022  12.354  1.00  0.00    -0.283 N
ATOM     25  H5  UNL     1       2.535   3.020  14.189  1.00  0.00     0.192 HD
ATOM     26  H6  UNL     1       2.853   3.259  11.678  1.00  0.00     0.188 HD
ENDBRANCH  17  18
BRANCH  17  27
HETATM   27  C13 UNL     1       2.110   5.860   9.863  1.00  0.00     0.007 C
HETATM   28  C14 UNL     1       1.160   7.015   9.957  1.00  0.00     0.012 C
HETATM   29  C15 UNL     1       2.486   5.711   8.364  1.00  0.00     0.012 C
ENDBRANCH  17  27
ENDBRANCH  15  17
ENDBRANCH   1  15
TORSDOF 7
ENDMDL