MODEL 3
REMARK VINA RESULT: -8.311996106      3.712      7.362
REMARK  8 active torsions:
REMARK  status: ('A' for Active; 'I' for Inactive)
REMARK    1  A    between atoms: C2_2  and  N1_3
REMARK    2  A    between atoms: C2_2  and  C13_25
REMARK       I    between atoms: N1_3  and  C3_5
REMARK    3  A    between atoms: C3_5  and  C4_7
REMARK    4  A    between atoms: C4_7  and  C6_10
REMARK    5  A    between atoms: C6_10  and  N4_14
REMARK    6  A    between atoms: N4_14  and  O2_16
REMARK    7  A    between atoms: O2_16  and  C7_17
REMARK    8  A    between atoms: C7_17  and  C8_18
ROOT
HETATM    1  C4  UNL     1       2.828   6.157  11.878  1.00  0.00     0.253 C
HETATM    2  C5  UNL     1       1.424   6.349  12.227  1.00  0.00     0.081 C
HETATM    3  N2  UNL     1       0.310   6.494  12.511  1.00  0.00    -0.196 NA
ENDROOT
BRANCH   1   4
HETATM    4  C3  UNL     1       3.236   7.090  10.791  1.00  0.00     0.243 C
HETATM    5  N1  UNL     1       4.455   7.819  10.838  1.00  0.00    -0.348 N
ATOM      6  H1  UNL     1       5.091   7.720  11.630  1.00  0.00     0.163 HD
HETATM    7  O1  UNL     1       2.459   7.218   9.814  1.00  0.00    -0.272 OA
BRANCH   5   8
HETATM    8  C2  UNL     1       4.770   8.695   9.751  1.00  0.00     0.148 C
HETATM    9  C1  UNL     1       5.653   7.900   8.780  1.00  0.00     0.040 C
BRANCH   8  10
HETATM   10  C13 UNL     1       5.533   9.904  10.216  1.00  0.00     0.103 A
HETATM   11  N6  UNL     1       6.692  10.390   9.733  1.00  0.00    -0.353 N
HETATM   12  C14 UNL     1       7.066  11.482  10.399  1.00  0.00     0.106 A
ATOM     13  H6  UNL     1       7.214   9.977   8.960  1.00  0.00     0.166 HD
HETATM   14  C15 UNL     1       6.101  11.709  11.355  1.00  0.00     0.106 A
HETATM   15  N7  UNL     1       5.185  10.733  11.217  1.00  0.00    -0.353 N
ATOM     16  H7  UNL     1       4.347  10.635  11.790  1.00  0.00     0.166 HD
ENDBRANCH   8  10
ENDBRANCH   5   8
ENDBRANCH   1   4
BRANCH   1  17
HETATM   17  C6  UNL     1       3.004   4.746  11.498  1.00  0.00     0.122 C
HETATM   18  N3  UNL     1       2.579   3.826  12.280  1.00  0.00    -0.386 N
ATOM     19  H32 UNL     1       2.130   4.122  13.148  1.00  0.00     0.157 HD
ATOM     20  H31 UNL     1       2.701   2.849  12.017  1.00  0.00     0.157 HD
BRANCH  17  21
HETATM   21  N4  UNL     1       3.629   4.335  10.289  1.00  0.00    -0.253 N
ATOM     22  H4  UNL     1       4.648   4.299  10.267  1.00  0.00     0.195 HD
BRANCH  21  23
HETATM   23  O2  UNL     1       2.971   3.994   9.185  1.00  0.00    -0.273 OA
BRANCH  23  24
HETATM   24  C7  UNL     1       3.739   3.401   8.210  1.00  0.00     0.258 C
BRANCH  24  25
HETATM   25  C8  UNL     1       3.389   3.855   6.834  1.00  0.00     0.035 A
HETATM   26  C9  UNL     1       3.187   5.164   6.513  1.00  0.00     0.027 A
HETATM   27  C10 UNL     1       2.860   5.606   5.242  1.00  0.00     0.003 A
HETATM   28  C11 UNL     1       2.734   4.663   4.245  1.00  0.00     0.017 A
HETATM   29  C12 UNL     1       2.943   3.344   4.592  1.00  0.00     0.088 A
HETATM   30  N5  UNL     1       3.259   2.946   5.836  1.00  0.00    -0.367 N
ATOM     31  H5  UNL     1       3.402   1.956   6.031  1.00  0.00     0.165 HD
ENDBRANCH  24  25
ENDBRANCH  23  24
ENDBRANCH  21  23
ENDBRANCH  17  21
ENDBRANCH   1  17
TORSDOF 8
ENDMDL