MODEL 4
REMARK VINA RESULT: -8.196924897      1.839      2.095
REMARK  9 active torsions:
REMARK  status: ('A' for Active; 'I' for Inactive)
REMARK    1  A    between atoms: O1_2  and  C2_3
REMARK    2  A    between atoms: C5_6  and  N1_7
REMARK       I    between atoms: N1_7  and  C6_9
REMARK    3  A    between atoms: C6_9  and  C7_11
REMARK    4  A    between atoms: C7_11  and  N2_14
REMARK       I    between atoms: N2_14  and  C10_16
REMARK    5  A    between atoms: C10_16  and  C11_18
REMARK    6  A    between atoms: C11_18  and  O4_19
REMARK    7  A    between atoms: C11_18  and  C12_21
REMARK    8  A    between atoms: C12_21  and  N3_23
REMARK    9  A    between atoms: N3_23  and  O5_24
ROOT
HETATM    1  C7  UNL     1       4.801   6.576  10.435  1.00  0.00     0.107 C
HETATM    2  C8  UNL     1       4.402   7.967  10.103  1.00  0.00     0.048 C
HETATM    3  C9  UNL     1       6.223   6.585  11.024  1.00  0.00     0.048 C
ENDROOT
BRANCH   1   4
HETATM    4  C6  UNL     1       4.908   5.774   9.144  1.00  0.00     0.249 C
HETATM    5  N1  UNL     1       5.291   4.481   8.990  1.00  0.00    -0.325 N
ATOM      6  H1  UNL     1       5.609   3.952   9.802  1.00  0.00     0.169 HD
HETATM    7  O2  UNL     1       4.570   6.446   8.097  1.00  0.00    -0.270 OA
BRANCH   5   8
HETATM    8  C5  UNL     1       5.255   3.850   7.713  1.00  0.00     0.035 A
HETATM    9  C4  UNL     1       4.235   3.176   7.173  1.00  0.00     0.032 A
HETATM   10  C3  UNL     1       4.282   2.401   5.996  1.00  0.00     0.039 A
HETATM   11  C2  UNL     1       5.553   2.367   5.372  1.00  0.00     0.068 A
HETATM   12  C15 UNL     1       6.604   3.039   5.881  1.00  0.00     0.039 A
HETATM   13  C14 UNL     1       6.489   3.777   7.028  1.00  0.00     0.032 A
BRANCH  11  14
HETATM   14  O1  UNL     1       5.610   1.608   4.212  1.00  0.00    -0.356 OA
HETATM   15  C1  UNL     1       6.010   2.293   3.032  1.00  0.00     0.210 C
ENDBRANCH  11  14
ENDBRANCH   5   8
ENDBRANCH   1   4
BRANCH   1  16
HETATM   16  N2  UNL     1       3.891   5.899  11.273  1.00  0.00    -0.338 N
HETATM   17  C10 UNL     1       2.885   4.950  11.345  1.00  0.00     0.273 C
HETATM   18  O3  UNL     1       2.485   4.305  10.399  1.00  0.00    -0.266 OA
ATOM     19  H2  UNL     1       4.032   6.257  12.217  1.00  0.00     0.164 HD
BRANCH  17  20
HETATM   20  C11 UNL     1       2.348   4.792  12.705  1.00  0.00     0.132 C
BRANCH  20  21
HETATM   21  O4  UNL     1       2.838   3.751  13.367  1.00  0.00    -0.358 OA
ATOM     22  H4  UNL     1       2.960   3.902  14.297  1.00  0.00     0.217 HD
ENDBRANCH  20  21
BRANCH  20  23
HETATM   23  C12 UNL     1       1.373   5.550  13.454  1.00  0.00     0.164 C
HETATM   24  C13 UNL     1       0.830   6.647  12.420  1.00  0.00     0.037 C
BRANCH  23  25
HETATM   25  N3  UNL     1       2.078   6.399  14.439  1.00  0.00    -0.092 NA
BRANCH  25  26
HETATM   26  O5  UNL     1       2.645   5.602  15.342  1.00  0.00    -0.295 OA
ATOM     27  H5  UNL     1       2.989   4.841  14.890  1.00  0.00     0.238 HD
ENDBRANCH  25  26
ENDBRANCH  23  25
ENDBRANCH  20  23
ENDBRANCH  17  20
ENDBRANCH   1  16
TORSDOF 9
ENDMDL