MODEL 1
REMARK VINA RESULT: -7.877969189      0.000      0.000
REMARK  7 active torsions:
REMARK  status: ('A' for Active; 'I' for Inactive)
REMARK    1  A    between atoms: C7_8  and  C8_9
REMARK    2  A    between atoms: C8_9  and  S1_10
REMARK    3  A    between atoms: S1_10  and  C9_11
REMARK    4  A    between atoms: C10_14  and  C11_15
REMARK    5  A    between atoms: C12_18  and  N3_19
REMARK    6  A    between atoms: N3_19  and  N4_21
REMARK    7  A    between atoms: N4_21  and  C13_23
ROOT
HETATM    1  C9  UNL     1      -9.371 -13.694   7.148  1.00  0.00     0.146 A
HETATM    2  N1  UNL     1     -10.079 -14.290   8.102  1.00  0.00    -0.330 N
ATOM      3  H1  UNL     1     -11.070 -14.112   8.266  1.00  0.00     0.168 HD
HETATM    4  C10 UNL     1      -9.346 -15.157   8.831  1.00  0.00     0.145 A
HETATM    5  C12 UNL     1      -8.083 -15.110   8.304  1.00  0.00     0.154 A
HETATM    6  N7  UNL     1      -8.107 -14.229   7.294  1.00  0.00    -0.320 N
ATOM      7  H7  UNL     1      -7.304 -13.988   6.714  1.00  0.00     0.169 HD
ENDROOT
BRANCH   1   8
HETATM    8  S1  UNL     1      -9.806 -12.454   5.956  1.00  0.00    -0.089 SA
BRANCH   8   9
HETATM    9  C8  UNL     1      -9.246 -10.855   6.384  1.00  0.00     0.116 C
BRANCH   9  10
HETATM   10  C7  UNL     1      -8.368 -10.722   7.597  1.00  0.00    -0.066 C
HETATM   11  C6  UNL     1      -8.976 -10.398   8.760  1.00  0.00     0.053 C
HETATM   12  C5  UNL     1      -8.198 -10.252   9.965  1.00  0.00     0.150 C
HETATM   13  C4  UNL     1      -6.822  -9.689   9.779  1.00  0.00     0.092 C
HETATM   14  O1  UNL     1      -8.674 -10.582  11.068  1.00  0.00    -0.293 OA
HETATM   15  C2  UNL     1      -6.154 -10.619   8.792  1.00  0.00    -0.037 C
HETATM   16  C1  UNL     1      -5.931 -11.927   9.560  1.00  0.00     0.015 C
HETATM   17  C3  UNL     1      -4.787 -10.063   8.462  1.00  0.00     0.015 C
HETATM   18  C16 UNL     1      -6.938 -10.915   7.564  1.00  0.00     0.044 C
ENDBRANCH   9  10
ENDBRANCH   8   9
ENDBRANCH   1   8
BRANCH   4  19
HETATM   19  C11 UNL     1      -9.776 -15.990   9.946  1.00  0.00     0.285 C
HETATM   20  N2  UNL     1     -11.146 -16.024  10.354  1.00  0.00    -0.056 NA
HETATM   21  O2  UNL     1      -8.958 -16.685  10.565  1.00  0.00    -0.269 OA
ENDBRANCH   4  19
BRANCH   5  22
HETATM   22  N3  UNL     1      -6.924 -15.836   8.736  1.00  0.00    -0.281 N
ATOM     23  H3  UNL     1      -6.326 -15.413   9.447  1.00  0.00     0.188 HD
BRANCH  22  24
HETATM   24  N4  UNL     1      -6.577 -17.070   8.244  1.00  0.00    -0.270 N
ATOM     25  H4  UNL     1      -5.773 -17.139   7.622  1.00  0.00     0.190 HD
BRANCH  24  26
HETATM   26  C13 UNL     1      -7.293 -18.256   8.566  1.00  0.00     0.190 C
HETATM   27  N5  UNL     1      -6.898 -19.057   9.517  1.00  0.00    -0.360 N
HETATM   28  C14 UNL     1      -7.770 -20.177   9.654  1.00  0.00     0.142 C
ATOM     29  H5  UNL     1      -6.069 -18.902  10.091  1.00  0.00     0.162 HD
HETATM   30  C15 UNL     1      -8.989 -19.788   8.851  1.00  0.00     0.142 C
HETATM   31  N6  UNL     1      -8.472 -18.773   7.968  1.00  0.00    -0.360 N
ATOM     32  H6  UNL     1      -8.877 -18.481   7.078  1.00  0.00     0.162 HD
ENDBRANCH  24  26
ENDBRANCH  22  24
ENDBRANCH   5  22
TORSDOF 7
ENDMDL