MODEL 1
REMARK VINA RESULT: -7.382476336      0.000      0.000
REMARK  10 active torsions:
REMARK  status: ('A' for Active; 'I' for Inactive)
REMARK    1  A    between atoms: O1_2  and  C2_3
REMARK    2  A    between atoms: C4_5  and  O2_6
REMARK    3  A    between atoms: C6_8  and  O3_9
REMARK    4  A    between atoms: C9_12  and  C10_13
REMARK    5  A    between atoms: C10_13  and  C11_14
REMARK    6  A    between atoms: C11_14  and  N1_15
REMARK    7  A    between atoms: N1_15  and  C12_17
REMARK    8  A    between atoms: C15_26  and  N5_27
REMARK    9  A    between atoms: C16_32  and  N7_33
REMARK   10  A    between atoms: N7_33  and  O4_35
ROOT
HETATM    1  C12 UNL     1      -7.411  -9.929   9.159  1.00  0.00     0.119 A
HETATM    2  N2  UNL     1      -8.293  -9.189   9.853  1.00  0.00    -0.338 N
ATOM      3  H2  UNL     1      -9.285  -9.189   9.613  1.00  0.00     0.168 HD
HETATM    4  C13 UNL     1      -7.825  -8.449  10.873  1.00  0.00     0.183 A
HETATM    5  N3  UNL     1      -6.522  -8.420  11.222  1.00  0.00    -0.337 N
ATOM      6  H3  UNL     1      -6.221  -7.839  12.005  1.00  0.00     0.168 HD
HETATM    7  C14 UNL     1      -5.623  -9.141  10.554  1.00  0.00     0.139 A
HETATM    8  N4  UNL     1      -4.299  -9.160  10.850  1.00  0.00    -0.176 N
ATOM      9  H4  UNL     1      -3.968  -8.591  11.629  1.00  0.00     0.186 HD
HETATM   10  C15 UNL     1      -3.412  -9.887  10.173  1.00  0.00     0.679 A
HETATM   11  N6  UNL     1      -3.835 -10.652   9.134  1.00  0.00    -0.174 N
ATOM     12  H6  UNL     1      -3.167 -11.215   8.607  1.00  0.00     0.186 HD
HETATM   13  C16 UNL     1      -5.133 -10.664   8.806  1.00  0.00     0.158 A
HETATM   14  C17 UNL     1      -6.055  -9.910   9.508  1.00  0.00     0.099 A
ENDROOT
BRANCH   1  15
HETATM   15  N1  UNL     1      -7.721 -10.667   8.179  1.00  0.00    -0.375 N
ATOM     16  H1  UNL     1      -6.934 -11.043   7.650  1.00  0.00     0.161 HD
BRANCH  15  17
HETATM   17  C11 UNL     1      -9.009 -11.049   7.708  1.00  0.00     0.126 C
BRANCH  17  18
HETATM   18  C10 UNL     1      -8.967 -12.319   6.866  1.00  0.00     0.061 C
BRANCH  18  19
HETATM   19  C9  UNL     1      -8.860 -13.489   7.783  1.00  0.00    -0.020 A
HETATM   20  C2  UNL     1      -7.728 -14.267   7.876  1.00  0.00     0.077 A
HETATM   21  C3  UNL     1      -7.654 -15.359   8.746  1.00  0.00     0.076 A
HETATM   22  C4  UNL     1      -8.755 -15.647   9.522  1.00  0.00     0.104 A
HETATM   23  C6  UNL     1      -9.905 -14.889   9.455  1.00  0.00     0.102 A
HETATM   24  C8  UNL     1      -9.942 -13.831   8.595  1.00  0.00     0.049 A
BRANCH  20  25
HETATM   25  O1  UNL     1      -6.643 -13.957   7.087  1.00  0.00    -0.355 OA
HETATM   26  C1  UNL     1      -5.577 -14.872   6.878  1.00  0.00     0.210 C
ENDBRANCH  20  25
BRANCH  22  27
HETATM   27  O2  UNL     1      -8.712 -16.721  10.393  1.00  0.00    -0.353 OA
HETATM   28  C5  UNL     1      -8.928 -18.056  10.050  1.00  0.00     0.210 C
ENDBRANCH  22  27
BRANCH  23  29
HETATM   29  O3  UNL     1     -10.960 -15.230  10.254  1.00  0.00    -0.353 OA
HETATM   30  C7  UNL     1     -12.099 -15.932   9.864  1.00  0.00     0.210 C
ENDBRANCH  23  29
ENDBRANCH  18  19
ENDBRANCH  17  18
ENDBRANCH  15  17
ENDBRANCH   1  15
BRANCH  13  31
HETATM   31  N7  UNL     1      -5.544 -11.378   7.832  1.00  0.00    -0.252 N
ATOM     32  H7  UNL     1      -6.113 -12.193   8.061  1.00  0.00     0.196 HD
BRANCH  31  33
HETATM   33  O4  UNL     1      -5.290 -11.149   6.516  1.00  0.00    -0.288 OA
ATOM     34  H4  UNL     1      -5.849 -10.667   5.919  1.00  0.00     0.244 HD
ENDBRANCH  31  33
ENDBRANCH  13  31
BRANCH  10  35
HETATM   35  N5  UNL     1      -2.173  -9.844  10.524  1.00  0.00    -0.234 N
ATOM     36  H52 UNL     1      -1.894  -9.658  11.488  1.00  0.00     0.174 HD
ATOM     37  H51 UNL     1      -1.454 -10.001   9.818  1.00  0.00     0.174 HD
ENDBRANCH  10  35
TORSDOF 10
ENDMDL