MODEL 1
REMARK VINA RESULT: -7.152030921      0.000      0.000
REMARK  10 active torsions:
REMARK  status: ('A' for Active; 'I' for Inactive)
REMARK    1  A    between atoms: N3_10  and  C6_11
REMARK    2  A    between atoms: C7_15  and  C9_17
REMARK    3  A    between atoms: C9_17  and  O1_18
REMARK    4  A    between atoms: C9_17  and  C10_20
REMARK    5  A    between atoms: C10_20  and  N5_21
REMARK    6  A    between atoms: C15_30  and  N7_31
REMARK    7  A    between atoms: N7_31  and  C16_33
REMARK    8  A    between atoms: C16_33  and  C17_34
REMARK    9  A    between atoms: C17_34  and  C18_35
REMARK   10  A    between atoms: C18_35  and  N8_36
ROOT
HETATM    1  C1  UNL     1     -10.447 -13.286   4.916  1.00  0.00     0.089 C
HETATM    2  C2  UNL     1     -10.208 -13.748   6.316  1.00  0.00     0.080 A
HETATM    3  N1  UNL     1      -9.250 -13.224   7.102  1.00  0.00    -0.330 N
ATOM      4  H1  UNL     1      -8.676 -12.481   6.703  1.00  0.00     0.168 HD
HETATM    5  C3  UNL     1      -8.987 -13.588   8.349  1.00  0.00     0.142 A
HETATM    6  C4  UNL     1      -9.779 -14.602   8.879  1.00  0.00     0.122 A
HETATM    7  N2  UNL     1      -9.343 -14.800  10.125  1.00  0.00    -0.346 N
ATOM      8  H2  UNL     1      -9.717 -15.481  10.785  1.00  0.00     0.167 HD
HETATM    9  C5  UNL     1      -8.343 -13.967  10.360  1.00  0.00     0.187 A
HETATM   10  N3  UNL     1      -8.090 -13.187   9.265  1.00  0.00    -0.295 N
HETATM   11  C15 UNL     1     -10.770 -15.164   8.106  1.00  0.00     0.133 A
HETATM   12  N9  UNL     1     -10.960 -14.723   6.847  1.00  0.00    -0.331 N
ATOM     13  H9  UNL     1     -11.696 -15.144   6.280  1.00  0.00     0.168 HD
ENDROOT
BRANCH  10  14
HETATM   14  C6  UNL     1      -7.082 -12.199   9.205  1.00  0.00     0.334 C
HETATM   15  N4  UNL     1      -5.887 -12.421   9.926  1.00  0.00    -0.011 N
HETATM   16  C7  UNL     1      -5.216 -11.104   9.933  1.00  0.00     0.346 C
ATOM     17  H42 UNL     1      -6.027 -12.823  10.852  1.00  0.00     0.283 HD
ATOM     18  H41 UNL     1      -5.313 -13.180   9.559  1.00  0.00     0.283 HD
HETATM   19  C8  UNL     1      -4.580 -10.977  11.291  1.00  0.00     0.085 C
HETATM   20  N6  UNL     1      -6.204 -10.166   9.628  1.00  0.00     0.136 N
HETATM   21  C11 UNL     1      -6.199  -8.922  10.300  1.00  0.00     0.314 C
HETATM   22  C12 UNL     1      -7.498 -10.818   9.585  1.00  0.00     0.201 C
HETATM   23  C13 UNL     1      -8.261 -10.727  10.862  1.00  0.00     0.053 C
HETATM   24  C14 UNL     1      -8.378 -10.187   8.495  1.00  0.00     0.053 C
BRANCH  16  25
HETATM   25  C9  UNL     1      -4.083 -11.248   8.949  1.00  0.00     0.210 C
BRANCH  25  26
HETATM   26  O1  UNL     1      -3.760 -12.538   8.617  1.00  0.00    -0.389 OA
ATOM     27  H1  UNL     1      -2.960 -12.638   8.113  1.00  0.00     0.210 HD
ENDBRANCH  25  26
BRANCH  25  28
HETATM   28  C10 UNL     1      -4.232 -10.436   7.700  1.00  0.00     0.265 C
BRANCH  28  29
HETATM   29  N5  UNL     1      -4.908 -11.152   6.642  1.00  0.00    -0.077 N
ATOM     30  H53 UNL     1      -4.269 -11.786   6.164  1.00  0.00     0.274 HD
ATOM     31  H52 UNL     1      -5.564 -11.833   7.025  1.00  0.00     0.274 HD
ATOM     32  H51 UNL     1      -5.372 -10.532   5.979  1.00  0.00     0.274 HD
ENDBRANCH  28  29
ENDBRANCH  25  28
ENDBRANCH  16  25
ENDBRANCH  10  14
BRANCH  11  33
HETATM   33  N7  UNL     1     -11.476 -16.087   8.622  1.00  0.00    -0.374 N
ATOM     34  H7  UNL     1     -11.525 -16.965   8.105  1.00  0.00     0.161 HD
BRANCH  33  35
HETATM   35  C16 UNL     1     -12.208 -16.028   9.846  1.00  0.00     0.123 C
BRANCH  35  36
HETATM   36  C17 UNL     1     -13.662 -15.670   9.654  1.00  0.00     0.047 C
BRANCH  36  37
HETATM   37  C18 UNL     1     -14.551 -16.407  10.632  1.00  0.00     0.231 C
BRANCH  37  38
HETATM   38  N8  UNL     1     -13.754 -16.858  11.753  1.00  0.00    -0.079 N
ATOM     39  H83 UNL     1     -13.400 -17.806  11.620  1.00  0.00     0.274 HD
ATOM     40  H82 UNL     1     -12.857 -16.376  11.808  1.00  0.00     0.274 HD
ATOM     41  H81 UNL     1     -14.298 -16.765  12.611  1.00  0.00     0.274 HD
ENDBRANCH  37  38
ENDBRANCH  36  37
ENDBRANCH  35  36
ENDBRANCH  33  35
ENDBRANCH  11  33
TORSDOF 10
ENDMDL