MODEL 1
REMARK VINA RESULT: -8.062073359      0.000      0.000
REMARK  8 active torsions:
REMARK  status: ('A' for Active; 'I' for Inactive)
REMARK    1  A    between atoms: C2_2  and  C4_4
REMARK    2  A    between atoms: C4_4  and  N1_5
REMARK    3  A    between atoms: C4_4  and  C5_13
REMARK    4  A    between atoms: N1_5  and  S1_7
REMARK    5  A    between atoms: S1_7  and  N2_8
REMARK    6  A    between atoms: C7_15  and  C8_16
REMARK    7  A    between atoms: C9_17  and  C10_18
REMARK    8  A    between atoms: C14_29  and  N7_30
ROOT
HETATM    1  C5  UNL     1      -6.232 -11.851   9.027  1.00  0.00     0.102 A
HETATM    2  C6  UNL     1      -7.418 -12.495   9.337  1.00  0.00     0.069 A
HETATM    3  C7  UNL     1      -7.689 -13.408   8.340  1.00  0.00     0.073 A
HETATM    4  N8  UNL     1      -6.667 -13.282   7.476  1.00  0.00    -0.260 N
ATOM      5  H8  UNL     1      -6.560 -13.820   6.616  1.00  0.00     0.195 HD
HETATM    6  O3  UNL     1      -5.836 -12.375   7.893  1.00  0.00    -0.240 OA
ENDROOT
BRANCH   3   7
HETATM    7  C8  UNL     1      -8.813 -14.322   8.210  1.00  0.00     0.066 A
HETATM    8  C9  UNL     1      -9.916 -14.149   7.381  1.00  0.00     0.077 A
HETATM    9  N5  UNL     1     -10.694 -15.221   7.579  1.00  0.00    -0.297 N
HETATM   10  N6  UNL     1     -10.189 -16.055   8.453  1.00  0.00    -0.285 N
ATOM     11  H5  UNL     1     -11.582 -15.372   7.102  1.00  0.00     0.187 HD
HETATM   12  C14 UNL     1      -9.024 -15.519   8.857  1.00  0.00     0.128 A
ATOM     13  H6  UNL     1     -10.598 -16.935   8.765  1.00  0.00     0.188 HD
BRANCH   8  14
HETATM   14  C10 UNL     1     -10.165 -13.022   6.477  1.00  0.00     0.027 A
HETATM   15  C11 UNL     1      -9.670 -11.742   6.527  1.00  0.00     0.122 A
HETATM   16  N3  UNL     1     -10.188 -11.083   5.483  1.00  0.00    -0.310 N
HETATM   17  N4  UNL     1     -10.983 -11.840   4.757  1.00  0.00    -0.307 N
ATOM     18  H3  UNL     1      -9.990 -10.104   5.274  1.00  0.00     0.186 HD
HETATM   19  C12 UNL     1     -11.729 -11.484   3.547  1.00  0.00     0.177 C
HETATM   20  C13 UNL     1     -10.977 -13.056   5.369  1.00  0.00     0.124 A
ENDBRANCH   8  14
BRANCH  12  21
HETATM   21  N7  UNL     1      -8.224 -16.077   9.739  1.00  0.00    -0.384 N
ATOM     22  H72 UNL     1      -8.124 -15.757  10.703  1.00  0.00     0.157 HD
ATOM     23  H71 UNL     1      -7.617 -16.881   9.579  1.00  0.00     0.157 HD
ENDBRANCH  12  21
ENDBRANCH   3   7
BRANCH   1  24
HETATM   24  C4  UNL     1      -5.536 -10.786   9.801  1.00  0.00     0.157 C
BRANCH  24  25
HETATM   25  C2  UNL     1      -4.198 -11.230  10.305  1.00  0.00     0.007 C
HETATM   26  C1  UNL     1      -4.149 -11.141  11.806  1.00  0.00     0.012 C
HETATM   27  C3  UNL     1      -3.060 -10.440   9.709  1.00  0.00     0.012 C
ENDBRANCH  24  25
BRANCH  24  28
HETATM   28  N1  UNL     1      -6.319 -10.373  10.952  1.00  0.00    -0.291 N
ATOM     29  H1  UNL     1      -6.187 -10.754  11.889  1.00  0.00     0.174 HD
BRANCH  28  30
HETATM   30  S1  UNL     1      -7.488  -9.179  10.573  1.00  0.00     0.313 S
HETATM   31  O1  UNL     1      -7.454  -8.836   9.129  1.00  0.00    -0.183 OA
HETATM   32  O2  UNL     1      -8.855  -9.655  11.029  1.00  0.00    -0.183 OA
BRANCH  30  33
HETATM   33  N2  UNL     1      -7.073  -7.752  11.468  1.00  0.00    -0.312 N
ATOM     34  H22 UNL     1      -6.683  -6.896  11.073  1.00  0.00     0.170 HD
ATOM     35  H21 UNL     1      -7.292  -7.936  12.447  1.00  0.00     0.170 HD
ENDBRANCH  30  33
ENDBRANCH  28  30
ENDBRANCH  24  28
ENDBRANCH   1  24
TORSDOF 8
ENDMDL