MODEL 4
REMARK VINA RESULT: -6.651149245      4.698      7.324
REMARK  7 active torsions:
REMARK  status: ('A' for Active; 'I' for Inactive)
REMARK    1  A    between atoms: O1_2  and  C2_3
REMARK    2  A    between atoms: C2_3  and  C3_4
REMARK    3  A    between atoms: C3_4  and  S1_5
REMARK    4  A    between atoms: S1_5  and  C4_6
REMARK    5  A    between atoms: C5_9  and  N2_10
REMARK    6  A    between atoms: C7_16  and  C8_17
REMARK    7  A    between atoms: C9_22  and  N6_23
ROOT
HETATM    1  C4  UNL     1     -10.371 -14.968   8.141  1.00  0.00     0.100 A
HETATM    2  N1  UNL     1     -10.827 -14.957   6.853  1.00  0.00    -0.185 N
ATOM      3  H1  UNL     1     -11.426 -15.721   6.540  1.00  0.00     0.185 HD
HETATM    4  C5  UNL     1     -10.520 -13.983   5.981  1.00  0.00     0.677 A
HETATM    5  N3  UNL     1      -9.729 -12.992   6.421  1.00  0.00    -0.190 N
ATOM      6  H3  UNL     1      -9.482 -12.240   5.778  1.00  0.00     0.184 HD
HETATM    7  C6  UNL     1      -9.251 -12.950   7.675  1.00  0.00     0.081 A
HETATM    8  C7  UNL     1      -8.430 -11.880   8.055  1.00  0.00     0.077 A
HETATM    9  C9  UNL     1      -7.986 -11.891   9.316  1.00  0.00     0.119 A
HETATM   10  N8  UNL     1      -8.306 -12.888  10.189  1.00  0.00    -0.345 N
ATOM     11  H8  UNL     1      -7.931 -12.835  11.136  1.00  0.00     0.167 HD
HETATM   12  C14 UNL     1      -9.095 -13.947   9.875  1.00  0.00     0.022 A
HETATM   13  C15 UNL     1      -9.412 -14.997  10.843  1.00  0.00     0.069 C
HETATM   14  C16 UNL     1      -9.559 -13.946   8.586  1.00  0.00     0.049 A
ENDROOT
BRANCH   9  15
HETATM   15  N6  UNL     1      -7.188 -10.796   9.839  1.00  0.00    -0.363 N
HETATM   16  C10 UNL     1      -7.875  -9.649  10.301  1.00  0.00     0.152 C
HETATM   17  C11 UNL     1      -7.044  -8.439  10.465  1.00  0.00     0.252 C
HETATM   18  N7  UNL     1      -5.651  -8.564  10.193  1.00  0.00    -0.072 N
HETATM   19  C12 UNL     1      -5.112  -9.839  10.594  1.00  0.00     0.252 C
ATOM     20  H72 UNL     1      -5.455  -8.379   9.210  1.00  0.00     0.277 HD
ATOM     21  H71 UNL     1      -5.127  -7.798  10.616  1.00  0.00     0.277 HD
HETATM   22  C13 UNL     1      -5.771 -10.977   9.896  1.00  0.00     0.152 C
ENDBRANCH   9  15
BRANCH   8  23
HETATM   23  C8  UNL     1      -8.136 -10.903   7.010  1.00  0.00     0.126 C
HETATM   24  N4  UNL     1      -7.022 -10.667   6.581  1.00  0.00    -0.387 N
ATOM     25  H42 UNL     1      -6.268 -11.207   7.005  1.00  0.00     0.157 HD
ATOM     26  H41 UNL     1      -6.816  -9.984   5.851  1.00  0.00     0.157 HD
HETATM   27  N5  UNL     1      -9.209 -10.134   6.407  1.00  0.00    -0.082 NA
ENDBRANCH   8  23
BRANCH   4  28
HETATM   28  N2  UNL     1     -10.982 -14.030   4.780  1.00  0.00    -0.234 N
ATOM     29  H22 UNL     1     -11.973 -14.158   4.571  1.00  0.00     0.174 HD
ATOM     30  H21 UNL     1     -10.346 -13.937   3.989  1.00  0.00     0.174 HD
ENDBRANCH   4  28
BRANCH   1  31
HETATM   31  S1  UNL     1     -10.847 -16.262   9.199  1.00  0.00    -0.109 SA
BRANCH  31  32
HETATM   32  C3  UNL     1      -9.955 -17.773   8.794  1.00  0.00     0.107 C
BRANCH  32  33
HETATM   33  C2  UNL     1      -9.764 -18.719   9.927  1.00  0.00     0.177 C
BRANCH  33  34
HETATM   34  O1  UNL     1     -10.874 -18.667  10.775  1.00  0.00    -0.395 OA
HETATM   35  C1  UNL     1     -10.904 -19.842  11.524  1.00  0.00     0.201 C
ENDBRANCH  33  34
ENDBRANCH  32  33
ENDBRANCH  31  32
ENDBRANCH   1  31
TORSDOF 7
ENDMDL