MODEL 5
REMARK VINA RESULT: -7.152319470      3.520      5.118
REMARK  8 active torsions:
REMARK  status: ('A' for Active; 'I' for Inactive)
REMARK    1  A    between atoms: N1_1  and  C1_4
REMARK    2  A    between atoms: C4_9  and  N3_10
REMARK       I    between atoms: N5_17  and  C7_18
REMARK    3  A    between atoms: C7_18  and  C8_20
REMARK    4  A    between atoms: C8_20  and  C9_21
REMARK    5  A    between atoms: C9_21  and  C10_22
REMARK    6  A    between atoms: C10_22  and  C11_23
REMARK    7  A    between atoms: C11_23  and  C12_24
REMARK    8  A    between atoms: C12_24  and  N6_25
ROOT
HETATM    1  C1  UNL     1     -10.360 -14.481   8.792  1.00  0.00     0.679 A
HETATM    2  N2  UNL     1     -10.168 -13.362   9.518  1.00  0.00    -0.170 N
ATOM      3  H2  UNL     1     -10.689 -13.232  10.385  1.00  0.00     0.186 HD
HETATM    4  C2  UNL     1      -9.316 -12.429   9.124  1.00  0.00     0.169 A
HETATM    5  C3  UNL     1      -8.577 -12.546   7.954  1.00  0.00     0.039 A
HETATM    6  C4  UNL     1      -8.773 -13.687   7.216  1.00  0.00     0.125 A
HETATM    7  N4  UNL     1      -9.662 -14.630   7.653  1.00  0.00    -0.177 N
ATOM      8  H4  UNL     1      -9.800 -15.474   7.097  1.00  0.00     0.186 HD
HETATM    9  C5  UNL     1      -7.603 -11.658   7.334  1.00  0.00     0.067 C
HETATM   10  C6  UNL     1      -7.537 -10.292   7.971  1.00  0.00     0.133 C
HETATM   11  N5  UNL     1      -7.272 -10.300   9.376  1.00  0.00    -0.330 N
HETATM   12  C7  UNL     1      -5.923 -10.037   9.772  1.00  0.00     0.221 C
HETATM   13  O1  UNL     1      -5.591 -10.042  10.998  1.00  0.00    -0.273 OA
HETATM   14  C14 UNL     1      -8.231 -10.533  10.438  1.00  0.00     0.305 C
HETATM   15  O2  UNL     1      -9.244 -11.357   9.981  1.00  0.00    -0.315 OA
ENDROOT
BRANCH  12  16
HETATM   16  C8  UNL     1      -4.909  -9.755   8.738  1.00  0.00     0.103 C
BRANCH  16  17
HETATM   17  C9  UNL     1      -4.002 -10.978   8.640  1.00  0.00     0.009 C
BRANCH  17  18
HETATM   18  C10 UNL     1      -3.989 -11.446   7.222  1.00  0.00     0.002 C
BRANCH  18  19
HETATM   19  C11 UNL     1      -3.338 -12.793   7.079  1.00  0.00     0.022 C
BRANCH  19  20
HETATM   20  C12 UNL     1      -4.268 -13.867   7.551  1.00  0.00     0.153 C
BRANCH  20  21
HETATM   21  N6  UNL     1      -4.668 -14.737   6.437  1.00  0.00    -0.250 N
HETATM   22  N7  UNL     1      -4.438 -14.592   5.154  1.00  0.00    -0.224 N
HETATM   23  N8  UNL     1      -4.985 -15.620   4.501  1.00  0.00    -0.226 N
ATOM     24  H7  UNL     1      -3.926 -13.821   4.726  1.00  0.00     0.210 HD
HETATM   25  N9  UNL     1      -5.567 -16.429   5.360  1.00  0.00    -0.259 N
ATOM     26  H8  UNL     1      -4.955 -15.757   3.491  1.00  0.00     0.210 HD
HETATM   27  C13 UNL     1      -5.370 -15.877   6.575  1.00  0.00     0.210 A
ATOM     28  H9  UNL     1      -6.065 -17.294   5.150  1.00  0.00     0.191 HD
HETATM   29  S1  UNL     1      -5.924 -16.541   7.965  1.00  0.00    -0.038 SA
ENDBRANCH  20  21
ENDBRANCH  19  20
ENDBRANCH  18  19
ENDBRANCH  17  18
ENDBRANCH  16  17
ENDBRANCH  12  16
BRANCH   6  30
HETATM   30  N3  UNL     1      -8.162 -13.940   6.111  1.00  0.00    -0.384 N
ATOM     31  H32 UNL     1      -7.778 -13.140   5.608  1.00  0.00     0.157 HD
ATOM     32  H31 UNL     1      -8.048 -14.878   5.727  1.00  0.00     0.157 HD
ENDBRANCH   6  30
BRANCH   1  33
HETATM   33  N1  UNL     1     -11.203 -15.383   9.203  1.00  0.00    -0.234 N
ATOM     34  H12 UNL     1     -12.211 -15.267   9.093  1.00  0.00     0.174 HD
ATOM     35  H11 UNL     1     -10.859 -16.233   9.648  1.00  0.00     0.174 HD
ENDBRANCH   1  33
TORSDOF 8
ENDMDL