MODEL 1
REMARK VINA RESULT: -7.809107150      0.000      0.000
REMARK  8 active torsions:
REMARK  status: ('A' for Active; 'I' for Inactive)
REMARK    1  A    between atoms: C2_2  and  C3_3
REMARK    2  A    between atoms: C3_3  and  O1_4
REMARK    3  A    between atoms: O1_4  and  C4_5
REMARK    4  A    between atoms: C5_6  and  C6_7
REMARK    5  A    between atoms: C8_16  and  C9_17
REMARK    6  A    between atoms: C9_17  and  N5_18
REMARK    7  A    between atoms: C11_23  and  C12_24
REMARK    8  A    between atoms: C15_30  and  N7_31
ROOT
HETATM    1  C4  UNL     1      -7.294 -12.129   8.441  1.00  0.00     0.095 A
HETATM    2  C5  UNL     1      -8.035 -10.974   8.508  1.00  0.00     0.045 A
HETATM    3  C7  UNL     1      -9.022 -10.769   7.548  1.00  0.00     0.027 A
HETATM    4  C8  UNL     1      -9.281 -11.665   6.559  1.00  0.00    -0.031 A
HETATM    5  C10 UNL     1      -8.541 -12.810   6.515  1.00  0.00     0.025 A
HETATM    6  C11 UNL     1      -7.528 -13.068   7.463  1.00  0.00     0.026 A
ENDROOT
BRANCH   6   7
HETATM    7  C12 UNL     1      -6.950 -14.405   7.388  1.00  0.00     0.067 A
HETATM    8  C13 UNL     1      -7.257 -15.343   8.341  1.00  0.00     0.106 A
HETATM    9  C14 UNL     1      -6.799 -16.668   8.233  1.00  0.00     0.261 A
HETATM   10  O2  UNL     1      -7.084 -17.521   9.111  1.00  0.00    -0.268 OA
HETATM   11  N6  UNL     1      -6.056 -16.960   7.159  1.00  0.00    -0.156 N
HETATM   12  C15 UNL     1      -5.758 -16.026   6.220  1.00  0.00     0.679 A
ATOM     13  H6  UNL     1      -5.704 -17.911   7.043  1.00  0.00     0.187 HD
HETATM   14  N8  UNL     1      -6.187 -14.765   6.314  1.00  0.00    -0.191 N
ATOM     15  H8  UNL     1      -5.949 -14.081   5.595  1.00  0.00     0.184 HD
BRANCH  12  16
HETATM   16  N7  UNL     1      -5.035 -16.427   5.231  1.00  0.00    -0.234 N
ATOM     17  H72 UNL     1      -4.059 -16.147   5.128  1.00  0.00     0.174 HD
ATOM     18  H71 UNL     1      -5.495 -17.041   4.559  1.00  0.00     0.174 HD
ENDBRANCH  12  16
ENDBRANCH   6   7
BRANCH   1  19
HETATM   19  O1  UNL     1      -6.275 -12.374   9.334  1.00  0.00    -0.348 OA
BRANCH  19  20
HETATM   20  C3  UNL     1      -4.937 -12.126   9.196  1.00  0.00     0.189 C
BRANCH  20  21
HETATM   21  C2  UNL     1      -4.304 -10.813   9.304  1.00  0.00     0.021 C
HETATM   22  C1  UNL     1      -4.173  -9.966   8.063  1.00  0.00     0.022 C
HETATM   23  C16 UNL     1      -2.852 -11.016   9.875  1.00  0.00     0.181 C
HETATM   24  O3  UNL     1      -2.963  -9.785  10.529  1.00  0.00    -0.389 OA
HETATM   25  C17 UNL     1      -4.336 -10.024  10.559  1.00  0.00     0.181 C
ENDBRANCH  20  21
ENDBRANCH  19  20
ENDBRANCH   1  19
BRANCH   2  26
HETATM   26  C6  UNL     1      -7.939  -9.982   9.575  1.00  0.00     0.147 A
HETATM   27  N1  UNL     1      -8.136 -10.243  10.891  1.00  0.00    -0.271 N
HETATM   28  N2  UNL     1      -7.920  -9.179  11.600  1.00  0.00    -0.225 N
ATOM     29  H1  UNL     1      -8.415 -11.148  11.269  1.00  0.00     0.190 HD
HETATM   30  N3  UNL     1      -7.578  -8.190  10.786  1.00  0.00    -0.005 NA
ATOM     31  H2  UNL     1      -8.000  -9.114  12.614  1.00  0.00     0.205 HD
HETATM   32  N4  UNL     1      -7.593  -8.688   9.561  1.00  0.00    -0.266 N
ATOM     33  H4  UNL     1      -7.371  -8.157   8.719  1.00  0.00     0.186 HD
ENDBRANCH   2  26
BRANCH   4  34
HETATM   34  C9  UNL     1     -10.351 -11.431   5.522  1.00  0.00     0.268 C
BRANCH  34  35
HETATM   35  N5  UNL     1     -10.524 -12.608   4.702  1.00  0.00    -0.075 N
ATOM     36  H53 UNL     1     -10.197 -12.456   3.748  1.00  0.00     0.274 HD
ATOM     37  H52 UNL     1      -9.880 -13.353   4.966  1.00  0.00     0.274 HD
ATOM     38  H51 UNL     1     -11.495 -12.919   4.726  1.00  0.00     0.274 HD
ENDBRANCH  34  35
ENDBRANCH   4  34
TORSDOF 8
ENDMDL