MODEL 5
REMARK VINA RESULT: -7.422855086      4.012      6.110
REMARK  10 active torsions:
REMARK  status: ('A' for Active; 'I' for Inactive)
REMARK    1  A    between atoms: C4_7  and  N3_8
REMARK    2  A    between atoms: N3_8  and  C5_10
REMARK    3  A    between atoms: C5_10  and  C6_11
REMARK    4  A    between atoms: C6_11  and  C7_12
REMARK    5  A    between atoms: C8_13  and  C9_14
REMARK    6  A    between atoms: C11_19  and  N6_20
REMARK    7  A    between atoms: N6_20  and  C12_22
REMARK    8  A    between atoms: C12_22  and  C13_23
REMARK    9  A    between atoms: C13_23  and  C14_24
REMARK   10  A    between atoms: C16_28  and  N8_29
ROOT
HETATM    1  C1  UNL     1      -5.177  -8.112  10.802  1.00  0.00     0.158 C
HETATM    2  N1  UNL     1      -6.284  -8.854  10.237  1.00  0.00    -0.331 N
HETATM    3  C2  UNL     1      -7.554  -8.764  10.661  1.00  0.00     0.184 A
HETATM    4  N2  UNL     1      -8.334  -9.595   9.911  1.00  0.00    -0.346 N
ATOM      5  H2  UNL     1      -9.340  -9.723  10.020  1.00  0.00     0.167 HD
HETATM    6  C3  UNL     1      -7.560 -10.217   9.007  1.00  0.00     0.123 A
HETATM    7  C4  UNL     1      -7.848 -11.147   8.022  1.00  0.00     0.147 A
HETATM    8  N5  UNL     1      -6.812 -11.571   7.278  1.00  0.00    -0.175 N
ATOM      9  H5  UNL     1      -6.985 -12.256   6.543  1.00  0.00     0.186 HD
HETATM   10  C11 UNL     1      -5.539 -11.122   7.468  1.00  0.00     0.681 A
HETATM   11  N9  UNL     1      -5.302 -10.216   8.439  1.00  0.00    -0.174 N
ATOM     12  H9  UNL     1      -4.349  -9.881   8.580  1.00  0.00     0.186 HD
HETATM   13  C17 UNL     1      -6.283  -9.742   9.227  1.00  0.00     0.154 A
ENDROOT
BRANCH  10  14
HETATM   14  N6  UNL     1      -4.586 -11.566   6.722  1.00  0.00    -0.226 N
ATOM     15  H6  UNL     1      -4.537 -11.306   5.736  1.00  0.00     0.177 HD
BRANCH  14  16
HETATM   16  C12 UNL     1      -3.601 -12.427   7.291  1.00  0.00     0.143 C
BRANCH  16  17
HETATM   17  C13 UNL     1      -3.405 -13.705   6.500  1.00  0.00     0.068 C
BRANCH  17  18
HETATM   18  C14 UNL     1      -4.521 -14.639   6.895  1.00  0.00     0.003 A
HETATM   19  C15 UNL     1      -5.170 -15.572   6.131  1.00  0.00     0.105 A
HETATM   20  N7  UNL     1      -6.112 -16.270   6.694  1.00  0.00    -0.346 N
HETATM   21  C16 UNL     1      -6.401 -16.046   7.974  1.00  0.00     0.142 A
ATOM     22  H7  UNL     1      -6.621 -16.978   6.164  1.00  0.00     0.167 HD
HETATM   23  S1  UNL     1      -5.305 -14.807   8.402  1.00  0.00    -0.058 SA
BRANCH  21  24
HETATM   24  N8  UNL     1      -7.314 -16.644   8.713  1.00  0.00    -0.380 N
ATOM     25  H82 UNL     1      -7.257 -17.528   9.220  1.00  0.00     0.158 HD
ATOM     26  H81 UNL     1      -8.260 -16.324   8.918  1.00  0.00     0.158 HD
ENDBRANCH  21  24
ENDBRANCH  17  18
ENDBRANCH  16  17
ENDBRANCH  14  16
ENDBRANCH  10  14
BRANCH   7  27
HETATM   27  N3  UNL     1      -9.164 -11.633   7.800  1.00  0.00    -0.373 N
ATOM     28  H3  UNL     1      -9.877 -11.029   7.392  1.00  0.00     0.161 HD
BRANCH  27  29
HETATM   29  C5  UNL     1      -9.474 -12.987   8.159  1.00  0.00     0.133 C
BRANCH  29  30
HETATM   30  C6  UNL     1      -9.847 -13.844   6.993  1.00  0.00     0.114 C
BRANCH  30  31
HETATM   31  C7  UNL     1     -10.370 -12.999   5.918  1.00  0.00    -0.100 C
HETATM   32  C8  UNL     1     -10.814 -12.288   5.041  1.00  0.00    -0.077 C
BRANCH  32  33
HETATM   33  C9  UNL     1     -11.346 -11.433   4.018  1.00  0.00     0.079 C
HETATM   34  C10 UNL     1     -12.339 -11.803   3.233  1.00  0.00     0.109 C
HETATM   35  N4  UNL     1     -12.852 -10.952   2.231  1.00  0.00    -0.115 NA
ENDBRANCH  32  33
ENDBRANCH  30  31
ENDBRANCH  29  30
ENDBRANCH  27  29
ENDBRANCH   7  27
TORSDOF 10
ENDMDL