MODEL 3
REMARK VINA RESULT: -7.505609171      4.081      6.570
REMARK  6 active torsions:
REMARK  status: ('A' for Active; 'I' for Inactive)
REMARK    1  A    between atoms: O1_2  and  N1_3
REMARK    2  A    between atoms: C2_5  and  C3_6
REMARK    3  A    between atoms: C2_5  and  C15_32
REMARK    4  A    between atoms: C4_9  and  C5_10
REMARK    5  A    between atoms: N3_12  and  N4_14
REMARK       I    between atoms: N4_14  and  C7_16
REMARK    6  A    between atoms: C8_21  and  N7_22
ROOT
HETATM    1  C3  UNL     1      -5.606 -10.826  10.267  1.00  0.00     0.128 A
HETATM    2  N2  UNL     1      -5.578 -11.946   9.523  1.00  0.00    -0.345 N
ATOM      3  H2  UNL     1      -4.699 -12.460   9.458  1.00  0.00     0.166 HD
HETATM    4  C4  UNL     1      -6.667 -12.434   8.847  1.00  0.00     0.101 A
HETATM    5  C8  UNL     1      -7.839 -11.737   8.940  1.00  0.00     0.135 A
HETATM    6  N8  UNL     1      -7.840 -10.593   9.709  1.00  0.00    -0.306 N
ATOM      7  H8  UNL     1      -8.711 -10.068   9.783  1.00  0.00     0.170 HD
HETATM    8  C14 UNL     1      -6.774 -10.128  10.363  1.00  0.00     0.276 A
HETATM    9  O2  UNL     1      -6.890  -9.055  11.049  1.00  0.00    -0.266 OA
ENDROOT
BRANCH   4  10
HETATM   10  C5  UNL     1      -6.535 -13.654   8.078  1.00  0.00     0.052 C
HETATM   11  C6  UNL     1      -6.804 -14.993   8.719  1.00  0.00     0.072 C
HETATM   12  N3  UNL     1      -6.198 -13.660   6.869  1.00  0.00    -0.301 N
ATOM     13  H3  UNL     1      -6.010 -12.767   6.412  1.00  0.00     0.186 HD
BRANCH  12  14
HETATM   14  N4  UNL     1      -6.071 -14.812   6.133  1.00  0.00    -0.274 N
HETATM   15  C7  UNL     1      -4.829 -15.160   5.555  1.00  0.00     0.200 C
HETATM   16  N5  UNL     1      -3.762 -15.042   6.293  1.00  0.00    -0.372 N
HETATM   17  N6  UNL     1      -4.773 -15.616   4.224  1.00  0.00    -0.062 NA
ATOM     18  H52 UNL     1      -3.803 -14.711   7.257  1.00  0.00     0.158 HD
ATOM     19  H51 UNL     1      -2.866 -15.292   5.876  1.00  0.00     0.158 HD
ATOM     20  H4  UNL     1      -6.879 -15.421   6.002  1.00  0.00     0.189 HD
ENDBRANCH  12  14
ENDBRANCH   4  10
BRANCH   5  21
HETATM   21  N7  UNL     1      -9.047 -12.099   8.300  1.00  0.00    -0.365 N
HETATM   22  C9  UNL     1      -9.679 -11.271   7.310  1.00  0.00     0.124 C
HETATM   23  C10 UNL     1      -9.424 -11.881   5.958  1.00  0.00     0.020 C
HETATM   24  C11 UNL     1      -9.415 -13.377   6.081  1.00  0.00     0.003 C
HETATM   25  C12 UNL     1     -10.234 -13.918   7.219  1.00  0.00     0.020 C
HETATM   26  C13 UNL     1      -9.699 -13.368   8.562  1.00  0.00     0.124 C
ENDBRANCH   5  21
BRANCH   1  27
HETATM   27  C2  UNL     1      -4.378 -10.372  10.957  1.00  0.00     0.086 C
HETATM   28  N1  UNL     1      -4.409 -10.397  12.253  1.00  0.00    -0.267 N
ATOM     29  H1  UNL     1      -5.270 -10.726  12.690  1.00  0.00     0.194 HD
BRANCH  28  30
HETATM   30  O1  UNL     1      -3.417 -10.032  13.068  1.00  0.00    -0.285 OA
HETATM   31  C1  UNL     1      -2.617 -10.898  13.852  1.00  0.00     0.237 C
ENDBRANCH  28  30
BRANCH  27  32
HETATM   32  C15 UNL     1      -3.214  -9.914  10.253  1.00  0.00     0.165 C
HETATM   33  C16 UNL     1      -2.105 -10.890   9.934  1.00  0.00     0.159 C
HETATM   34  N9  UNL     1      -1.828  -9.862   8.883  1.00  0.00    -0.146 NA
HETATM   35  N10 UNL     1      -3.260  -9.804   8.793  1.00  0.00    -0.136 NA
ENDBRANCH  27  32
ENDBRANCH   1  27
TORSDOF 6
ENDMDL