MODEL 5
REMARK VINA RESULT: -6.842343765      2.610      6.244
REMARK  8 active torsions:
REMARK  status: ('A' for Active; 'I' for Inactive)
REMARK    1  A    between atoms: C4_4  and  C5_5
REMARK    2  A    between atoms: C5_5  and  N1_6
REMARK    3  A    between atoms: C6_9  and  N3_10
REMARK    4  A    between atoms: C9_18  and  N5_19
REMARK    5  A    between atoms: C10_22  and  N6_23
REMARK    6  A    between atoms: N6_23  and  C11_25
REMARK    7  A    between atoms: C11_25  and  C12_26
REMARK    8  A    between atoms: C12_26  and  N7_27
ROOT
HETATM    1  C1  UNL     1      -3.850 -13.396   8.697  1.00  0.00     0.048 C
HETATM    2  C2  UNL     1      -4.882 -13.498   7.622  1.00  0.00     0.252 C
HETATM    3  C3  UNL     1      -6.194 -14.030   8.061  1.00  0.00    -0.009 A
HETATM    4  C4  UNL     1      -7.310 -13.271   8.081  1.00  0.00    -0.027 A
HETATM    5  C8  UNL     1      -8.529 -13.909   8.464  1.00  0.00     0.048 A
HETATM    6  C9  UNL     1      -8.551 -15.236   8.792  1.00  0.00     0.130 A
HETATM    7  C10 UNL     1      -7.418 -15.992   8.770  1.00  0.00     0.068 A
HETATM    8  C13 UNL     1      -6.238 -15.393   8.404  1.00  0.00    -0.018 A
HETATM    9  C14 UNL     1      -5.018 -16.214   8.371  1.00  0.00     0.072 C
HETATM   10  C15 UNL     1      -3.973 -15.665   7.476  1.00  0.00     0.277 C
HETATM   11  N8  UNL     1      -4.400 -14.547   6.704  1.00  0.00     0.093 N
HETATM   12  C16 UNL     1      -3.354 -14.031   5.848  1.00  0.00     0.310 C
ENDROOT
BRANCH   4  13
HETATM   13  C5  UNL     1      -7.486 -11.856   7.755  1.00  0.00     0.194 C
BRANCH  13  14
HETATM   14  N1  UNL     1      -7.465 -10.942   8.868  1.00  0.00    -0.224 N
HETATM   15  N2  UNL     1      -6.328 -10.346   9.317  1.00  0.00    -0.126 N
HETATM   16  C6  UNL     1      -6.637  -9.526  10.310  1.00  0.00     0.694 A
ATOM     17  H2  UNL     1      -5.390 -10.505   8.948  1.00  0.00     0.206 HD
HETATM   18  N4  UNL     1      -7.955  -9.555  10.542  1.00  0.00    -0.139 N
HETATM   19  C7  UNL     1      -8.425 -10.451   9.620  1.00  0.00     0.356 A
ATOM     20  H4  UNL     1      -8.485  -9.032  11.239  1.00  0.00     0.189 HD
HETATM   21  O1  UNL     1      -9.671 -10.718   9.579  1.00  0.00    -0.244 OA
BRANCH  16  22
HETATM   22  N3  UNL     1      -5.779  -8.798  10.964  1.00  0.00    -0.233 N
ATOM     23  H32 UNL     1      -4.915  -8.420  10.574  1.00  0.00     0.174 HD
ATOM     24  H31 UNL     1      -5.874  -8.525  11.942  1.00  0.00     0.174 HD
ENDBRANCH  16  22
ENDBRANCH  13  14
ENDBRANCH   4  13
BRANCH   6  25
HETATM   25  N5  UNL     1      -9.852 -15.790   9.111  1.00  0.00    -0.113 N
HETATM   26  O2  UNL     1     -10.095 -16.280  10.227  1.00  0.00    -0.532 OA
HETATM   27  O3  UNL     1     -10.791 -15.759   8.115  1.00  0.00    -0.532 OA
ENDBRANCH   6  25
BRANCH   7  28
HETATM   28  N6  UNL     1      -7.448 -17.348   9.153  1.00  0.00    -0.386 N
ATOM     29  H6  UNL     1      -7.287 -17.524  10.144  1.00  0.00     0.159 HD
BRANCH  28  30
HETATM   30  C11 UNL     1      -7.670 -18.499   8.362  1.00  0.00     0.147 C
BRANCH  30  31
HETATM   31  C12 UNL     1      -8.934 -19.256   8.479  1.00  0.00     0.249 C
BRANCH  31  32
HETATM   32  N7  UNL     1      -9.776 -19.276   7.335  1.00  0.00    -0.078 N
ATOM     33  H73 UNL     1      -9.661 -18.409   6.810  1.00  0.00     0.274 HD
ATOM     34  H72 UNL     1      -9.420 -19.952   6.660  1.00  0.00     0.274 HD
ATOM     35  H71 UNL     1     -10.768 -19.446   7.499  1.00  0.00     0.274 HD
ENDBRANCH  31  32
ENDBRANCH  30  31
ENDBRANCH  28  30
ENDBRANCH   7  28
TORSDOF 8
ENDMDL