MODEL 4
REMARK VINA RESULT: -5.530435236      1.177      3.393
REMARK  1 active torsions:
REMARK  status: ('A' for Active; 'I' for Inactive)
REMARK    1  A    between atoms: N1_1  and  N2_4
ROOT
HETATM    1  N2  UNL     1      18.742 -22.779  24.180  1.00  0.00    -0.232 NA
HETATM    2  C1  UNL     1      18.114 -24.038  24.578  1.00  0.00     0.141 C
HETATM    3  C2  UNL     1      16.620 -23.844  24.705  1.00  0.00     0.248 C
HETATM    4  N3  UNL     1      15.865 -24.643  23.799  1.00  0.00    -0.072 N
ATOM      5  H31 UNL     1      15.049 -25.038  24.266  1.00  0.00     0.277 HD
ATOM      6  H32 UNL     1      16.369 -25.501  23.574  1.00  0.00     0.277 HD
HETATM    7  C3  UNL     1      15.472 -23.959  22.590  1.00  0.00     0.253 C
HETATM    8  C4  UNL     1      16.616 -23.405  21.809  1.00  0.00     0.166 C
HETATM    9  N4  UNL     1      16.955 -22.093  22.267  1.00  0.00    -0.335 N
ATOM     10  H4  UNL     1      16.340 -21.578  22.895  1.00  0.00     0.180 HD
HETATM   11  N5  UNL     1      18.109 -21.566  21.840  1.00  0.00    -0.319 N
ATOM     12  H5  UNL     1      18.146 -20.594  21.536  1.00  0.00     0.185 HD
HETATM   13  C5  UNL     1      19.268 -22.356  21.814  1.00  0.00     0.095 C
HETATM   14  C6  UNL     1      19.684 -22.964  23.116  1.00  0.00     0.159 C
ENDROOT
BRANCH   1  15
HETATM   15  N1  UNL     1      19.329 -22.223  25.322  1.00  0.00    -0.363 NA
ATOM     16  H12 UNL     1      18.707 -21.573  25.803  1.00  0.00     0.171 HD
ATOM     17  H11 UNL     1      20.197 -21.773  25.033  1.00  0.00     0.171 HD
ENDBRANCH   1  15
TORSDOF 1
ENDMDL