MODEL 4
REMARK VINA RESULT: -7.039353919      1.341      3.160
REMARK  2 active torsions:
REMARK  status: ('A' for Active; 'I' for Inactive)
REMARK    1  A    between atoms: N1_1  and  C1_4
REMARK    2  A    between atoms: C2_5  and  O1_6
ROOT
HETATM    1  C1  UNL     1      16.606 -23.848  23.245  1.00  0.00     0.131 C
HETATM    2  C2  UNL     1      17.189 -22.899  22.416  1.00  0.00     0.139 C
HETATM    3  C3  UNL     1      18.399 -22.230  22.557  1.00  0.00     0.156 C
HETATM    4  N2  UNL     1      18.929 -21.538  21.459  1.00  0.00    -0.079 NA
HETATM    5  N3  UNL     1      19.104 -22.211  23.714  1.00  0.00    -0.294 N
ATOM      6  H3  UNL     1      19.858 -21.524  23.737  1.00  0.00     0.172 HD
HETATM    7  C4  UNL     1      18.981 -22.942  24.842  1.00  0.00     0.328 C
HETATM    8  O2  UNL     1      19.664 -22.549  25.830  1.00  0.00    -0.247 OA
HETATM    9  N4  UNL     1      18.216 -24.047  25.041  1.00  0.00    -0.273 N
ATOM     10  H4  UNL     1      18.546 -24.698  25.754  1.00  0.00     0.173 HD
HETATM   11  C5  UNL     1      17.082 -24.387  24.418  1.00  0.00     0.278 C
HETATM   12  O3  UNL     1      16.411 -25.286  24.978  1.00  0.00    -0.265 OA
ENDROOT
BRANCH   1  13
HETATM   13  N1  UNL     1      15.453 -24.321  22.910  1.00  0.00    -0.392 N
ATOM     14  H12 UNL     1      14.715 -24.068  23.568  1.00  0.00     0.156 HD
ATOM     15  H11 UNL     1      15.392 -24.877  22.058  1.00  0.00     0.156 HD
ENDBRANCH   1  13
BRANCH   2  16
HETATM   16  O1  UNL     1      16.481 -22.566  21.299  1.00  0.00    -0.355 OA
ATOM     17  H1  UNL     1      16.580 -21.671  20.995  1.00  0.00     0.218 HD
ENDBRANCH   2  16
TORSDOF 2
ENDMDL