MODEL 4
REMARK VINA RESULT: -6.610755720      1.189      3.715
REMARK  1 active torsions:
REMARK  status: ('A' for Active; 'I' for Inactive)
REMARK    1  A    between atoms: N1_1  and  C1_4
ROOT
HETATM    1  C1  UNL     1      16.239 -23.733  22.066  1.00  0.00     0.691 A
HETATM    2  N2  UNL     1      17.471 -23.334  22.435  1.00  0.00    -0.181 N
ATOM      3  H2  UNL     1      18.102 -22.930  21.743  1.00  0.00     0.184 HD
HETATM    4  C2  UNL     1      17.877 -23.466  23.715  1.00  0.00     0.162 A
HETATM    5  C3  UNL     1      19.135 -23.069  24.139  1.00  0.00     0.277 A
HETATM    6  O1  UNL     1      19.887 -22.571  23.241  1.00  0.00    -0.266 OA
HETATM    7  N3  UNL     1      19.542 -23.200  25.416  1.00  0.00    -0.318 N
ATOM      8  H3  UNL     1      20.476 -22.896  25.692  1.00  0.00     0.169 HD
HETATM    9  C4  UNL     1      18.700 -23.740  26.336  1.00  0.00     0.185 A
HETATM   10  N4  UNL     1      17.468 -24.138  25.966  1.00  0.00    -0.335 N
ATOM     11  H4  UNL     1      16.840 -24.541  26.662  1.00  0.00     0.168 HD
HETATM   12  C5  UNL     1      17.051 -24.009  24.679  1.00  0.00     0.154 A
HETATM   13  N5  UNL     1      15.825 -24.398  24.277  1.00  0.00    -0.269 N
ATOM     14  H5  UNL     1      15.183 -24.805  24.957  1.00  0.00     0.189 HD
HETATM   15  N6  UNL     1      15.433 -24.262  23.005  1.00  0.00    -0.131 N
ATOM     16  H6  UNL     1      14.497 -24.567  22.740  1.00  0.00     0.205 HD
ENDROOT
BRANCH   1  17
HETATM   17  N1  UNL     1      15.793 -23.632  20.857  1.00  0.00    -0.233 N
ATOM     18  H12 UNL     1      14.905 -24.081  20.628  1.00  0.00     0.174 HD
ATOM     19  H11 UNL     1      16.283 -23.127  20.119  1.00  0.00     0.174 HD
ENDBRANCH   1  17
TORSDOF 1
ENDMDL