MODEL 2
REMARK VINA RESULT: -7.234131740      1.178      2.347
REMARK  1 active torsions:
REMARK  status: ('A' for Active; 'I' for Inactive)
REMARK    1  A    between atoms: C4_11  and  N4_12
ROOT
HETATM    1  N1  UNL     1      15.490 -23.296  22.421  1.00  0.00    -0.080 NA
HETATM    2  C1  UNL     1      16.877 -23.029  22.588  1.00  0.00     0.159 A
HETATM    3  N2  UNL     1      17.540 -22.305  21.655  1.00  0.00    -0.294 N
ATOM      4  H2  UNL     1      17.036 -21.957  20.839  1.00  0.00     0.172 HD
HETATM    5  C2  UNL     1      18.849 -22.037  21.786  1.00  0.00     0.328 A
HETATM    6  O1  UNL     1      19.421 -21.358  20.886  1.00  0.00    -0.247 OA
HETATM    7  N3  UNL     1      19.534 -22.490  22.864  1.00  0.00    -0.273 N
ATOM      8  H3  UNL     1      20.529 -22.285  22.962  1.00  0.00     0.173 HD
HETATM    9  C3  UNL     1      18.894 -23.215  23.809  1.00  0.00     0.285 A
HETATM   10  O2  UNL     1      19.498 -23.654  24.825  1.00  0.00    -0.265 OA
HETATM   11  C4  UNL     1      17.561 -23.495  23.688  1.00  0.00     0.211 A
ENDROOT
BRANCH  11  12
HETATM   12  N4  UNL     1      16.830 -24.264  24.641  1.00  0.00    -0.106 N
HETATM   13  O3  UNL     1      16.594 -25.468  24.514  1.00  0.00    -0.531 OA
HETATM   14  O4  UNL     1      16.376 -23.576  25.753  1.00  0.00    -0.531 OA
ENDBRANCH  11  12
TORSDOF 1
ENDMDL