MODEL 5
REMARK VINA RESULT: -6.899466527      0.837      3.011
REMARK  1 active torsions:
REMARK  status: ('A' for Active; 'I' for Inactive)
REMARK    1  A    between atoms: N5_13  and  N6_15
ROOT
HETATM    1  N1  UNL     1      19.332 -21.762  21.356  1.00  0.00    -0.191 NA
HETATM    2  C1  UNL     1      18.595 -22.340  22.025  1.00  0.00     0.105 C
HETATM    3  C2  UNL     1      17.666 -23.065  22.855  1.00  0.00     0.120 A
HETATM    4  C3  UNL     1      16.484 -23.548  22.289  1.00  0.00     0.140 A
HETATM    5  N2  UNL     1      16.201 -23.327  20.913  1.00  0.00    -0.095 NA
HETATM    6  C4  UNL     1      15.641 -24.230  23.132  1.00  0.00     0.285 A
HETATM    7  O1  UNL     1      14.569 -24.676  22.650  1.00  0.00    -0.265 OA
HETATM    8  N3  UNL     1      15.965 -24.405  24.421  1.00  0.00    -0.263 N
ATOM      9  H3  UNL     1      15.320 -24.916  25.024  1.00  0.00     0.190 HD
HETATM   10  N4  UNL     1      17.096 -23.938  24.946  1.00  0.00    -0.280 N
ATOM     11  H4  UNL     1      17.302 -24.095  25.933  1.00  0.00     0.188 HD
HETATM   12  C5  UNL     1      17.962 -23.264  24.181  1.00  0.00     0.157 A
HETATM   13  N5  UNL     1      19.058 -22.803  24.656  1.00  0.00    -0.290 N
ATOM     14  H5  UNL     1      19.675 -22.299  24.020  1.00  0.00     0.188 HD
ENDROOT
BRANCH  13  15
HETATM   15  N6  UNL     1      19.465 -22.941  25.970  1.00  0.00    -0.344 N
ATOM     16  H62 UNL     1      18.786 -22.685  26.687  1.00  0.00     0.176 HD
ATOM     17  H61 UNL     1      20.383 -23.275  26.262  1.00  0.00     0.176 HD
ENDBRANCH  13  15
TORSDOF 1
ENDMDL