MODEL 5
REMARK VINA RESULT: -5.907248379      1.427      2.312
REMARK  0 active torsions:
REMARK  status: ('A' for Active; 'I' for Inactive)
ROOT
HETATM    1  N1  UNL     1      19.293 -23.953  24.405  1.00  0.00    -0.386 N
ATOM      2  H11 UNL     1      18.755 -24.613  24.967  1.00  0.00     0.157 HD
ATOM      3  H12 UNL     1      20.261 -24.024  24.719  1.00  0.00     0.157 HD
HETATM    4  C1  UNL     1      18.897 -23.164  23.480  1.00  0.00     0.113 C
HETATM    5  N2  UNL     1      19.641 -22.251  22.703  1.00  0.00    -0.318 N
ATOM      6  H2  UNL     1      20.599 -21.960  22.899  1.00  0.00     0.169 HD
HETATM    7  C2  UNL     1      18.920 -21.831  21.696  1.00  0.00     0.190 C
HETATM    8  N3  UNL     1      19.445 -20.896  20.756  1.00  0.00    -0.063 NA
HETATM    9  N4  UNL     1      17.634 -22.439  21.732  1.00  0.00    -0.342 N
ATOM     10  H4  UNL     1      16.942 -22.436  20.983  1.00  0.00     0.163 HD
HETATM   11  C3  UNL     1      17.490 -23.061  23.026  1.00  0.00     0.148 C
HETATM   12  C4  UNL     1      16.646 -22.272  23.971  1.00  0.00     0.067 C
HETATM   13  C5  UNL     1      16.293 -23.403  24.959  1.00  0.00     0.124 C
HETATM   14  N5  UNL     1      16.190 -24.557  24.067  1.00  0.00    -0.379 N
ATOM     15  H5  UNL     1      15.657 -25.400  24.280  1.00  0.00     0.160 HD
HETATM   16  C6  UNL     1      16.856 -24.378  22.977  1.00  0.00     0.125 C
HETATM   17  N6  UNL     1      16.948 -25.330  21.905  1.00  0.00    -0.085 NA
ENDROOT
TORSDOF 0
ENDMDL