MODEL 3
REMARK VINA RESULT: -6.875070210      1.903      3.007
REMARK  0 active torsions:
REMARK  status: ('A' for Active; 'I' for Inactive)
ROOT
HETATM    1  N1  UNL     1      15.675 -24.570  24.868  1.00  0.00    -0.233 N
ATOM      2  H11 UNL     1      15.985 -24.402  25.825  1.00  0.00     0.174 HD
ATOM      3  H12 UNL     1      14.790 -24.990  24.581  1.00  0.00     0.174 HD
HETATM    4  C1  UNL     1      16.491 -24.214  23.939  1.00  0.00     0.697 C
HETATM    5  N2  UNL     1      16.055 -24.450  22.596  1.00  0.00    -0.116 N
ATOM      6  H2  UNL     1      15.148 -24.910  22.517  1.00  0.00     0.203 HD
HETATM    7  N3  UNL     1      16.668 -24.154  21.377  1.00  0.00    -0.005 NA
HETATM    8  N4  UNL     1      17.237 -22.876  21.334  1.00  0.00    -0.248 N
ATOM      9  H4  UNL     1      16.907 -22.261  20.590  1.00  0.00     0.187 HD
HETATM   10  C2  UNL     1      18.227 -22.331  22.214  1.00  0.00     0.287 C
HETATM   11  O1  UNL     1      18.919 -21.386  21.785  1.00  0.00    -0.264 OA
HETATM   12  C3  UNL     1      18.492 -22.798  23.584  1.00  0.00     0.142 A
HETATM   13  C4  UNL     1      19.588 -22.454  24.320  1.00  0.00     0.125 A
HETATM   14  N5  UNL     1      19.452 -23.087  25.502  1.00  0.00    -0.359 N
ATOM     15  H5  UNL     1      20.115 -23.030  26.274  1.00  0.00     0.166 HD
HETATM   16  C5  UNL     1      18.305 -23.814  25.518  1.00  0.00     0.207 A
HETATM   17  N6  UNL     1      17.728 -23.627  24.342  1.00  0.00    -0.136 N
ENDROOT
TORSDOF 0
ENDMDL