MODEL 2
REMARK VINA RESULT: -7.193995248      2.146      3.678
REMARK  0 active torsions:
REMARK  status: ('A' for Active; 'I' for Inactive)
ROOT
HETATM    1  O1  UNL     1      17.551 -24.437  26.360  1.00  0.00    -0.247 OA
HETATM    2  C1  UNL     1      17.372 -23.987  25.177  1.00  0.00     0.328 A
HETATM    3  N1  UNL     1      18.050 -22.928  24.723  1.00  0.00    -0.273 N
ATOM      4  H1  UNL     1      18.724 -22.469  25.335  1.00  0.00     0.173 HD
HETATM    5  C2  UNL     1      17.866 -22.450  23.480  1.00  0.00     0.281 A
HETATM    6  O2  UNL     1      18.516 -21.467  23.103  1.00  0.00    -0.265 OA
HETATM    7  C3  UNL     1      16.937 -23.112  22.697  1.00  0.00     0.160 A
HETATM    8  N2  UNL     1      16.519 -22.902  21.436  1.00  0.00    -0.276 N
ATOM      9  H2  UNL     1      16.853 -22.162  20.819  1.00  0.00     0.184 HD
HETATM   10  N3  UNL     1      15.602 -23.813  21.123  1.00  0.00    -0.020 NA
HETATM   11  N4  UNL     1      15.393 -24.631  22.139  1.00  0.00    -0.267 N
ATOM     12  H4  UNL     1      14.746 -25.419  22.171  1.00  0.00     0.186 HD
HETATM   13  C4  UNL     1      16.223 -24.207  23.138  1.00  0.00     0.156 A
HETATM   14  N5  UNL     1      16.467 -24.621  24.394  1.00  0.00    -0.291 N
ATOM     15  H5  UNL     1      15.962 -25.427  24.763  1.00  0.00     0.172 HD
ENDROOT
TORSDOF 0
ENDMDL