MODEL 2
REMARK VINA RESULT: -6.642110695      1.880      2.518
REMARK  1 active torsions:
REMARK  status: ('A' for Active; 'I' for Inactive)
REMARK    1  A    between atoms: N1_1  and  C1_4
ROOT
HETATM    1  C1  UNL     1      18.879 -22.993  24.909  1.00  0.00     0.680 A
HETATM    2  N2  UNL     1      18.009 -23.944  25.294  1.00  0.00    -0.154 N
ATOM      3  H2  UNL     1      18.056 -24.338  26.234  1.00  0.00     0.187 HD
HETATM    4  C2  UNL     1      17.076 -24.366  24.423  1.00  0.00     0.291 A
HETATM    5  O1  UNL     1      16.271 -25.256  24.804  1.00  0.00    -0.265 OA
HETATM    6  C3  UNL     1      16.969 -23.870  23.152  1.00  0.00     0.164 A
HETATM    7  N3  UNL     1      16.171 -24.082  22.088  1.00  0.00    -0.278 N
ATOM      8  H3  UNL     1      15.402 -24.750  22.056  1.00  0.00     0.189 HD
HETATM    9  N4  UNL     1      16.536 -23.294  21.090  1.00  0.00    -0.240 N
ATOM     10  H4  UNL     1      16.101 -23.251  20.168  1.00  0.00     0.208 HD
HETATM   11  N5  UNL     1      17.562 -22.576  21.500  1.00  0.00    -0.268 N
ATOM     12  H5  UNL     1      18.051 -21.880  20.938  1.00  0.00     0.190 HD
HETATM   13  C4  UNL     1      17.867 -22.895  22.766  1.00  0.00     0.170 A
HETATM   14  N6  UNL     1      18.788 -22.495  23.664  1.00  0.00    -0.173 N
ATOM     15  H6  UNL     1      19.454 -21.775  23.384  1.00  0.00     0.186 HD
ENDROOT
BRANCH   1  16
HETATM   16  N1  UNL     1      19.809 -22.531  25.688  1.00  0.00    -0.234 N
ATOM     17  H12 UNL     1      20.676 -23.061  25.769  1.00  0.00     0.174 HD
ATOM     18  H11 UNL     1      19.708 -21.666  26.219  1.00  0.00     0.174 HD
ENDBRANCH   1  16
TORSDOF 1
ENDMDL