MODEL 2
REMARK VINA RESULT: -6.916411328      1.032      3.515
REMARK  1 active torsions:
REMARK  status: ('A' for Active; 'I' for Inactive)
REMARK    1  A    between atoms: N1_1  and  C1_4
ROOT
HETATM    1  C1  UNL     1      15.996 -24.111  22.525  1.00  0.00     0.183 C
HETATM    2  N2  UNL     1      16.397 -23.598  21.347  1.00  0.00    -0.280 N
ATOM      3  H2  UNL     1      15.736 -23.708  20.578  1.00  0.00     0.188 HD
HETATM    4  N3  UNL     1      17.538 -22.965  21.037  1.00  0.00    -0.282 N
ATOM      5  H3  UNL     1      17.710 -22.833  20.040  1.00  0.00     0.188 HD
HETATM    6  C2  UNL     1      18.494 -22.476  21.864  1.00  0.00     0.199 C
HETATM    7  N4  UNL     1      19.226 -21.335  21.431  1.00  0.00    -0.075 NA
HETATM    8  C3  UNL     1      18.810 -23.008  23.102  1.00  0.00     0.290 C
HETATM    9  O1  UNL     1      19.900 -22.615  23.571  1.00  0.00    -0.264 OA
HETATM   10  N5  UNL     1      18.072 -23.892  23.837  1.00  0.00    -0.284 N
ATOM     11  H5  UNL     1      18.530 -24.260  24.671  1.00  0.00     0.172 HD
HETATM   12  C4  UNL     1      16.825 -24.344  23.614  1.00  0.00     0.293 C
HETATM   13  O2  UNL     1      16.294 -25.084  24.485  1.00  0.00    -0.264 OA
ENDROOT
BRANCH   1  14
HETATM   14  N1  UNL     1      14.746 -24.418  22.675  1.00  0.00    -0.380 N
ATOM     15  H12 UNL     1      14.068 -23.755  22.301  1.00  0.00     0.158 HD
ATOM     16  H11 UNL     1      14.511 -25.290  23.150  1.00  0.00     0.158 HD
ENDBRANCH   1  14
TORSDOF 1
ENDMDL