MODEL 5
REMARK VINA RESULT: -6.460001920      1.547      1.795
REMARK  6 active torsions:
REMARK  status: ('A' for Active; 'I' for Inactive)
REMARK    1  A    between atoms: N1_2  and  C2_4
REMARK    2  A    between atoms: C3_7  and  N3_8
REMARK    3  A    between atoms: C6_13  and  N5_14
REMARK    4  A    between atoms: N5_14  and  C7_16
REMARK    5  A    between atoms: C7_16  and  C8_17
REMARK       I    between atoms: C8_17  and  N6_19
REMARK    6  A    between atoms: N6_19  and  C9_21
ROOT
HETATM    1  N5  UNL     1      27.501  -4.624   0.548  1.00  0.00    -0.216 N
ATOM      2  H5  UNL     1      27.590  -3.634   0.317  1.00  0.00     0.178 HD
ENDROOT
BRANCH   1   3
HETATM    3  C6  UNL     1      26.935  -5.388  -0.315  1.00  0.00     0.707 A
HETATM    4  N4  UNL     1      27.465  -6.558  -0.652  1.00  0.00    -0.021 N
HETATM    5  C3  UNL     1      26.897  -7.381  -1.553  1.00  0.00     0.708 A
ATOM      6  H4  UNL     1      28.337  -6.846  -0.209  1.00  0.00     0.203 HD
HETATM    7  N2  UNL     1      25.748  -6.971  -2.116  1.00  0.00    -0.021 N
HETATM    8  C2  UNL     1      25.175  -5.790  -1.805  1.00  0.00     0.706 A
ATOM      9  H2  UNL     1      25.294  -7.573  -2.803  1.00  0.00     0.203 HD
HETATM   10  N10 UNL     1      25.794  -5.012  -0.895  1.00  0.00    -0.022 N
ATOM     11  H10 UNL     1      25.379  -4.114  -0.643  1.00  0.00     0.203 HD
BRANCH   5  12
HETATM   12  N3  UNL     1      27.510  -8.620  -1.871  1.00  0.00    -0.225 N
HETATM   13  C4  UNL     1      26.859  -9.525  -2.796  1.00  0.00     0.168 C
HETATM   14  C5  UNL     1      28.780  -8.977  -1.274  1.00  0.00     0.168 C
ENDBRANCH   5  12
BRANCH   8  15
HETATM   15  N1  UNL     1      24.063  -5.431  -2.372  1.00  0.00    -0.229 N
HETATM   16  C1  UNL     1      22.812  -5.645  -1.691  1.00  0.00     0.165 C
ATOM     17  H1  UNL     1      24.076  -4.999  -3.296  1.00  0.00     0.177 HD
ENDBRANCH   8  15
ENDBRANCH   1   3
BRANCH   1  18
HETATM   18  C7  UNL     1      28.015  -5.058   1.809  1.00  0.00     0.241 C
BRANCH  18  19
HETATM   19  C8  UNL     1      29.462  -4.767   1.855  1.00  0.00     0.241 C
HETATM   20  O1  UNL     1      29.905  -3.603   2.038  1.00  0.00    -0.271 OA
HETATM   21  N6  UNL     1      30.390  -5.811   1.691  1.00  0.00    -0.309 N
ATOM     22  H6  UNL     1      30.041  -6.758   1.541  1.00  0.00     0.170 HD
BRANCH  21  23
HETATM   23  C9  UNL     1      31.799  -5.598   1.727  1.00  0.00     0.147 A
HETATM   24  N7  UNL     1      32.471  -4.776   2.584  1.00  0.00    -0.269 N
HETATM   25  N8  UNL     1      33.754  -4.865   2.285  1.00  0.00    -0.241 N
ATOM     26  H7  UNL     1      32.059  -4.202   3.319  1.00  0.00     0.190 HD
HETATM   27  N9  UNL     1      33.950  -5.694   1.287  1.00  0.00    -0.287 N
ATOM     28  H8  UNL     1      34.495  -4.357   2.766  1.00  0.00     0.208 HD
HETATM   29  C10 UNL     1      32.753  -6.161   0.923  1.00  0.00     0.068 A
ATOM     30  H9  UNL     1      34.848  -5.936   0.868  1.00  0.00     0.188 HD
HETATM   31  C11 UNL     1      32.440  -7.140  -0.174  1.00  0.00     0.074 C
ENDBRANCH  21  23
ENDBRANCH  18  19
ENDBRANCH   1  18
TORSDOF 6
ENDMDL