MODEL 4
REMARK VINA RESULT: -5.010134287      2.135      4.636
REMARK  8 active torsions:
REMARK  status: ('A' for Active; 'I' for Inactive)
REMARK    1  A    between atoms: O1_2  and  C2_3
REMARK    2  A    between atoms: C3_4  and  N1_5
REMARK    3  A    between atoms: C4_9  and  O2_10
REMARK    4  A    between atoms: C5_12  and  N2_13
REMARK    5  A    between atoms: C8_16  and  N3_17
REMARK    6  A    between atoms: N3_17  and  O3_19
REMARK    7  A    between atoms: O3_19  and  C10_20
REMARK    8  A    between atoms: C14_24  and  O4_25
ROOT
HETATM    1  C2  UNL     1      30.205  -5.849   2.386  1.00  0.00     0.184 C
HETATM    2  C3  UNL     1      29.596  -4.634   1.678  1.00  0.00     0.245 C
HETATM    3  C4  UNL     1      29.075  -5.063   0.343  1.00  0.00     0.186 C
HETATM    4  C5  UNL     1      29.999  -6.099  -0.279  1.00  0.00     0.279 C
HETATM    5  C8  UNL     1      31.394  -5.905   0.177  1.00  0.00     0.175 C
HETATM    6  C14 UNL     1      31.511  -6.111   1.695  1.00  0.00     0.176 C
ENDROOT
BRANCH   5   7
HETATM    7  N3  UNL     1      32.428  -6.644  -0.433  1.00  0.00    -0.288 N
HETATM    8  C9  UNL     1      32.533  -7.995  -0.156  1.00  0.00     0.179 C
BRANCH   7   9
HETATM    9  O3  UNL     1      33.302  -6.091  -1.163  1.00  0.00    -0.273 OA
BRANCH   9  10
HETATM   10  C10 UNL     1      34.633  -6.164  -0.979  1.00  0.00     0.078 C
HETATM   11  C11 UNL     1      35.130  -5.766   0.400  1.00  0.00     0.048 C
HETATM   12  C12 UNL     1      35.251  -5.081  -1.915  1.00  0.00     0.048 C
HETATM   13  C13 UNL     1      35.333  -7.427  -1.373  1.00  0.00     0.048 C
ENDBRANCH   9  10
ENDBRANCH   7   9
ENDBRANCH   5   7
BRANCH   4  14
HETATM   14  N2  UNL     1      29.777  -6.237  -1.680  1.00  0.00     0.089 N
HETATM   15  C6  UNL     1      28.628  -7.159  -1.915  1.00  0.00     0.310 C
HETATM   16  C7  UNL     1      29.291  -4.987  -2.283  1.00  0.00     0.310 C
ENDBRANCH   4  14
BRANCH   6  17
HETATM   17  O4  UNL     1      32.452  -5.227   2.229  1.00  0.00    -0.391 OA
ATOM     18  H4  UNL     1      32.037  -4.771   2.952  1.00  0.00     0.210 HD
ENDBRANCH   6  17
BRANCH   3  19
HETATM   19  O2  UNL     1      27.793  -5.600   0.559  1.00  0.00    -0.391 OA
ATOM     20  H2  UNL     1      27.168  -4.927   0.317  1.00  0.00     0.210 HD
ENDBRANCH   3  19
BRANCH   1  21
HETATM   21  O1  UNL     1      30.438  -5.531   3.722  1.00  0.00    -0.386 OA
HETATM   22  C1  UNL     1      30.408  -6.716   4.473  1.00  0.00     0.202 C
ENDBRANCH   1  21
BRANCH   2  23
HETATM   23  N1  UNL     1      28.651  -3.991   2.528  1.00  0.00    -0.070 N
ATOM     24  H13 UNL     1      28.249  -4.636   3.207  1.00  0.00     0.274 HD
ATOM     25  H12 UNL     1      29.100  -3.348   3.181  1.00  0.00     0.274 HD
ATOM     26  H11 UNL     1      27.934  -3.528   1.971  1.00  0.00     0.274 HD
ENDBRANCH   2  23
TORSDOF 8
ENDMDL