MODEL 2
REMARK VINA RESULT: -7.342429448      2.697      3.723
REMARK  6 active torsions:
REMARK  status: ('A' for Active; 'I' for Inactive)
REMARK    1  A    between atoms: C4_4  and  C5_5
REMARK       I    between atoms: C5_5  and  N1_7
REMARK    2  A    between atoms: N1_7  and  C6_9
REMARK    3  A    between atoms: C7_19  and  S1_20
REMARK    4  A    between atoms: S1_20  and  C8_21
REMARK    5  A    between atoms: C8_21  and  C9_22
REMARK       I    between atoms: C9_22  and  N7_24
REMARK    6  A    between atoms: N7_24  and  N8_26
ROOT
HETATM    1  C1  UNL     1      23.885  -5.823  -1.807  1.00  0.00     0.043 C
HETATM    2  C2  UNL     1      25.097  -5.595  -1.313  1.00  0.00     0.026 A
HETATM    3  C3  UNL     1      26.289  -6.013  -2.038  1.00  0.00     0.064 A
HETATM    4  C4  UNL     1      27.462  -5.761  -1.497  1.00  0.00     0.105 A
HETATM    5  N6  UNL     1      27.522  -5.087  -0.226  1.00  0.00    -0.332 N
ATOM      6  H6  UNL     1      28.439  -4.899   0.179  1.00  0.00     0.168 HD
HETATM    7  C7  UNL     1      26.373  -4.672   0.493  1.00  0.00     0.145 A
HETATM    8  N9  UNL     1      25.224  -4.936  -0.065  1.00  0.00    -0.338 N
ATOM      9  H9  UNL     1      24.373  -4.653   0.422  1.00  0.00     0.168 HD
ENDROOT
BRANCH   4  10
HETATM   10  C5  UNL     1      28.704  -6.143  -2.151  1.00  0.00     0.286 C
HETATM   11  O1  UNL     1      29.016  -5.572  -3.224  1.00  0.00    -0.265 OA
HETATM   12  N1  UNL     1      29.568  -7.136  -1.613  1.00  0.00    -0.152 N
ATOM     13  H1  UNL     1      29.450  -8.103  -1.914  1.00  0.00     0.188 HD
BRANCH  12  14
HETATM   14  C6  UNL     1      30.494  -6.863  -0.760  1.00  0.00     0.713 A
HETATM   15  N2  UNL     1      30.986  -5.612  -0.570  1.00  0.00    -0.118 N
HETATM   16  N3  UNL     1      31.921  -5.634   0.361  1.00  0.00    -0.212 N
ATOM     17  H2  UNL     1      30.678  -4.778  -1.072  1.00  0.00     0.207 HD
HETATM   18  N4  UNL     1      32.028  -6.889   0.765  1.00  0.00     0.009 NA
ATOM     19  H3  UNL     1      32.458  -4.838   0.703  1.00  0.00     0.206 HD
HETATM   20  N5  UNL     1      31.165  -7.642   0.090  1.00  0.00    -0.113 N
ATOM     21  H5  UNL     1      31.039  -8.648   0.203  1.00  0.00     0.203 HD
ENDBRANCH  12  14
ENDBRANCH   4  10
BRANCH   7  22
HETATM   22  S1  UNL     1      26.426  -3.809   2.043  1.00  0.00    -0.085 SA
BRANCH  22  23
HETATM   23  C8  UNL     1      27.831  -4.343   3.024  1.00  0.00     0.186 C
BRANCH  23  24
HETATM   24  C9  UNL     1      29.068  -3.766   2.463  1.00  0.00     0.245 C
HETATM   25  O2  UNL     1      30.088  -4.447   2.312  1.00  0.00    -0.271 OA
HETATM   26  N7  UNL     1      29.063  -2.396   2.093  1.00  0.00    -0.276 N
ATOM     27  H7  UNL     1      28.221  -1.835   2.217  1.00  0.00     0.189 HD
BRANCH  26  28
HETATM   28  N8  UNL     1      30.219  -1.818   1.559  1.00  0.00    -0.343 N
ATOM     29  H82 UNL     1      31.087  -2.354   1.557  1.00  0.00     0.176 HD
ATOM     30  H81 UNL     1      30.181  -0.873   1.178  1.00  0.00     0.176 HD
ENDBRANCH  26  28
ENDBRANCH  23  24
ENDBRANCH  22  23
ENDBRANCH   7  22
TORSDOF 6
ENDMDL