MODEL 2
REMARK VINA RESULT: -5.753841934      2.867      6.529
REMARK  7 active torsions:
REMARK  status: ('A' for Active; 'I' for Inactive)
REMARK    1  A    between atoms: N1_2  and  C3_4
REMARK    2  A    between atoms: C3_4  and  C4_5
REMARK    3  A    between atoms: C6_7  and  N2_8
REMARK       I    between atoms: N2_8  and  C7_10
REMARK    4  A    between atoms: C7_10  and  C8_12
REMARK    5  A    between atoms: C8_12  and  S1_13
REMARK    6  A    between atoms: S1_13  and  C9_14
REMARK    7  A    between atoms: C10_17  and  N4_18
ROOT
HETATM    1  N2  UNL     1      27.080  -4.916  -0.446  1.00  0.00    -0.305 N
ATOM      2  H2  UNL     1      27.332  -4.329  -1.241  1.00  0.00     0.171 HD
HETATM    3  C7  UNL     1      25.765  -4.956   0.058  1.00  0.00     0.233 C
HETATM    4  O1  UNL     1      25.534  -4.320   1.135  1.00  0.00    -0.272 OA
ENDROOT
BRANCH   3   5
HETATM    5  C8  UNL     1      24.659  -5.680  -0.579  1.00  0.00     0.185 C
BRANCH   5   6
HETATM    6  S1  UNL     1      24.798  -5.596  -2.362  1.00  0.00    -0.083 SA
BRANCH   6   7
HETATM    7  C9  UNL     1      25.828  -6.925  -2.960  1.00  0.00     0.174 A
HETATM    8  N3  UNL     1      26.107  -8.060  -2.304  1.00  0.00    -0.168 N
HETATM    9  C10 UNL     1      26.899  -8.835  -3.043  1.00  0.00     0.692 A
ATOM     10  H3  UNL     1      25.762  -8.296  -1.374  1.00  0.00     0.186 HD
HETATM   11  N5  UNL     1      27.117  -8.162  -4.188  1.00  0.00    -0.130 N
HETATM   12  N6  UNL     1      26.473  -7.013  -4.140  1.00  0.00    -0.265 N
ATOM     13  H5  UNL     1      27.689  -8.488  -4.967  1.00  0.00     0.205 HD
ATOM     14  H6  UNL     1      26.464  -6.306  -4.875  1.00  0.00     0.189 HD
BRANCH   9  15
HETATM   15  N4  UNL     1      27.360  -9.996  -2.736  1.00  0.00    -0.233 N
ATOM     16  H42 UNL     1      27.202 -10.502  -1.866  1.00  0.00     0.174 HD
ATOM     17  H41 UNL     1      27.960 -10.593  -3.305  1.00  0.00     0.174 HD
ENDBRANCH   9  15
ENDBRANCH   6   7
ENDBRANCH   5   6
ENDBRANCH   3   5
BRANCH   1  18
HETATM   18  C6  UNL     1      27.950  -5.658   0.150  1.00  0.00     0.174 A
HETATM   19  C5  UNL     1      28.956  -5.297   1.019  1.00  0.00     0.087 A
HETATM   20  C4  UNL     1      29.611  -6.454   1.383  1.00  0.00     0.065 A
HETATM   21  N7  UNL     1      28.979  -7.439   0.727  1.00  0.00    -0.262 N
HETATM   22  O2  UNL     1      28.016  -6.960   0.014  1.00  0.00    -0.220 OA
ATOM     23  H7  UNL     1      29.225  -8.427   0.785  1.00  0.00     0.194 HD
BRANCH  20  24
HETATM   24  C3  UNL     1      30.758  -6.650   2.298  1.00  0.00     0.330 C
BRANCH  24  25
HETATM   25  N1  UNL     1      31.873  -5.896   1.831  1.00  0.00     0.085 N
HETATM   26  C1  UNL     1      32.597  -6.451   0.735  1.00  0.00     0.309 C
HETATM   27  C2  UNL     1      32.737  -5.455   2.916  1.00  0.00     0.309 C
ENDBRANCH  24  25
ENDBRANCH  20  24
ENDBRANCH   1  18
TORSDOF 7
ENDMDL