MODEL 5
REMARK VINA RESULT: -6.428268577      1.860      2.898
REMARK  5 active torsions:
REMARK  status: ('A' for Active; 'I' for Inactive)
REMARK    1  A    between atoms: C2_2  and  N1_3
REMARK    2  A    between atoms: N6_15  and  C5_16
REMARK    3  A    between atoms: C5_16  and  C6_17
REMARK    4  A    between atoms: C6_17  and  C7_18
REMARK    5  A    between atoms: C7_18  and  C8_19
REMARK       I    between atoms: C8_19  and  N7_21
ROOT
HETATM    1  C1  UNL     1      33.424  -7.713   0.560  1.00  0.00     0.097 C
HETATM    2  C2  UNL     1      32.724  -6.371   0.483  1.00  0.00     0.275 C
HETATM    3  N2  UNL     1      33.157  -5.629   1.637  1.00  0.00    -0.315 N
ATOM      4  H2  UNL     1      34.135  -5.340   1.659  1.00  0.00     0.166 HD
HETATM    5  C3  UNL     1      32.434  -5.297   2.635  1.00  0.00     0.193 C
HETATM    6  N3  UNL     1      32.998  -4.553   3.742  1.00  0.00    -0.063 NA
HETATM    7  N4  UNL     1      31.057  -5.601   2.617  1.00  0.00    -0.305 N
ATOM      8  H4  UNL     1      30.489  -5.339   3.423  1.00  0.00     0.171 HD
HETATM    9  C4  UNL     1      30.489  -6.190   1.634  1.00  0.00     0.196 C
HETATM   10  N5  UNL     1      29.092  -6.491   1.651  1.00  0.00    -0.063 NA
HETATM   11  N6  UNL     1      31.282  -6.473   0.462  1.00  0.00    -0.306 N
ENDROOT
BRANCH  11  12
HETATM   12  C5  UNL     1      30.527  -6.828  -0.730  1.00  0.00     0.130 C
BRANCH  12  13
HETATM   13  C6  UNL     1      30.065  -5.660  -1.542  1.00  0.00     0.029 C
BRANCH  13  14
HETATM   14  C7  UNL     1      29.042  -5.976  -2.575  1.00  0.00     0.104 C
BRANCH  14  15
HETATM   15  C8  UNL     1      28.136  -7.093  -2.237  1.00  0.00     0.219 C
HETATM   16  O1  UNL     1      28.398  -8.269  -2.583  1.00  0.00    -0.273 OA
HETATM   17  N7  UNL     1      26.938  -6.806  -1.503  1.00  0.00    -0.350 N
HETATM   18  C9  UNL     1      26.768  -5.418  -1.184  1.00  0.00     0.127 C
HETATM   19  C13 UNL     1      26.154  -7.976  -1.237  1.00  0.00     0.153 C
HETATM   20  C10 UNL     1      25.334  -5.057  -0.871  1.00  0.00     0.047 C
HETATM   21  C11 UNL     1      24.469  -5.651  -1.958  1.00  0.00     0.234 C
HETATM   22  N8  UNL     1      23.991  -6.912  -1.477  1.00  0.00    -0.074 N
HETATM   23  C12 UNL     1      24.811  -7.987  -1.931  1.00  0.00     0.252 C
ATOM     24  H82 UNL     1      23.900  -6.915  -0.461  1.00  0.00     0.277 HD
ATOM     25  H81 UNL     1      23.012  -7.059  -1.723  1.00  0.00     0.277 HD
ENDBRANCH  14  15
ENDBRANCH  13  14
ENDBRANCH  12  13
ENDBRANCH  11  12
BRANCH   2  26
HETATM   26  N1  UNL     1      33.163  -5.741  -0.759  1.00  0.00    -0.034 N
ATOM     27  H13 UNL     1      34.178  -5.706  -0.856  1.00  0.00     0.279 HD
ATOM     28  H12 UNL     1      32.973  -6.306  -1.586  1.00  0.00     0.279 HD
ATOM     29  H11 UNL     1      32.724  -4.821  -0.791  1.00  0.00     0.279 HD
ENDBRANCH   2  26
TORSDOF 5
ENDMDL