MODEL 1
REMARK VINA RESULT: -6.830455539      0.000      0.000
REMARK  5 active torsions:
REMARK  status: ('A' for Active; 'I' for Inactive)
REMARK    1  A    between atoms: C3_3  and  C4_4
REMARK    2  A    between atoms: N1_5  and  N2_7
REMARK    3  A    between atoms: N6_16  and  C6_17
REMARK    4  A    between atoms: C6_17  and  C7_18
REMARK       I    between atoms: C7_18  and  N7_20
REMARK    5  A    between atoms: N7_20  and  C8_22
ROOT
HETATM    1  C1  UNL     1      27.692  -6.599  -3.220  1.00  0.00     0.072 C
HETATM    2  C2  UNL     1      26.418  -7.180  -2.666  1.00  0.00     0.056 A
HETATM    3  C3  UNL     1      25.971  -8.453  -2.804  1.00  0.00     0.090 A
HETATM    4  N4  UNL     1      24.794  -8.483  -2.132  1.00  0.00    -0.283 N
ATOM      5  H4  UNL     1      24.198  -9.305  -2.032  1.00  0.00     0.188 HD
HETATM    6  N5  UNL     1      24.537  -7.318  -1.638  1.00  0.00    -0.239 N
ATOM      7  H5  UNL     1      23.706  -7.077  -1.098  1.00  0.00     0.208 HD
HETATM    8  N6  UNL     1      25.513  -6.491  -1.939  1.00  0.00    -0.271 N
ENDROOT
BRANCH   8   9
HETATM    9  C6  UNL     1      25.604  -5.098  -1.637  1.00  0.00     0.253 C
BRANCH   9  10
HETATM   10  C7  UNL     1      26.351  -4.860  -0.374  1.00  0.00     0.255 C
HETATM   11  O1  UNL     1      25.629  -4.717   0.660  1.00  0.00    -0.271 OA
HETATM   12  N7  UNL     1      27.741  -4.825  -0.419  1.00  0.00    -0.157 N
ATOM     13  H7  UNL     1      28.173  -4.730  -1.337  1.00  0.00     0.187 HD
BRANCH  12  14
HETATM   14  C8  UNL     1      28.539  -4.904   0.603  1.00  0.00     0.700 A
HETATM   15  N8  UNL     1      28.329  -5.710   1.693  1.00  0.00    -0.185 N
HETATM   16  C9  UNL     1      29.387  -5.530   2.549  1.00  0.00     0.215 A
ATOM     17  H8  UNL     1      27.533  -6.329   1.841  1.00  0.00     0.185 HD
HETATM   18  N9  UNL     1      30.232  -4.625   1.976  1.00  0.00    -0.281 N
HETATM   19  N10 UNL     1      29.681  -4.303   0.846  1.00  0.00    -0.131 N
ATOM     20  H9  UNL     1      31.112  -4.276   2.356  1.00  0.00     0.188 HD
ATOM     21  H10 UNL     1      30.101  -3.635   0.200  1.00  0.00     0.205 HD
ENDBRANCH  12  14
ENDBRANCH   9  10
ENDBRANCH   8   9
BRANCH   3  22
HETATM   22  C4  UNL     1      26.559  -9.544  -3.561  1.00  0.00     0.140 C
HETATM   23  N1  UNL     1      27.335 -10.465  -3.154  1.00  0.00    -0.308 N
ATOM     24  H1  UNL     1      27.640 -10.525  -2.183  1.00  0.00     0.186 HD
BRANCH  23  25
HETATM   25  N2  UNL     1      27.754 -11.416  -4.142  1.00  0.00    -0.279 N
HETATM   26  C5  UNL     1      28.016 -12.695  -3.999  1.00  0.00     0.199 C
HETATM   27  N3  UNL     1      27.948 -13.621  -2.949  1.00  0.00    -0.068 NA
HETATM   28  S1  UNL     1      28.660 -13.478  -5.401  1.00  0.00    -0.043 SA
ATOM     29  H2  UNL     1      27.865 -11.047  -5.087  1.00  0.00     0.189 HD
ENDBRANCH  23  25
ENDBRANCH   3  22
TORSDOF 5
ENDMDL