MODEL 3
REMARK VINA RESULT: -6.832523893      1.359      1.569
REMARK  6 active torsions:
REMARK  status: ('A' for Active; 'I' for Inactive)
REMARK    1  A    between atoms: N1_2  and  C3_4
REMARK    2  A    between atoms: C4_7  and  C5_8
REMARK    3  A    between atoms: C5_8  and  N4_12
REMARK       I    between atoms: N4_12  and  C6_13
REMARK    4  A    between atoms: C6_13  and  C7_15
REMARK    5  A    between atoms: C10_19  and  N5_20
REMARK    6  A    between atoms: N5_20  and  C11_22
ROOT
HETATM    1  C3  UNL     1      26.496  -6.895  -1.763  1.00  0.00     0.131 A
HETATM    2  N2  UNL     1      27.571  -6.472  -1.228  1.00  0.00    -0.337 N
ATOM      3  H2  UNL     1      28.445  -6.888  -1.550  1.00  0.00     0.167 HD
HETATM    4  C4  UNL     1      27.663  -5.454  -0.204  1.00  0.00     0.092 A
HETATM    5  C8  UNL     1      26.542  -4.916   0.213  1.00  0.00     0.037 A
HETATM    6  C9  UNL     1      25.260  -5.355  -0.358  1.00  0.00     0.036 A
HETATM    7  C10 UNL     1      25.248  -6.287  -1.288  1.00  0.00     0.093 A
ENDROOT
BRANCH   7   8
HETATM    8  N5  UNL     1      24.015  -6.682  -1.805  1.00  0.00    -0.185 N
ATOM      9  H5  UNL     1      23.939  -7.649  -2.120  1.00  0.00     0.184 HD
BRANCH   8  10
HETATM   10  C11 UNL     1      22.973  -5.960  -1.925  1.00  0.00     0.714 A
HETATM   11  N6  UNL     1      21.763  -6.347  -1.467  1.00  0.00    -0.115 N
HETATM   12  N7  UNL     1      20.912  -5.386  -1.747  1.00  0.00    -0.213 N
ATOM     13  H6  UNL     1      21.550  -7.223  -0.991  1.00  0.00     0.207 HD
HETATM   14  N8  UNL     1      21.510  -4.390  -2.368  1.00  0.00    -0.213 N
ATOM     15  H7  UNL     1      19.919  -5.408  -1.513  1.00  0.00     0.210 HD
HETATM   16  N9  UNL     1      22.775  -4.748  -2.474  1.00  0.00    -0.115 N
ATOM     17  H8  UNL     1      21.083  -3.524  -2.698  1.00  0.00     0.210 HD
ATOM     18  H9  UNL     1      23.503  -4.183  -2.913  1.00  0.00     0.207 HD
ENDBRANCH   8  10
ENDBRANCH   7   8
BRANCH   1  19
HETATM   19  N1  UNL     1      26.539  -7.898  -2.759  1.00  0.00    -0.374 N
HETATM   20  C1  UNL     1      26.219  -9.268  -2.540  1.00  0.00     0.150 C
HETATM   21  C2  UNL     1      26.937  -7.484  -4.102  1.00  0.00     0.150 C
ENDBRANCH   1  19
BRANCH   4  22
HETATM   22  C5  UNL     1      28.976  -5.099   0.282  1.00  0.00     0.204 C
HETATM   23  N3  UNL     1      29.764  -4.386  -0.559  1.00  0.00    -0.372 N
ATOM     24  H32 UNL     1      29.294  -4.208  -1.447  1.00  0.00     0.158 HD
ATOM     25  H31 UNL     1      30.691  -4.135  -0.216  1.00  0.00     0.158 HD
BRANCH  22  26
HETATM   26  N4  UNL     1      29.610  -5.339   1.479  1.00  0.00    -0.344 NA
HETATM   27  C6  UNL     1      30.219  -5.571   2.630  1.00  0.00     0.355 C
HETATM   28  O1  UNL     1      31.338  -5.055   3.014  1.00  0.00    -0.248 OA
BRANCH  27  29
HETATM   29  C7  UNL     1      29.609  -6.500   3.619  1.00  0.00     0.348 C
HETATM   30  O2  UNL     1      28.391  -6.467   3.828  1.00  0.00    -0.295 OA
ENDBRANCH  27  29
ENDBRANCH  22  26
ENDBRANCH   4  22
TORSDOF 6
ENDMDL