MODEL 2
REMARK VINA RESULT: -7.081334000      1.499      2.954
REMARK  7 active torsions:
REMARK  status: ('A' for Active; 'I' for Inactive)
REMARK    1  A    between atoms: C3_5  and  N2_6
REMARK    2  A    between atoms: N2_6  and  C4_8
REMARK    3  A    between atoms: C4_8  and  C5_9
REMARK    4  A    between atoms: C5_9  and  C6_10
REMARK    5  A    between atoms: C6_10  and  N3_11
REMARK    6  A    between atoms: N3_11  and  C7_13
REMARK    7  A    between atoms: C10_23  and  N7_24
REMARK       I    between atoms: N7_24  and  C11_26
ROOT
HETATM    1  C1  UNL     1      26.566  -3.869   2.390  1.00  0.00     0.090 C
HETATM    2  C2  UNL     1      27.802  -4.601   1.980  1.00  0.00     0.109 A
HETATM    3  N1  UNL     1      28.545  -4.205   0.922  1.00  0.00    -0.180 N
ATOM      4  H1  UNL     1      28.249  -3.385   0.392  1.00  0.00     0.185 HD
HETATM    5  C3  UNL     1      29.655  -4.853   0.545  1.00  0.00     0.697 A
HETATM    6  N6  UNL     1      30.023  -5.930   1.257  1.00  0.00    -0.022 N
ATOM      7  H6  UNL     1      30.865  -6.444   0.995  1.00  0.00     0.203 HD
HETATM    8  C10 UNL     1      29.287  -6.346   2.328  1.00  0.00     0.700 A
HETATM    9  N10 UNL     1      28.177  -5.671   2.679  1.00  0.00    -0.180 N
ATOM     10  H10 UNL     1      27.624  -5.978   3.479  1.00  0.00     0.185 HD
ENDROOT
BRANCH   5  11
HETATM   11  N2  UNL     1      30.339  -4.478  -0.438  1.00  0.00    -0.205 N
ATOM     12  H2  UNL     1      30.787  -3.569  -0.330  1.00  0.00     0.183 HD
BRANCH  11  13
HETATM   13  C4  UNL     1      30.582  -5.118  -1.668  1.00  0.00     0.080 C
BRANCH  13  14
HETATM   14  C5  UNL     1      29.534  -4.892  -2.729  1.00  0.00     0.065 C
BRANCH  14  15
HETATM   15  C6  UNL     1      28.754  -6.208  -2.847  1.00  0.00     0.126 C
BRANCH  15  16
HETATM   16  N3  UNL     1      27.477  -6.117  -2.180  1.00  0.00    -0.373 N
ATOM     17  H3  UNL     1      27.304  -5.347  -1.534  1.00  0.00     0.161 HD
BRANCH  16  18
HETATM   18  C7  UNL     1      26.555  -6.988  -2.385  1.00  0.00     0.147 A
HETATM   19  N4  UNL     1      26.607  -8.071  -3.176  1.00  0.00    -0.224 N
HETATM   20  O1  UNL     1      25.453  -8.702  -3.108  1.00  0.00    -0.155 OA
ATOM     21  H4  UNL     1      27.408  -8.358  -3.739  1.00  0.00     0.198 HD
HETATM   22  N5  UNL     1      24.649  -8.072  -2.302  1.00  0.00    -0.242 N
HETATM   23  C8  UNL     1      25.297  -6.996  -1.828  1.00  0.00     0.076 A
ATOM     24  H5  UNL     1      23.695  -8.348  -2.072  1.00  0.00     0.196 HD
HETATM   25  C9  UNL     1      24.754  -6.011  -0.886  1.00  0.00     0.074 C
ENDBRANCH  16  18
ENDBRANCH  15  16
ENDBRANCH  14  15
ENDBRANCH  13  14
ENDBRANCH  11  13
ENDBRANCH   5  11
BRANCH   8  26
HETATM   26  N7  UNL     1      29.663  -7.370   2.981  1.00  0.00    -0.163 N
HETATM   27  C11 UNL     1      29.553  -7.531   4.376  1.00  0.00     0.200 C
HETATM   28  N8  UNL     1      30.565  -7.271   5.119  1.00  0.00    -0.373 N
HETATM   29  N9  UNL     1      28.355  -7.973   4.990  1.00  0.00    -0.063 NA
ATOM     30  H82 UNL     1      31.427  -6.953   4.676  1.00  0.00     0.158 HD
ATOM     31  H81 UNL     1      30.485  -7.388   6.129  1.00  0.00     0.158 HD
ATOM     32  H7  UNL     1      30.077  -8.137   2.451  1.00  0.00     0.187 HD
ENDBRANCH   8  26
TORSDOF 7
ENDMDL