MODEL 5
REMARK VINA RESULT: -5.935286030      2.555      5.670
REMARK  8 active torsions:
REMARK  status: ('A' for Active; 'I' for Inactive)
REMARK    1  A    between atoms: C2_2  and  N1_3
REMARK    2  A    between atoms: C2_2  and  C8_20
REMARK    3  A    between atoms: N1_3  and  N2_5
REMARK    4  A    between atoms: C3_7  and  C4_8
REMARK    5  A    between atoms: C6_11  and  S2_12
REMARK    6  A    between atoms: S2_12  and  N3_13
REMARK    7  A    between atoms: C8_20  and  N5_21
REMARK    8  A    between atoms: C8_20  and  O3_25
ROOT
HETATM    1  N2  UNL     1      28.025  -7.451  -3.202  1.00  0.00    -0.314 N
ATOM      2  H2  UNL     1      28.078  -7.288  -4.208  1.00  0.00     0.185 HD
HETATM    3  C3  UNL     1      28.580  -6.530  -2.592  1.00  0.00     0.137 C
ENDROOT
BRANCH   1   4
HETATM    4  N1  UNL     1      27.371  -8.602  -2.954  1.00  0.00    -0.328 N
ATOM      5  H1  UNL     1      27.891  -9.475  -3.046  1.00  0.00     0.180 HD
BRANCH   4   6
HETATM    6  C2  UNL     1      25.961  -8.686  -2.562  1.00  0.00     0.151 C
HETATM    7  C1  UNL     1      25.922  -9.182  -1.114  1.00  0.00     0.038 C
BRANCH   6   8
HETATM    8  C8  UNL     1      25.348  -7.304  -2.625  1.00  0.00     0.340 C
BRANCH   8   9
HETATM    9  N5  UNL     1      24.090  -7.306  -1.899  1.00  0.00    -0.051 N
ATOM     10  H53 UNL     1      23.434  -7.996  -2.264  1.00  0.00     0.277 HD
ATOM     11  H52 UNL     1      24.187  -7.685  -0.957  1.00  0.00     0.277 HD
ATOM     12  H51 UNL     1      23.701  -6.363  -1.898  1.00  0.00     0.277 HD
ENDBRANCH   8   9
BRANCH   8  13
HETATM   13  O3  UNL     1      25.134  -6.890  -3.922  1.00  0.00    -0.368 OA
ATOM     14  H3  UNL     1      25.724  -7.313  -4.534  1.00  0.00     0.212 HD
ENDBRANCH   8  13
ENDBRANCH   6   8
ENDBRANCH   4   6
ENDBRANCH   1   4
BRANCH   3  15
HETATM   15  C4  UNL     1      28.730  -6.370  -1.116  1.00  0.00     0.059 A
HETATM   16  C5  UNL     1      29.652  -7.148  -0.465  1.00  0.00     0.083 A
HETATM   17  S1  UNL     1      29.476  -6.641   1.160  1.00  0.00    -0.068 SA
HETATM   18  C6  UNL     1      28.257  -5.486   0.926  1.00  0.00     0.193 A
HETATM   19  N4  UNL     1      28.032  -5.533  -0.390  1.00  0.00    -0.333 N
HETATM   20  C7  UNL     1      27.001  -4.623  -0.976  1.00  0.00     0.158 C
BRANCH  18  21
HETATM   21  S2  UNL     1      27.464  -4.456   2.127  1.00  0.00     0.279 S
HETATM   22  O1  UNL     1      25.997  -4.585   2.003  1.00  0.00    -0.199 OA
HETATM   23  O2  UNL     1      27.897  -5.020   3.474  1.00  0.00    -0.199 OA
BRANCH  21  24
HETATM   24  N3  UNL     1      27.973  -2.844   2.058  1.00  0.00    -0.323 N
ATOM     25  H32 UNL     1      27.750  -2.230   1.274  1.00  0.00     0.169 HD
ATOM     26  H31 UNL     1      28.518  -2.561   2.873  1.00  0.00     0.169 HD
ENDBRANCH  21  24
ENDBRANCH  18  21
ENDBRANCH   3  15
TORSDOF 8
ENDMDL