MODEL 4
REMARK VINA RESULT: -6.616269519      2.068      3.493
REMARK  5 active torsions:
REMARK  status: ('A' for Active; 'I' for Inactive)
REMARK    1  A    between atoms: C3_5  and  N2_6
REMARK    2  A    between atoms: C8_16  and  N5_17
REMARK    3  A    between atoms: N5_17  and  C9_19
REMARK    4  A    between atoms: C9_19  and  C10_20
REMARK    5  A    between atoms: C10_20  and  N6_21
REMARK       I    between atoms: N6_21  and  C11_23
REMARK       I    between atoms: C11_23  and  N8_25
ROOT
HETATM    1  N6  UNL     1      30.425  -5.624   3.224  1.00  0.00    -0.351 N
ATOM      2  H6  UNL     1      30.841  -4.696   3.137  1.00  0.00     0.163 HD
HETATM    3  C11 UNL     1      28.956  -5.839   3.323  1.00  0.00     0.275 C
HETATM    4  N7  UNL     1      28.546  -6.971   4.130  1.00  0.00    -0.049 NA
HETATM    5  N8  UNL     1      28.176  -5.139   2.751  1.00  0.00    -0.296 NA
HETATM    6  C12 UNL     1      27.324  -4.413   2.155  1.00  0.00     0.271 C
HETATM    7  N9  UNL     1      26.584  -3.735   1.607  1.00  0.00    -0.156 NA
ENDROOT
BRANCH   1   8
HETATM    8  C10 UNL     1      31.197  -6.803   3.262  1.00  0.00     0.143 C
BRANCH   8   9
HETATM    9  C9  UNL     1      31.657  -7.413   2.016  1.00  0.00     0.157 C
BRANCH   9  10
HETATM   10  N5  UNL     1      30.758  -8.084   1.155  1.00  0.00    -0.224 N
ATOM     11  H5  UNL     1      30.686  -9.101   1.188  1.00  0.00     0.177 HD
BRANCH  10  12
HETATM   12  C8  UNL     1      30.012  -7.395   0.307  1.00  0.00     0.694 A
HETATM   13  N4  UNL     1      28.705  -7.609   0.142  1.00  0.00    -0.022 N
HETATM   14  C3  UNL     1      28.028  -6.852  -0.768  1.00  0.00     0.696 A
ATOM     15  H4  UNL     1      28.222  -8.324   0.686  1.00  0.00     0.203 HD
HETATM   16  N1  UNL     1      28.706  -5.933  -1.442  1.00  0.00    -0.180 N
HETATM   17  C2  UNL     1      30.030  -5.689  -1.301  1.00  0.00     0.109 A
ATOM     18  H1  UNL     1      28.191  -5.369  -2.118  1.00  0.00     0.185 HD
HETATM   19  C1  UNL     1      30.704  -4.670  -2.102  1.00  0.00     0.090 C
HETATM   20  N10 UNL     1      30.645  -6.459  -0.399  1.00  0.00    -0.180 N
ATOM     21  H10 UNL     1      31.644  -6.324  -0.243  1.00  0.00     0.185 HD
BRANCH  14  22
HETATM   22  N2  UNL     1      26.613  -7.037  -0.991  1.00  0.00    -0.214 N
HETATM   23  C4  UNL     1      26.155  -8.395  -1.109  1.00  0.00     0.168 C
HETATM   24  C5  UNL     1      25.182  -8.380  -2.293  1.00  0.00     0.252 C
HETATM   25  N3  UNL     1      24.033  -7.630  -1.827  1.00  0.00    -0.072 N
HETATM   26  C6  UNL     1      24.346  -6.237  -1.603  1.00  0.00     0.252 C
ATOM     27  H32 UNL     1      23.242  -7.732  -2.463  1.00  0.00     0.277 HD
ATOM     28  H31 UNL     1      23.626  -8.055  -0.994  1.00  0.00     0.277 HD
HETATM   29  C7  UNL     1      25.681  -5.976  -1.039  1.00  0.00     0.168 C
ENDBRANCH  14  22
ENDBRANCH  10  12
ENDBRANCH   9  10
ENDBRANCH   8   9
ENDBRANCH   1   8
TORSDOF 5
ENDMDL