MODEL 2
REMARK VINA RESULT: -6.362704459      4.846      9.796
REMARK  14 active torsions:
REMARK  status: ('A' for Active; 'I' for Inactive)
REMARK    1  A    between atoms: N1_1  and  C1_4
REMARK    2  A    between atoms: N2_6  and  C2_7
REMARK    3  A    between atoms: C2_7  and  C3_8
REMARK    4  A    between atoms: C2_7  and  C4_11
REMARK    5  A    between atoms: C3_8  and  O1_9
REMARK    6  A    between atoms: C4_11  and  O2_12
REMARK    7  A    between atoms: C4_11  and  C5_14
REMARK    8  A    between atoms: C4_11  and  C6_17
REMARK    9  A    between atoms: C5_14  and  O3_15
REMARK   10  A    between atoms: C6_17  and  O4_18
REMARK   11  A    between atoms: O4_18  and  N3_19
REMARK   12  A    between atoms: C8_23  and  N4_24
REMARK       I    between atoms: N4_24  and  C9_26
REMARK   13  A    between atoms: C9_26  and  C10_28
REMARK   14  A    between atoms: C13_36  and  C14_37
ROOT
HETATM    1  C1  UNL     1      28.767  21.435   6.880  1.00  0.00     0.113 A
HETATM    2  S1  UNL     1      29.975  20.445   7.554  1.00  0.00     0.008 SA
HETATM    3  N2  UNL     1      29.068  19.090   7.905  1.00  0.00    -0.314 N
HETATM    4  C7  UNL     1      27.838  19.411   7.500  1.00  0.00     0.132 A
HETATM    5  C8  UNL     1      27.626  20.619   6.959  1.00  0.00     0.086 A
ENDROOT
BRANCH   5   6
HETATM    6  N4  UNL     1      26.389  21.138   6.471  1.00  0.00    -0.318 N
HETATM    7  C9  UNL     1      25.812  20.786   5.244  1.00  0.00     0.280 C
HETATM    8  O5  UNL     1      26.324  19.981   4.455  1.00  0.00    -0.265 OA
ATOM      9  H4  UNL     1      25.892  21.811   7.054  1.00  0.00     0.169 HD
BRANCH   7  10
HETATM   10  C10 UNL     1      24.503  21.402   4.840  1.00  0.00     0.146 A
HETATM   11  N5  UNL     1      23.364  20.824   4.538  1.00  0.00    -0.330 N
HETATM   12  C11 UNL     1      22.330  21.566   4.208  1.00  0.00     0.142 A
ATOM     13  H5  UNL     1      23.281  19.808   4.560  1.00  0.00     0.168 HD
HETATM   14  N6  UNL     1      21.077  21.093   3.870  1.00  0.00    -0.327 N
HETATM   15  C15 UNL     1      22.510  22.921   4.197  1.00  0.00     0.121 A
HETATM   16  C12 UNL     1      20.127  21.954   3.557  1.00  0.00     0.150 A
ATOM     17  H6  UNL     1      20.888  20.091   3.863  1.00  0.00     0.168 HD
HETATM   18  N7  UNL     1      18.809  21.489   3.201  1.00  0.00    -0.080 NA
HETATM   19  C13 UNL     1      20.262  23.332   3.533  1.00  0.00     0.140 A
HETATM   20  N9  UNL     1      21.501  23.787   3.867  1.00  0.00    -0.341 N
ATOM     21  H9  UNL     1      21.680  24.792   3.873  1.00  0.00     0.167 HD
HETATM   22  S2  UNL     1      24.149  23.056   4.662  1.00  0.00    -0.045 SA
BRANCH  19  23
HETATM   23  C14 UNL     1      19.194  24.228   3.185  1.00  0.00     0.284 C
HETATM   24  N8  UNL     1      18.991  24.758   1.891  1.00  0.00    -0.056 NA
HETATM   25  O6  UNL     1      18.381  24.569   4.082  1.00  0.00    -0.269 OA
ENDBRANCH  19  23
ENDBRANCH   7  10
ENDBRANCH   5   6
BRANCH   1  26
HETATM   26  N1  UNL     1      28.871  22.652   6.407  1.00  0.00    -0.391 N
ATOM     27  H12 UNL     1      28.469  23.515   6.772  1.00  0.00     0.157 HD
ATOM     28  H11 UNL     1      29.375  22.977   5.582  1.00  0.00     0.157 HD
ENDBRANCH   1  26
BRANCH   3  29
HETATM   29  C2  UNL     1      29.484  17.803   8.524  1.00  0.00     0.159 C
BRANCH  29  30
HETATM   30  C3  UNL     1      28.194  17.230   9.075  1.00  0.00     0.193 C
BRANCH  30  31
HETATM   31  O1  UNL     1      28.223  17.367  10.474  1.00  0.00    -0.399 OA
ATOM     32  H1  UNL     1      28.309  16.500  10.851  1.00  0.00     0.209 HD
ENDBRANCH  30  31
ENDBRANCH  29  30
BRANCH  29  33
HETATM   33  C4  UNL     1      30.024  16.915   7.460  1.00  0.00     0.126 C
BRANCH  33  34
HETATM   34  O2  UNL     1      29.001  16.554   6.599  1.00  0.00    -0.383 OA
ATOM     35  H2  UNL     1      29.361  16.064   5.869  1.00  0.00     0.210 HD
ENDBRANCH  33  34
BRANCH  33  36
HETATM   36  C5  UNL     1      30.573  15.659   8.087  1.00  0.00     0.206 C
BRANCH  36  37
HETATM   37  O3  UNL     1      31.257  14.874   7.130  1.00  0.00    -0.398 OA
ATOM     38  H3  UNL     1      30.777  14.077   6.938  1.00  0.00     0.209 HD
ENDBRANCH  36  37
ENDBRANCH  33  36
BRANCH  33  39
HETATM   39  C6  UNL     1      31.185  17.548   6.714  1.00  0.00     0.242 C
BRANCH  39  40
HETATM   40  O4  UNL     1      30.975  17.408   5.336  1.00  0.00    -0.284 OA
BRANCH  40  41
HETATM   41  N3  UNL     1      31.714  16.425   4.813  1.00  0.00    -0.311 N
ATOM     42  H32 UNL     1      31.313  15.625   4.324  1.00  0.00     0.184 HD
ATOM     43  H31 UNL     1      32.712  16.576   4.964  1.00  0.00     0.184 HD
ENDBRANCH  40  41
ENDBRANCH  39  40
ENDBRANCH  33  39
ENDBRANCH  29  33
ENDBRANCH   3  29
TORSDOF 14
ENDMDL