MODEL 4
REMARK VINA RESULT: -6.855963430      2.876      7.293
REMARK  13 active torsions:
REMARK  status: ('A' for Active; 'I' for Inactive)
REMARK       I    between atoms: C2_2  and  N1_4
REMARK    1  A    between atoms: N1_4  and  C3_6
REMARK    2  A    between atoms: C4_9  and  N3_10
REMARK    3  A    between atoms: C5_15  and  C6_16
REMARK    4  A    between atoms: C7_19  and  C8_20
REMARK    5  A    between atoms: C8_20  and  N5_21
REMARK    6  A    between atoms: C8_20  and  C9_26
REMARK    7  A    between atoms: N5_21  and  N6_23
REMARK    8  A    between atoms: N10_34  and  C11_35
REMARK    9  A    between atoms: C11_35  and  O4_36
REMARK   10  A    between atoms: C11_35  and  C12_38
REMARK   11  A    between atoms: C12_38  and  N11_39
REMARK   12  A    between atoms: C12_38  and  C13_43
REMARK   13  A    between atoms: C13_43  and  O5_44
ROOT
HETATM    1  C8  UNL     1      27.930  17.354   7.064  1.00  0.00     0.095 C
ENDROOT
BRANCH   1   2
HETATM    2  C7  UNL     1      28.950  18.366   7.345  1.00  0.00     0.073 A
HETATM    3  C3  UNL     1      28.533  19.528   8.044  1.00  0.00     0.138 A
HETATM    4  N2  UNL     1      29.455  20.419   8.369  1.00  0.00    -0.176 N
HETATM    5  C4  UNL     1      30.778  20.272   8.063  1.00  0.00     0.678 A
ATOM      6  H2  UNL     1      29.164  21.256   8.873  1.00  0.00     0.186 HD
HETATM    7  N4  UNL     1      31.118  19.187   7.412  1.00  0.00    -0.184 N
HETATM    8  C5  UNL     1      30.282  18.190   7.014  1.00  0.00     0.141 A
ATOM      9  H4  UNL     1      32.106  19.078   7.181  1.00  0.00     0.184 HD
BRANCH   3  10
HETATM   10  N1  UNL     1      27.183  19.744   8.300  1.00  0.00    -0.312 N
HETATM   11  C2  UNL     1      26.611  20.990   8.617  1.00  0.00     0.219 C
HETATM   12  C1  UNL     1      25.096  21.063   8.813  1.00  0.00     0.117 C
HETATM   13  O1  UNL     1      27.164  22.085   8.769  1.00  0.00    -0.274 OA
ATOM     14  H1  UNL     1      26.559  18.937   8.254  1.00  0.00     0.170 HD
ENDBRANCH   3  10
BRANCH   5  15
HETATM   15  N3  UNL     1      31.613  21.198   8.425  1.00  0.00    -0.234 N
ATOM     16  H32 UNL     1      31.483  22.191   8.237  1.00  0.00     0.174 HD
ATOM     17  H31 UNL     1      32.457  20.930   8.931  1.00  0.00     0.174 HD
ENDBRANCH   5  15
BRANCH   8  18
HETATM   18  C6  UNL     1      30.797  17.087   6.269  1.00  0.00     0.228 C
HETATM   19  O2  UNL     1      31.102  16.936   5.101  1.00  0.00    -0.643 OA
HETATM   20  O3  UNL     1      31.006  15.893   7.046  1.00  0.00    -0.643 OA
ENDBRANCH   8  18
ENDBRANCH   1   2
BRANCH   1  21
HETATM   21  N5  UNL     1      28.068  16.142   7.844  1.00  0.00    -0.304 N
ATOM     22  H5  UNL     1      28.932  15.897   8.326  1.00  0.00     0.186 HD
BRANCH  21  23
HETATM   23  N6  UNL     1      26.953  15.349   7.886  1.00  0.00    -0.345 N
ATOM     24  H62 UNL     1      27.020  14.337   7.992  1.00  0.00     0.176 HD
ATOM     25  H61 UNL     1      26.066  15.845   7.804  1.00  0.00     0.176 HD
ENDBRANCH  21  23
ENDBRANCH   1  21
BRANCH   1  26
HETATM   26  C9  UNL     1      27.508  17.197   5.680  1.00  0.00     0.115 A
HETATM   27  N7  UNL     1      28.022  16.356   4.761  1.00  0.00    -0.281 N
HETATM   28  N8  UNL     1      27.419  16.477   3.593  1.00  0.00    -0.239 N
ATOM     29  H7  UNL     1      28.785  15.705   4.946  1.00  0.00     0.188 HD
HETATM   30  N9  UNL     1      26.485  17.425   3.756  1.00  0.00    -0.267 N
ATOM     31  H8  UNL     1      27.623  15.955   2.740  1.00  0.00     0.208 HD
HETATM   32  C10 UNL     1      26.526  17.875   5.022  1.00  0.00     0.134 A
HETATM   33  C15 UNL     1      25.484  18.007   2.887  1.00  0.00     0.167 C
HETATM   34  S1  UNL     1      25.348  19.203   5.442  1.00  0.00    -0.017 SA
HETATM   35  N10 UNL     1      25.325  20.228   3.993  1.00  0.00    -0.222 NA
HETATM   36  C14 UNL     1      25.646  19.479   2.821  1.00  0.00     0.128 C
BRANCH  35  37
HETATM   37  C11 UNL     1      24.149  20.999   3.839  1.00  0.00     0.236 C
BRANCH  37  38
HETATM   38  O4  UNL     1      24.279  21.954   2.801  1.00  0.00    -0.378 OA
ATOM     39  H4  UNL     1      24.142  21.564   1.946  1.00  0.00     0.211 HD
ENDBRANCH  37  38
BRANCH  37  40
HETATM   40  C12 UNL     1      23.644  21.653   5.090  1.00  0.00     0.250 C
BRANCH  40  41
HETATM   41  N11 UNL     1      24.284  22.934   5.356  1.00  0.00    -0.069 N
ATOM     42 3H11 UNL     1      25.218  22.967   4.948  1.00  0.00     0.275 HD
ATOM     43 2H11 UNL     1      23.842  23.681   4.820  1.00  0.00     0.275 HD
ATOM     44 1H11 UNL     1      24.311  23.165   6.349  1.00  0.00     0.275 HD
ENDBRANCH  40  41
BRANCH  40  45
HETATM   45  C13 UNL     1      22.152  21.968   4.987  1.00  0.00     0.200 C
BRANCH  45  46
HETATM   46  O5  UNL     1      21.534  21.044   4.164  1.00  0.00    -0.399 OA
ATOM     47  H5  UNL     1      20.762  21.432   3.768  1.00  0.00     0.209 HD
ENDBRANCH  45  46
ENDBRANCH  40  45
ENDBRANCH  37  40
ENDBRANCH  35  37
ENDBRANCH   1  26
TORSDOF 13
ENDMDL