MODEL 3
REMARK VINA RESULT: -6.938097449      1.805      8.497
REMARK  13 active torsions:
REMARK  status: ('A' for Active; 'I' for Inactive)
REMARK    1  A    between atoms: C2_2  and  O2_4
REMARK    2  A    between atoms: O2_4  and  C3_5
REMARK    3  A    between atoms: C4_6  and  N1_7
REMARK    4  A    between atoms: C6_14  and  N3_15
REMARK    5  A    between atoms: N3_15  and  C7_17
REMARK    6  A    between atoms: C7_17  and  O3_18
REMARK    7  A    between atoms: N5_22  and  C8_23
REMARK    8  A    between atoms: C9_24  and  C10_25
REMARK    9  A    between atoms: C10_25  and  O4_26
REMARK   10  A    between atoms: O4_26  and  N6_27
REMARK   11  A    between atoms: N6_27  and  N7_28
REMARK   12  A    between atoms: N7_28  and  C11_30
REMARK   13  A    between atoms: C14_39  and  N11_40
ROOT
HETATM    1  O4  UNL     1      26.423  17.697   4.058  1.00  0.00    -0.187 OA
ENDROOT
BRANCH   1   2
HETATM    2  C10 UNL     1      25.731  18.428   2.999  1.00  0.00     0.248 C
BRANCH   2   3
HETATM    3  C9  UNL     1      24.789  19.179   4.008  1.00  0.00     0.016 C
HETATM    4  C8  UNL     1      24.323  20.441   3.655  1.00  0.00     0.084 C
BRANCH   4   5
HETATM    5  N5  UNL     1      23.366  20.840   4.682  1.00  0.00    -0.161 NA
HETATM    6  C3  UNL     1      23.691  22.154   5.146  1.00  0.00     0.262 C
HETATM    7  C4  UNL     1      23.609  23.153   3.955  1.00  0.00     0.247 C
HETATM    8  C5  UNL     1      22.316  24.001   4.241  1.00  0.00     0.175 C
HETATM    9  N2  UNL     1      21.204  23.067   4.050  1.00  0.00    -0.223 N
HETATM   10  C6  UNL     1      21.071  21.799   4.014  1.00  0.00     0.690 C
ATOM     11  H2  UNL     1      20.316  23.551   3.913  1.00  0.00     0.177 HD
HETATM   12  N4  UNL     1      22.052  20.791   4.178  1.00  0.00    -0.146 N
ATOM     13  H4  UNL     1      21.754  19.864   3.878  1.00  0.00     0.200 HD
BRANCH   6  14
HETATM   14  O2  UNL     1      25.087  22.159   5.523  1.00  0.00    -0.297 OA
BRANCH  14  15
HETATM   15  C2  UNL     1      25.294  21.745   6.874  1.00  0.00     0.256 C
HETATM   16  C1  UNL     1      25.452  23.061   7.825  1.00  0.00     0.126 C
HETATM   17  O1  UNL     1      25.360  20.700   7.328  1.00  0.00    -0.266 OA
ENDBRANCH  14  15
ENDBRANCH   6  14
BRANCH   7  18
HETATM   18  N1  UNL     1      24.796  23.886   3.815  1.00  0.00    -0.070 N
ATOM     19  H13 UNL     1      25.506  23.577   4.479  1.00  0.00     0.275 HD
ATOM     20  H12 UNL     1      25.278  23.654   2.947  1.00  0.00     0.275 HD
ATOM     21  H11 UNL     1      24.626  24.890   3.891  1.00  0.00     0.275 HD
ENDBRANCH   7  18
BRANCH  10  22
HETATM   22  N3  UNL     1      19.754  21.424   3.805  1.00  0.00    -0.181 N
ATOM     23  H3  UNL     1      19.464  21.178   2.858  1.00  0.00     0.185 HD
BRANCH  22  24
HETATM   24  C7  UNL     1      18.795  21.365   4.835  1.00  0.00     0.240 C
BRANCH  24  25
HETATM   25  O3  UNL     1      19.326  20.607   5.918  1.00  0.00    -0.356 OA
ATOM     26  H3  UNL     1      19.616  21.203   6.599  1.00  0.00     0.218 HD
ENDBRANCH  24  25
ENDBRANCH  22  24
ENDBRANCH  10  22
ENDBRANCH   4   5
ENDBRANCH   2   3
ENDBRANCH   1   2
BRANCH   1  27
HETATM   27  N6  UNL     1      26.891  18.314   5.155  1.00  0.00    -0.187 NA
BRANCH  27  28
HETATM   28  N7  UNL     1      27.422  18.594   5.948  1.00  0.00    -0.205 N
ATOM     29  H7  UNL     1      27.590  19.594   5.835  1.00  0.00     0.204 HD
BRANCH  28  30
HETATM   30  C11 UNL     1      28.056  18.226   7.173  1.00  0.00     0.114 A
HETATM   31  C12 UNL     1      27.921  18.700   8.355  1.00  0.00     0.085 A
HETATM   32  C13 UNL     1      28.594  18.147   9.545  1.00  0.00     0.116 A
HETATM   33  N8  UNL     1      28.380  18.724  10.603  1.00  0.00    -0.384 N
HETATM   34  N9  UNL     1      29.384  17.100   9.278  1.00  0.00    -0.263 N
ATOM     35  H82 UNL     1      27.778  19.522  10.807  1.00  0.00     0.157 HD
ATOM     36  H81 UNL     1      28.847  18.341  11.426  1.00  0.00     0.157 HD
HETATM   37  N10 UNL     1      29.491  16.690   7.965  1.00  0.00    -0.065 N
ATOM     38  H9  UNL     1      29.890  16.620  10.022  1.00  0.00     0.190 HD
HETATM   39  C14 UNL     1      30.726  15.928   7.806  1.00  0.00     0.713 A
HETATM   40  C16 UNL     1      28.952  17.066   6.928  1.00  0.00     0.190 A
HETATM   41  N12 UNL     1      31.019  15.755   6.453  1.00  0.00    -0.021 N
HETATM   42  C15 UNL     1      30.454  16.153   5.410  1.00  0.00     0.692 A
ATOM     43  H12 UNL     1      31.854  15.196   6.281  1.00  0.00     0.203 HD
HETATM   44  N13 UNL     1      31.027  16.202   4.174  1.00  0.00    -0.234 N
HETATM   45  N14 UNL     1      29.277  16.884   5.644  1.00  0.00    -0.172 N
ATOM     46 2H13 UNL     1      31.881  15.671   4.004  1.00  0.00     0.174 HD
ATOM     47 1H13 UNL     1      30.566  16.526   3.324  1.00  0.00     0.174 HD
ATOM     48  H14 UNL     1      28.707  17.253   4.883  1.00  0.00     0.186 HD
BRANCH  39  49
HETATM   49  N11 UNL     1      31.364  15.613   8.873  1.00  0.00    -0.232 N
ATOM     50 2H11 UNL     1      32.105  16.083   9.392  1.00  0.00     0.174 HD
ATOM     51 1H11 UNL     1      31.067  14.769   9.364  1.00  0.00     0.174 HD
ENDBRANCH  39  49
ENDBRANCH  28  30
ENDBRANCH  27  28
ENDBRANCH   1  27
TORSDOF 13
ENDMDL