MODEL 4
REMARK VINA RESULT: -6.707855601      3.693      7.128
REMARK  11 active torsions:
REMARK  status: ('A' for Active; 'I' for Inactive)
REMARK    1  A    between atoms: N1_1  and  C1_4
REMARK    2  A    between atoms: N4_12  and  C5_13
REMARK    3  A    between atoms: C5_13  and  C6_14
REMARK    4  A    between atoms: C6_14  and  C7_15
REMARK    5  A    between atoms: C6_14  and  N6_21
REMARK    6  A    between atoms: C7_15  and  S1_16
REMARK    7  A    between atoms: S1_16  and  C8_17
REMARK    8  A    between atoms: C8_17  and  C9_18
REMARK    9  A    between atoms: N6_21  and  C10_22
REMARK   10  A    between atoms: N9_27  and  N10_28
REMARK   11  A    between atoms: C15_38  and  N14_39
ROOT
HETATM    1  C1  UNL     1      27.461  16.651  -0.138  1.00  0.00     0.693 A
HETATM    2  N2  UNL     1      26.900  17.832   0.211  1.00  0.00    -0.171 N
ATOM      3  H2  UNL     1      26.631  18.568  -0.441  1.00  0.00     0.186 HD
HETATM    4  C2  UNL     1      26.747  17.891   1.547  1.00  0.00     0.191 A
HETATM    5  C3  UNL     1      26.252  18.805   2.453  1.00  0.00     0.126 A
HETATM    6  N3  UNL     1      25.711  20.027   2.270  1.00  0.00    -0.346 N
ATOM      7  H3  UNL     1      25.587  20.492   1.370  1.00  0.00     0.167 HD
HETATM    8  C4  UNL     1      25.364  20.535   3.465  1.00  0.00     0.185 A
HETATM    9  N4  UNL     1      25.676  19.643   4.452  1.00  0.00    -0.324 N
HETATM   10  C14 UNL     1      26.219  18.589   3.816  1.00  0.00     0.155 A
HETATM   11  N13 UNL     1      26.710  17.397   4.248  1.00  0.00    -0.172 N
ATOM     12  H13 UNL     1      26.713  17.179   5.245  1.00  0.00     0.186 HD
HETATM   13  C15 UNL     1      27.194  16.503   3.368  1.00  0.00     0.701 A
HETATM   14  N15 UNL     1      27.218  16.732   2.037  1.00  0.00    -0.053 N
HETATM   15  N16 UNL     1      27.644  15.993   1.021  1.00  0.00    -0.109 N
ATOM     16  H16 UNL     1      28.052  15.061   1.106  1.00  0.00     0.207 HD
ENDROOT
BRANCH   9  17
HETATM   17  C5  UNL     1      25.461  19.864   5.859  1.00  0.00     0.171 C
BRANCH  17  18
HETATM   18  C6  UNL     1      26.732  20.244   6.594  1.00  0.00     0.191 C
BRANCH  18  19
HETATM   19  C7  UNL     1      27.342  21.521   5.992  1.00  0.00     0.115 C
BRANCH  19  20
HETATM   20  S1  UNL     1      26.269  22.870   6.597  1.00  0.00    -0.157 SA
BRANCH  20  21
HETATM   21  C8  UNL     1      25.765  23.959   5.266  1.00  0.00     0.173 C
BRANCH  21  22
HETATM   22  C9  UNL     1      24.426  23.670   4.721  1.00  0.00     0.240 C
HETATM   23  N5  UNL     1      23.945  24.036   3.452  1.00  0.00    -0.061 NA
HETATM   24  O1  UNL     1      23.645  23.028   5.491  1.00  0.00    -0.276 OA
ENDBRANCH  21  22
ENDBRANCH  20  21
ENDBRANCH  19  20
ENDBRANCH  18  19
BRANCH  18  25
HETATM   25  N6  UNL     1      27.644  19.280   6.688  1.00  0.00    -0.435 NA
BRANCH  25  26
HETATM   26  C10 UNL     1      28.393  18.379   6.951  1.00  0.00     0.170 A
HETATM   27  C11 UNL     1      27.958  17.060   7.219  1.00  0.00     0.175 A
HETATM   28  N7  UNL     1      26.566  16.791   7.175  1.00  0.00    -0.077 NA
HETATM   29  N8  UNL     1      28.799  16.066   7.509  1.00  0.00    -0.263 N
HETATM   30  N9  UNL     1      30.101  16.236   7.569  1.00  0.00    -0.186 N
ATOM     31  H8  UNL     1      28.417  15.138   7.691  1.00  0.00     0.190 HD
HETATM   32  C12 UNL     1      30.589  17.459   7.327  1.00  0.00     0.183 A
HETATM   33  N11 UNL     1      31.993  17.621   7.397  1.00  0.00    -0.077 NA
HETATM   34  C13 UNL     1      29.785  18.538   7.020  1.00  0.00     0.134 A
HETATM   35  N12 UNL     1      30.371  19.813   6.775  1.00  0.00    -0.095 NA
BRANCH  30  36
HETATM   36  N10 UNL     1      30.947  15.182   7.873  1.00  0.00    -0.323 N
ATOM     37 2H10 UNL     1      30.722  14.230   7.581  1.00  0.00     0.179 HD
ATOM     38 1H10 UNL     1      31.811  15.332   8.394  1.00  0.00     0.179 HD
ENDBRANCH  30  36
ENDBRANCH  25  26
ENDBRANCH  18  25
ENDBRANCH  17  18
ENDBRANCH   9  17
BRANCH  13  39
HETATM   39  N14 UNL     1      27.658  15.369   3.810  1.00  0.00    -0.233 N
ATOM     40 2H14 UNL     1      27.242  14.969   4.652  1.00  0.00     0.174 HD
ATOM     41 1H14 UNL     1      28.419  14.916   3.306  1.00  0.00     0.174 HD
ENDBRANCH  13  39
BRANCH   1  42
HETATM   42  N1  UNL     1      27.753  16.255  -1.350  1.00  0.00    -0.233 N
ATOM     43  H12 UNL     1      27.159  15.756  -2.013  1.00  0.00     0.174 HD
ATOM     44  H11 UNL     1      28.641  16.385  -1.834  1.00  0.00     0.174 HD
ENDBRANCH   1  42
TORSDOF 11
ENDMDL