MODEL 1
REMARK VINA RESULT: -6.882556898      0.000      0.000
REMARK  15 active torsions:
REMARK  status: ('A' for Active; 'I' for Inactive)
REMARK    1  A    between atoms: C2_2  and  N1_3
REMARK    2  A    between atoms: C2_2  and  C11_31
REMARK    3  A    between atoms: N1_3  and  C3_6
REMARK    4  A    between atoms: C3_6  and  C4_7
REMARK    5  A    between atoms: C6_11  and  N3_12
REMARK    6  A    between atoms: C7_17  and  N5_18
REMARK    7  A    between atoms: C11_31  and  N13_44
REMARK    8  A    between atoms: N10_32  and  O1_34
REMARK    9  A    between atoms: O1_34  and  S1_35
REMARK   10  A    between atoms: S1_35  and  N11_37
REMARK   11  A    between atoms: S1_35  and  O4_41
REMARK   12  A    between atoms: N11_37  and  O3_39
REMARK   13  A    between atoms: N13_44  and  C13_46
REMARK   14  A    between atoms: C13_46  and  N14_47
REMARK   15  A    between atoms: C13_46  and  O5_51
ROOT
HETATM    1  O4  UNL     1      31.347  17.317   5.663  1.00  0.00    -0.147 OA
HETATM    2  C12 UNL     1      31.350  16.411   4.664  1.00  0.00     0.245 C
HETATM    3  N12 UNL     1      31.343  15.643   3.796  1.00  0.00    -0.163 NA
ENDROOT
BRANCH   1   4
HETATM    4  S1  UNL     1      30.264  17.332   6.950  1.00  0.00     0.332 S
HETATM    5  O2  UNL     1      28.874  17.399   6.383  1.00  0.00    -0.186 OA
BRANCH   4   6
HETATM    6  O1  UNL     1      30.514  18.649   7.992  1.00  0.00    -0.142 OA
BRANCH   6   7
HETATM    7  N10 UNL     1      29.954  19.866   7.830  1.00  0.00    -0.234 N
HETATM    8  C11 UNL     1      29.208  20.456   8.696  1.00  0.00     0.132 C
ATOM      9  H10 UNL     1      30.137  20.356   6.954  1.00  0.00     0.197 HD
BRANCH   8  10
HETATM   10  C2  UNL     1      28.607  21.794   8.491  1.00  0.00     0.251 C
HETATM   11  C1  UNL     1      29.500  22.547   7.527  1.00  0.00     0.048 C
BRANCH  10  12
HETATM   12  N1  UNL     1      27.230  21.714   8.011  1.00  0.00    -0.059 N
ATOM     13  H12 UNL     1      26.787  20.818   8.216  1.00  0.00     0.278 HD
ATOM     14  H11 UNL     1      26.588  22.303   8.540  1.00  0.00     0.278 HD
BRANCH  12  15
HETATM   15  C3  UNL     1      27.250  22.021   6.618  1.00  0.00     0.294 C
BRANCH  15  16
HETATM   16  C4  UNL     1      26.665  20.976   5.754  1.00  0.00     0.082 A
HETATM   17  N2  UNL     1      26.488  19.701   6.117  1.00  0.00    -0.349 N
HETATM   18  C5  UNL     1      25.932  18.845   5.209  1.00  0.00     0.124 A
ATOM     19  H2  UNL     1      26.759  19.377   7.045  1.00  0.00     0.166 HD
HETATM   20  C6  UNL     1      25.720  17.522   5.513  1.00  0.00     0.145 A
HETATM   21  C8  UNL     1      25.560  19.268   3.949  1.00  0.00     0.175 A
HETATM   22  N4  UNL     1      25.167  16.710   4.584  1.00  0.00    -0.175 N
HETATM   23  C7  UNL     1      24.807  17.127   3.363  1.00  0.00     0.679 A
ATOM     24  H4  UNL     1      25.016  15.730   4.825  1.00  0.00     0.186 HD
HETATM   25  N6  UNL     1      25.009  18.423   3.047  1.00  0.00    -0.172 N
ATOM     26  H6  UNL     1      24.745  18.767   2.123  1.00  0.00     0.186 HD
HETATM   27  N7  UNL     1      25.741  20.549   3.589  1.00  0.00    -0.218 N
HETATM   28  N8  UNL     1      25.469  21.190   2.452  1.00  0.00    -0.286 N
HETATM   29  C10 UNL     1      26.282  21.383   4.475  1.00  0.00     0.154 A
HETATM   30  C9  UNL     1      25.840  22.455   2.607  1.00  0.00     0.199 A
ATOM     31  H8  UNL     1      25.052  20.783   1.615  1.00  0.00     0.188 HD
HETATM   32  N9  UNL     1      26.340  22.583   3.843  1.00  0.00    -0.334 N
ATOM     33  H9  UNL     1      26.706  23.445   4.246  1.00  0.00     0.168 HD
BRANCH  20  34
HETATM   34  N3  UNL     1      26.041  17.057   6.663  1.00  0.00    -0.383 N
ATOM     35  H32 UNL     1      25.523  17.346   7.493  1.00  0.00     0.157 HD
ATOM     36  H31 UNL     1      26.812  16.398   6.760  1.00  0.00     0.157 HD
ENDBRANCH  20  34
BRANCH  23  37
HETATM   37  N5  UNL     1      24.280  16.379   2.463  1.00  0.00    -0.234 N
ATOM     38  H52 UNL     1      24.559  15.398   2.452  1.00  0.00     0.174 HD
ATOM     39  H51 UNL     1      23.608  16.697   1.766  1.00  0.00     0.174 HD
ENDBRANCH  23  37
ENDBRANCH  15  16
ENDBRANCH  12  15
ENDBRANCH  10  12
ENDBRANCH   8  10
BRANCH   8  40
HETATM   40  N13 UNL     1      28.947  19.784   9.918  1.00  0.00    -0.328 N
ATOM     41  H13 UNL     1      29.453  20.056  10.761  1.00  0.00     0.165 HD
BRANCH  40  42
HETATM   42  C13 UNL     1      27.980  18.726   9.984  1.00  0.00     0.424 C
BRANCH  42  43
HETATM   43  N14 UNL     1      28.594  17.444  10.306  1.00  0.00    -0.035 N
ATOM     44 3H14 UNL     1      29.532  17.568  10.689  1.00  0.00     0.279 HD
ATOM     45 2H14 UNL     1      28.147  17.013  11.114  1.00  0.00     0.279 HD
ATOM     46 1H14 UNL     1      28.602  16.813   9.506  1.00  0.00     0.279 HD
ENDBRANCH  42  43
BRANCH  42  47
HETATM   47  O5  UNL     1      27.390  18.566   8.717  1.00  0.00    -0.355 OA
ATOM     48  H5  UNL     1      26.671  19.180   8.632  1.00  0.00     0.213 HD
ENDBRANCH  42  47
ENDBRANCH  40  42
ENDBRANCH   8  40
ENDBRANCH   6   7
ENDBRANCH   4   6
BRANCH   4  49
HETATM   49  N11 UNL     1      30.376  15.956   7.708  1.00  0.00    -0.181 N
ATOM     50  H11 UNL     1      29.595  15.303   7.765  1.00  0.00     0.208 HD
BRANCH  49  51
HETATM   51  O3  UNL     1      31.604  15.691   8.294  1.00  0.00    -0.279 OA
ATOM     52  H3  UNL     1      32.268  15.335   7.715  1.00  0.00     0.245 HD
ENDBRANCH  49  51
ENDBRANCH   4  49
ENDBRANCH   1   4
TORSDOF 15
ENDMDL