MODEL 4
REMARK VINA RESULT: -5.934073798      3.057      5.685
REMARK  14 active torsions:
REMARK  status: ('A' for Active; 'I' for Inactive)
REMARK    1  A    between atoms: N1_2  and  C2_4
REMARK    2  A    between atoms: C3_5  and  O1_6
REMARK    3  A    between atoms: O1_6  and  C4_7
REMARK    4  A    between atoms: C5_9  and  S1_10
REMARK    5  A    between atoms: S1_10  and  C6_11
REMARK    6  A    between atoms: C7_15  and  N3_16
REMARK    7  A    between atoms: C8_20  and  O3_21
REMARK    8  A    between atoms: C9_23  and  O4_24
REMARK    9  A    between atoms: C10_30  and  C11_31
REMARK   10  A    between atoms: C11_31  and  S2_32
REMARK   11  A    between atoms: S2_32  and  C12_33
REMARK   12  A    between atoms: C13_36  and  N8_37
REMARK   13  A    between atoms: C14_41  and  O5_42
REMARK   14  A    between atoms: C15_44  and  O6_45
ROOT
HETATM    1  C2  UNL     1      25.566  18.212   3.049  1.00  0.00     0.157 C
HETATM    2  C3  UNL     1      25.110  19.463   3.794  1.00  0.00     0.263 C
HETATM    3  N4  UNL     1      26.120  19.808   4.721  1.00  0.00    -0.309 N
ATOM      4  H4  UNL     1      26.322  20.793   4.889  1.00  0.00     0.182 HD
HETATM    5  N5  UNL     1      26.757  18.961   5.325  1.00  0.00    -0.330 N
ATOM      6  H5  UNL     1      27.467  19.298   5.975  1.00  0.00     0.180 HD
HETATM    7  C10 UNL     1      26.609  17.542   5.215  1.00  0.00     0.139 C
HETATM    8  C15 UNL     1      25.622  17.135   4.142  1.00  0.00     0.169 C
ENDROOT
BRANCH   2   9
HETATM    9  O1  UNL     1      24.708  20.460   2.950  1.00  0.00    -0.331 OA
BRANCH   9  10
HETATM   10  C4  UNL     1      24.588  21.670   3.575  1.00  0.00     0.295 C
HETATM   11  O2  UNL     1      23.299  22.175   3.422  1.00  0.00    -0.340 OA
HETATM   12  C5  UNL     1      23.002  23.192   4.295  1.00  0.00     0.224 C
HETATM   13  C7  UNL     1      24.048  24.225   4.504  1.00  0.00     0.253 C
HETATM   14  C8  UNL     1      25.430  23.877   4.079  1.00  0.00     0.185 C
HETATM   15  C9  UNL     1      25.498  22.757   3.047  1.00  0.00     0.204 C
BRANCH  12  16
HETATM   16  S1  UNL     1      22.371  22.538   5.888  1.00  0.00    -0.091 SA
BRANCH  16  17
HETATM   17  C6  UNL     1      20.702  21.987   5.596  1.00  0.00     0.129 C
HETATM   18  N2  UNL     1      20.410  21.227   4.618  1.00  0.00    -0.403 N
ATOM     19  H22 UNL     1      21.163  20.935   3.995  1.00  0.00     0.155 HD
ATOM     20  H21 UNL     1      19.455  20.911   4.451  1.00  0.00     0.155 HD
ENDBRANCH  16  17
ENDBRANCH  12  16
BRANCH  13  21
HETATM   21  N3  UNL     1      23.632  25.541   3.992  1.00  0.00    -0.069 N
ATOM     22  H33 UNL     1      22.615  25.614   3.943  1.00  0.00     0.275 HD
ATOM     23  H32 UNL     1      23.813  26.278   4.674  1.00  0.00     0.275 HD
ATOM     24  H31 UNL     1      24.062  25.753   3.092  1.00  0.00     0.275 HD
ENDBRANCH  13  21
BRANCH  14  25
HETATM   25  O3  UNL     1      26.082  25.016   3.633  1.00  0.00    -0.391 OA
ATOM     26  H3  UNL     1      26.956  24.789   3.336  1.00  0.00     0.210 HD
ENDBRANCH  14  25
BRANCH  15  27
HETATM   27  O4  UNL     1      26.824  22.343   2.971  1.00  0.00    -0.388 OA
ATOM     28  H4  UNL     1      27.177  22.427   2.093  1.00  0.00     0.210 HD
ENDBRANCH  15  27
ENDBRANCH   9  10
ENDBRANCH   2   9
BRANCH   1  29
HETATM   29  N1  UNL     1      26.873  18.332   2.507  1.00  0.00    -0.415 N
HETATM   30  C1  UNL     1      27.295  17.296   1.627  1.00  0.00     0.140 C
ATOM     31  H1  UNL     1      27.478  19.121   2.737  1.00  0.00     0.153 HD
ENDBRANCH   1  29
BRANCH   8  32
HETATM   32  O6  UNL     1      24.362  17.120   4.740  1.00  0.00    -0.391 OA
ATOM     33  H6  UNL     1      24.375  17.800   5.403  1.00  0.00     0.210 HD
ENDBRANCH   8  32
BRANCH   7  34
HETATM   34  C11 UNL     1      26.203  17.031   6.572  1.00  0.00     0.105 C
BRANCH  34  35
HETATM   35  S2  UNL     1      27.575  17.063   7.739  1.00  0.00    -0.141 SA
BRANCH  35  36
HETATM   36  C12 UNL     1      29.112  17.281   6.869  1.00  0.00     0.188 C
HETATM   37  N6  UNL     1      29.577  18.618   6.726  1.00  0.00    -0.128 NA
HETATM   38  N7  UNL     1      30.950  18.585   6.506  1.00  0.00    -0.111 NA
HETATM   39  C13 UNL     1      31.430  17.254   6.767  1.00  0.00     0.322 C
HETATM   40  C14 UNL     1      30.299  16.640   7.602  1.00  0.00     0.196 C
BRANCH  39  41
HETATM   41  N8  UNL     1      32.693  17.223   7.438  1.00  0.00    -0.058 N
ATOM     42  H83 UNL     1      33.222  16.393   7.171  1.00  0.00     0.276 HD
ATOM     43  H82 UNL     1      33.313  17.945   7.073  1.00  0.00     0.276 HD
ATOM     44  H81 UNL     1      32.617  17.291   8.453  1.00  0.00     0.276 HD
ENDBRANCH  39  41
BRANCH  40  45
HETATM   45  O5  UNL     1      30.276  15.266   7.531  1.00  0.00    -0.390 OA
ATOM     46  H5  UNL     1      30.818  14.933   6.826  1.00  0.00     0.210 HD
ENDBRANCH  40  45
ENDBRANCH  35  36
ENDBRANCH  34  35
ENDBRANCH   7  34
TORSDOF 14
ENDMDL