MODEL 2
REMARK VINA RESULT: -7.282479845      1.057      2.064
REMARK  13 active torsions:
REMARK  status: ('A' for Active; 'I' for Inactive)
REMARK    1  A    between atoms: N2_3  and  C2_5
REMARK    2  A    between atoms: C2_5  and  C3_6
REMARK    3  A    between atoms: C2_5  and  C17_45
REMARK    4  A    between atoms: N5_11  and  C4_12
REMARK    5  A    between atoms: C4_12  and  C5_13
REMARK       I    between atoms: C5_13  and  N6_15
REMARK    6  A    between atoms: N6_15  and  C6_17
REMARK    7  A    between atoms: C11_22  and  O2_23
REMARK    8  A    between atoms: C12_25  and  N7_26
REMARK    9  A    between atoms: C14_32  and  N10_33
REMARK   10  A    between atoms: C15_38  and  N12_39
REMARK   11  A    between atoms: C17_45  and  O3_46
REMARK   12  A    between atoms: C17_45  and  C18_48
REMARK   13  A    between atoms: C18_48  and  O4_49
ROOT
HETATM    1  N1  UNL     1      32.137  20.378   8.594  1.00  0.00    -0.172 NA
HETATM    2  C1  UNL     1      31.365  19.865   7.868  1.00  0.00     0.178 C
HETATM    3  N2  UNL     1      30.434  19.278   7.000  1.00  0.00    -0.316 N
ATOM      4  H2  UNL     1      30.051  19.799   6.212  1.00  0.00     0.172 HD
ENDROOT
BRANCH   3   5
HETATM    5  C2  UNL     1      30.034  17.924   7.250  1.00  0.00     0.178 C
BRANCH   5   6
HETATM    6  C3  UNL     1      28.871  17.425   6.536  1.00  0.00     0.100 A
HETATM    7  N3  UNL     1      28.880  16.516   5.515  1.00  0.00    -0.284 N
HETATM    8  N4  UNL     1      27.646  16.276   5.118  1.00  0.00    -0.238 N
ATOM      9  H3  UNL     1      29.717  16.088   5.120  1.00  0.00     0.188 HD
HETATM   10  N5  UNL     1      26.790  16.997   5.842  1.00  0.00    -0.250 N
ATOM     11  H4  UNL     1      27.385  15.634   4.369  1.00  0.00     0.208 HD
HETATM   12  C12 UNL     1      27.542  17.720   6.731  1.00  0.00     0.175 A
BRANCH  10  13
HETATM   13  C4  UNL     1      25.362  17.058   5.762  1.00  0.00     0.255 C
BRANCH  13  14
HETATM   14  C5  UNL     1      24.962  18.148   4.812  1.00  0.00     0.242 C
HETATM   15  O1  UNL     1      23.925  17.957   4.170  1.00  0.00    -0.271 OA
HETATM   16  N6  UNL     1      25.784  19.291   4.722  1.00  0.00    -0.323 N
ATOM     17  H6  UNL     1      26.607  19.289   5.325  1.00  0.00     0.169 HD
BRANCH  16  18
HETATM   18  C6  UNL     1      25.626  20.425   3.920  1.00  0.00     0.068 A
HETATM   19  C7  UNL     1      25.514  20.350   2.539  1.00  0.00     0.032 A
HETATM   20  C8  UNL     1      25.363  21.502   1.808  1.00  0.00     0.002 A
HETATM   21  C9  UNL     1      25.319  22.734   2.410  1.00  0.00     0.003 A
HETATM   22  C10 UNL     1      25.427  22.830   3.754  1.00  0.00     0.039 A
HETATM   23  C11 UNL     1      25.581  21.687   4.523  1.00  0.00     0.092 A
BRANCH  23  24
HETATM   24  O2  UNL     1      25.683  21.840   5.863  1.00  0.00    -0.358 OA
ATOM     25  H2  UNL     1      26.313  21.348   6.376  1.00  0.00     0.217 HD
ENDBRANCH  23  24
ENDBRANCH  16  18
ENDBRANCH  13  14
ENDBRANCH  10  13
BRANCH  12  26
HETATM   26  N7  UNL     1      27.049  18.622   7.709  1.00  0.00    -0.203 N
HETATM   27  N8  UNL     1      26.741  19.902   7.600  1.00  0.00    -0.232 N
HETATM   28  N9  UNL     1      26.309  20.398   8.723  1.00  0.00    -0.279 N
ATOM     29  H8  UNL     1      26.830  20.439   6.737  1.00  0.00     0.209 HD
HETATM   30  C13 UNL     1      26.321  19.414   9.650  1.00  0.00     0.140 A
ATOM     31  H9  UNL     1      26.014  21.362   8.878  1.00  0.00     0.189 HD
HETATM   32  C14 UNL     1      25.971  19.398  10.970  1.00  0.00     0.147 A
HETATM   33  C16 UNL     1      26.799  18.280   8.980  1.00  0.00     0.177 A
HETATM   34  N11 UNL     1      26.098  18.238  11.634  1.00  0.00    -0.175 N
HETATM   35  C15 UNL     1      26.560  17.113  11.018  1.00  0.00     0.679 A
ATOM     36  H11 UNL     1      25.843  18.197  12.621  1.00  0.00     0.186 HD
HETATM   37  N13 UNL     1      26.894  17.171   9.719  1.00  0.00    -0.172 N
ATOM     38  H13 UNL     1      27.239  16.321   9.272  1.00  0.00     0.186 HD
BRANCH  32  39
HETATM   39  N10 UNL     1      25.539  20.479  11.514  1.00  0.00    -0.383 N
ATOM     40 2H10 UNL     1      26.125  21.299  11.670  1.00  0.00     0.157 HD
ATOM     41 1H10 UNL     1      24.564  20.529  11.808  1.00  0.00     0.157 HD
ENDBRANCH  32  39
BRANCH  35  42
HETATM   42  N12 UNL     1      26.685  15.991  11.652  1.00  0.00    -0.234 N
ATOM     43 2H12 UNL     1      26.044  15.779  12.417  1.00  0.00     0.174 HD
ATOM     44 1H12 UNL     1      27.407  15.314  11.407  1.00  0.00     0.174 HD
ENDBRANCH  35  42
ENDBRANCH  12  26
ENDBRANCH   5   6
BRANCH   5  45
HETATM   45  C17 UNL     1      31.257  17.041   7.162  1.00  0.00     0.171 C
BRANCH  45  46
HETATM   46  O3  UNL     1      31.632  16.941   5.786  1.00  0.00    -0.391 OA
ATOM     47  H3  UNL     1      31.905  17.802   5.490  1.00  0.00     0.210 HD
ENDBRANCH  45  46
BRANCH  45  48
HETATM   48  C18 UNL     1      31.022  15.636   7.676  1.00  0.00     0.198 C
BRANCH  48  49
HETATM   49  O4  UNL     1      31.456  15.404   8.957  1.00  0.00    -0.398 OA
ATOM     50  H4  UNL     1      32.194  14.811   9.032  1.00  0.00     0.209 HD
ENDBRANCH  48  49
ENDBRANCH  45  48
ENDBRANCH   5  45
ENDBRANCH   3   5
TORSDOF 13
ENDMDL