MODEL 2
REMARK VINA RESULT: -6.729931080      2.825      5.904
REMARK  15 active torsions:
REMARK  status: ('A' for Active; 'I' for Inactive)
REMARK    1  A    between atoms: N4_12  and  O2_13
REMARK    2  A    between atoms: C7_15  and  C8_16
REMARK    3  A    between atoms: C8_16  and  N5_17
REMARK    4  A    between atoms: C8_16  and  C13_34
REMARK    5  A    between atoms: N5_17  and  C9_18
REMARK    6  A    between atoms: C9_18  and  N6_19
REMARK    7  A    between atoms: C9_18  and  C10_24
REMARK    8  A    between atoms: N6_19  and  N7_21
REMARK    9  A    between atoms: C12_30  and  N10_31
REMARK   10  A    between atoms: C13_34  and  C14_36
REMARK   11  A    between atoms: C14_36  and  C15_37
REMARK   12  A    between atoms: C14_36  and  C16_40
REMARK   13  A    between atoms: C15_37  and  O4_38
REMARK   14  A    between atoms: C16_40  and  O5_41
REMARK   15  A    between atoms: C16_40  and  O6_43
ROOT
HETATM    1  N1  UNL     1      27.278  22.316   8.237  1.00  0.00    -0.191 NA
HETATM    2  C1  UNL     1      27.976  21.438   8.043  1.00  0.00     0.102 C
HETATM    3  C2  UNL     1      28.885  20.359   7.823  1.00  0.00     0.081 A
HETATM    4  C3  UNL     1      30.210  20.690   7.504  1.00  0.00     0.070 A
HETATM    5  N2  UNL     1      30.565  22.046   7.350  1.00  0.00    -0.101 NA
HETATM    6  C4  UNL     1      31.159  19.726   7.338  1.00  0.00     0.065 A
HETATM    7  C5  UNL     1      30.774  18.421   7.495  1.00  0.00     0.121 A
HETATM    8  C6  UNL     1      29.472  18.099   7.806  1.00  0.00     0.099 A
HETATM    9  N3  UNL     1      29.467  16.757   7.886  1.00  0.00    -0.236 N
ATOM     10  H3  UNL     1      28.649  16.188   8.104  1.00  0.00     0.197 HD
HETATM   11  O1  UNL     1      30.665  16.283   7.642  1.00  0.00    -0.128 OA
HETATM   12  N4  UNL     1      31.480  17.262   7.402  1.00  0.00    -0.100 N
HETATM   13  C7  UNL     1      28.476  19.078   7.980  1.00  0.00     0.038 A
ENDROOT
BRANCH  13  14
HETATM   14  C8  UNL     1      27.080  18.647   8.290  1.00  0.00     0.272 C
BRANCH  14  15
HETATM   15  N5  UNL     1      26.534  18.094   7.181  1.00  0.00    -0.410 NA
BRANCH  15  16
HETATM   16  C9  UNL     1      26.062  17.611   6.214  1.00  0.00     0.204 C
BRANCH  16  17
HETATM   17  N6  UNL     1      25.531  16.256   6.351  1.00  0.00    -0.280 N
ATOM     18  H6  UNL     1      24.556  16.040   6.143  1.00  0.00     0.189 HD
BRANCH  17  19
HETATM   19  N7  UNL     1      26.420  15.278   6.780  1.00  0.00    -0.343 N
ATOM     20  H72 UNL     1      27.384  15.268   6.448  1.00  0.00     0.176 HD
ATOM     21  H71 UNL     1      26.057  14.585   7.434  1.00  0.00     0.176 HD
ENDBRANCH  17  19
ENDBRANCH  16  17
BRANCH  16  22
HETATM   22  C10 UNL     1      25.931  18.199   4.882  1.00  0.00     0.099 A
HETATM   23  C11 UNL     1      26.466  17.710   3.756  1.00  0.00     0.140 A
HETATM   24  N8  UNL     1      27.269  16.503   3.694  1.00  0.00    -0.081 NA
HETATM   25  N9  UNL     1      26.270  18.344   2.612  1.00  0.00    -0.312 N
HETATM   26  S1  UNL     1      25.318  19.674   3.036  1.00  0.00     0.005 SA
ATOM     27  H9  UNL     1      26.615  18.089   1.686  1.00  0.00     0.175 HD
HETATM   28  C12 UNL     1      25.194  19.366   4.730  1.00  0.00     0.103 A
BRANCH  28  29
HETATM   29  N10 UNL     1      24.552  20.097   5.568  1.00  0.00    -0.392 N
ATOM     30 2H10 UNL     1      24.884  20.352   6.498  1.00  0.00     0.156 HD
ATOM     31 1H10 UNL     1      23.644  20.560   5.520  1.00  0.00     0.156 HD
ENDBRANCH  28  29
ENDBRANCH  16  22
ENDBRANCH  15  16
ENDBRANCH  14  15
BRANCH  14  32
HETATM   32  C13 UNL     1      26.910  17.897   9.547  1.00  0.00     0.178 C
HETATM   33  O3  UNL     1      26.522  16.717   9.480  1.00  0.00    -0.293 OA
BRANCH  32  34
HETATM   34  C14 UNL     1      27.164  18.452  10.867  1.00  0.00     0.137 C
BRANCH  34  35
HETATM   35  C15 UNL     1      25.967  18.586  11.777  1.00  0.00     0.181 C
BRANCH  35  36
HETATM   36  O4  UNL     1      25.009  17.632  11.668  1.00  0.00    -0.400 OA
ATOM     37  H4  UNL     1      24.758  17.185  12.468  1.00  0.00     0.209 HD
ENDBRANCH  35  36
ENDBRANCH  34  35
BRANCH  34  38
HETATM   38  C16 UNL     1      28.142  17.568  11.672  1.00  0.00     0.267 C
BRANCH  38  39
HETATM   39  O5  UNL     1      29.263  17.227  10.970  1.00  0.00    -0.371 OA
ATOM     40  H5  UNL     1      29.650  16.408  11.257  1.00  0.00     0.212 HD
ENDBRANCH  38  39
BRANCH  38  41
HETATM   41  O6  UNL     1      27.401  16.442  12.074  1.00  0.00    -0.371 OA
ATOM     42  H6  UNL     1      28.033  15.830  12.434  1.00  0.00     0.212 HD
ENDBRANCH  38  41
ENDBRANCH  34  38
ENDBRANCH  32  34
ENDBRANCH  14  32
ENDBRANCH  13  14
BRANCH  12  43
HETATM   43  O2  UNL     1      32.834  17.218   7.097  1.00  0.00    -0.261 OA
ATOM     44  H2  UNL     1      33.242  17.793   6.461  1.00  0.00     0.247 HD
ENDBRANCH  12  43
TORSDOF 15
ENDMDL