MODEL 5
REMARK VINA RESULT: -6.573969416      3.554      6.013
REMARK  15 active torsions:
REMARK  status: ('A' for Active; 'I' for Inactive)
REMARK    1  A    between atoms: N1_1  and  C1_4
REMARK    2  A    between atoms: C2_7  and  N3_8
REMARK    3  A    between atoms: N3_8  and  C3_10
REMARK    4  A    between atoms: C4_13  and  N5_14
REMARK    5  A    between atoms: C7_17  and  O1_18
REMARK    6  A    between atoms: C7_17  and  C8_20
REMARK    7  A    between atoms: C8_20  and  O2_21
REMARK    8  A    between atoms: C10_26  and  N7_27
REMARK    9  A    between atoms: N7_27  and  O3_28
REMARK   10  A    between atoms: N7_27  and  C11_30
REMARK   11  A    between atoms: C11_30  and  C12_31
REMARK   12  A    between atoms: C12_31  and  C13_32
REMARK   13  A    between atoms: C13_32  and  N8_33
REMARK   14  A    between atoms: N8_33  and  C14_35
REMARK   15  A    between atoms: C17_46  and  N13_47
ROOT
HETATM    1  C3  UNL     1      27.794  16.884   7.003  1.00  0.00     0.726 A
HETATM    2  N4  UNL     1      27.184  16.751   8.193  1.00  0.00    -0.021 N
ATOM      3  H4  UNL     1      26.458  16.047   8.323  1.00  0.00     0.203 HD
HETATM    4  C4  UNL     1      27.544  17.565   9.226  1.00  0.00     0.709 A
HETATM    5  N6  UNL     1      28.501  18.461   8.984  1.00  0.00    -0.019 N
ATOM      6  H6  UNL     1      28.771  19.072   9.756  1.00  0.00     0.203 HD
HETATM    7  C10 UNL     1      29.142  18.634   7.812  1.00  0.00     0.733 A
HETATM    8  N11 UNL     1      28.770  17.823   6.812  1.00  0.00    -0.019 N
ATOM      9  H11 UNL     1      29.218  17.907   5.900  1.00  0.00     0.203 HD
ENDROOT
BRANCH   1  10
HETATM   10  N3  UNL     1      27.497  16.137   5.982  1.00  0.00    -0.020 N
ATOM     11  H3  UNL     1      27.764  15.153   5.994  1.00  0.00     0.203 HD
BRANCH  10  12
HETATM   12  C2  UNL     1      26.814  16.648   4.852  1.00  0.00     0.726 A
HETATM   13  N2  UNL     1      27.377  16.927   3.677  1.00  0.00    -0.021 N
HETATM   14  C1  UNL     1      26.664  17.415   2.632  1.00  0.00     0.705 A
ATOM     15  H2  UNL     1      28.378  16.769   3.560  1.00  0.00     0.203 HD
HETATM   16  N14 UNL     1      25.350  17.621   2.793  1.00  0.00    -0.022 N
HETATM   17  C17 UNL     1      24.730  17.352   3.970  1.00  0.00     0.705 A
ATOM     18  H14 UNL     1      24.803  17.988   2.014  1.00  0.00     0.203 HD
HETATM   19  N12 UNL     1      25.485  16.871   4.967  1.00  0.00    -0.021 N
ATOM     20  H12 UNL     1      25.034  16.663   5.859  1.00  0.00     0.203 HD
BRANCH  14  21
HETATM   21  N1  UNL     1      27.298  17.652   1.541  1.00  0.00    -0.234 N
ATOM     22  H12 UNL     1      28.302  17.823   1.492  1.00  0.00     0.174 HD
ATOM     23  H11 UNL     1      26.758  17.667   0.676  1.00  0.00     0.174 HD
ENDBRANCH  14  21
BRANCH  17  24
HETATM   24  N13 UNL     1      23.480  17.564   4.074  1.00  0.00    -0.234 N
ATOM     25 2H13 UNL     1      22.827  16.824   3.819  1.00  0.00     0.174 HD
ATOM     26 1H13 UNL     1      23.085  18.444   4.404  1.00  0.00     0.174 HD
ENDBRANCH  17  24
ENDBRANCH  10  12
ENDBRANCH   1  10
BRANCH   4  27
HETATM   27  N5  UNL     1      26.906  17.435  10.491  1.00  0.00    -0.214 N
HETATM   28  C5  UNL     1      26.984  18.412  11.565  1.00  0.00     0.144 C
HETATM   29  C6  UNL     1      27.039  17.504  12.773  1.00  0.00     0.062 C
HETATM   30  C7  UNL     1      25.982  16.477  12.446  1.00  0.00     0.097 C
HETATM   31  C9  UNL     1      26.074  16.346  10.958  1.00  0.00     0.181 C
BRANCH  30  32
HETATM   32  O1  UNL     1      26.219  15.267  13.101  1.00  0.00    -0.386 OA
ATOM     33  H1  UNL     1      25.572  14.611  12.871  1.00  0.00     0.210 HD
ENDBRANCH  30  32
BRANCH  30  34
HETATM   34  C8  UNL     1      24.641  17.067  12.874  1.00  0.00     0.203 C
BRANCH  34  35
HETATM   35  O2  UNL     1      24.295  16.640  14.155  1.00  0.00    -0.398 OA
ATOM     36  H2  UNL     1      24.201  17.377  14.746  1.00  0.00     0.209 HD
ENDBRANCH  34  35
ENDBRANCH  30  34
ENDBRANCH   4  27
BRANCH   7  37
HETATM   37  N7  UNL     1      30.132  19.649   7.702  1.00  0.00    -0.089 N
BRANCH  37  38
HETATM   38  O3  UNL     1      31.444  19.292   7.935  1.00  0.00    -0.274 OA
ATOM     39  H3  UNL     1      32.114  19.947   7.776  1.00  0.00     0.245 HD
ENDBRANCH  37  38
BRANCH  37  40
HETATM   40  C11 UNL     1      29.876  21.005   7.337  1.00  0.00     0.176 C
BRANCH  40  41
HETATM   41  C12 UNL     1      28.535  21.538   7.713  1.00  0.00     0.042 C
BRANCH  41  42
HETATM   42  C13 UNL     1      27.634  21.755   6.515  1.00  0.00     0.124 C
BRANCH  42  43
HETATM   43  N8  UNL     1      26.716  20.660   6.322  1.00  0.00    -0.362 N
ATOM     44  H8  UNL     1      26.767  19.823   6.904  1.00  0.00     0.162 HD
BRANCH  43  45
HETATM   45  C14 UNL     1      25.740  20.783   5.298  1.00  0.00     0.171 C
HETATM   46  N9  UNL     1      25.983  21.003   4.035  1.00  0.00    -0.361 N
HETATM   47  C15 UNL     1      24.777  21.072   3.271  1.00  0.00     0.142 C
ATOM     48  H9  UNL     1      26.917  21.113   3.642  1.00  0.00     0.162 HD
HETATM   49  C16 UNL     1      23.657  21.171   4.275  1.00  0.00     0.142 C
HETATM   50  N10 UNL     1      24.328  20.686   5.483  1.00  0.00    -0.361 N
ATOM     51  H10 UNL     1      23.862  20.337   6.321  1.00  0.00     0.162 HD
ENDBRANCH  43  45
ENDBRANCH  42  43
ENDBRANCH  41  42
ENDBRANCH  40  41
ENDBRANCH  37  40
ENDBRANCH   7  37
TORSDOF 15
ENDMDL