MODEL 5
REMARK VINA RESULT: -6.273878422      2.700      5.250
REMARK  15 active torsions:
REMARK  status: ('A' for Active; 'I' for Inactive)
REMARK    1  A    between atoms: S1_2  and  C2_3
REMARK    2  A    between atoms: N1_5  and  O1_6
REMARK    3  A    between atoms: N2_10  and  C5_11
REMARK    4  A    between atoms: C5_11  and  C6_12
REMARK    5  A    between atoms: C5_11  and  C7_17
REMARK    6  A    between atoms: C6_12  and  N3_13
REMARK    7  A    between atoms: C7_17  and  O3_18
REMARK    8  A    between atoms: C7_17  and  C8_20
REMARK    9  A    between atoms: C8_20  and  N4_21
REMARK   10  A    between atoms: N4_21  and  O4_22
REMARK   11  A    between atoms: N4_21  and  C9_24
REMARK   12  A    between atoms: C11_28  and  O5_29
REMARK   13  A    between atoms: N6_31  and  N7_32
REMARK   14  A    between atoms: C12_35  and  N8_36
REMARK   15  A    between atoms: C15_44  and  N11_45
ROOT
HETATM    1  C9  UNL     1      25.285  18.375   4.390  1.00  0.00     0.172 A
HETATM    2  N5  UNL     1      25.602  18.626   5.679  1.00  0.00    -0.331 N
ATOM      3  H5  UNL     1      25.063  19.307   6.214  1.00  0.00     0.168 HD
HETATM    4  C10 UNL     1      26.643  17.969   6.262  1.00  0.00     0.133 A
HETATM    5  C11 UNL     1      26.981  18.213   7.576  1.00  0.00     0.210 A
HETATM    6  N6  UNL     1      28.006  17.553   8.120  1.00  0.00    -0.068 N
HETATM    7  C12 UNL     1      28.712  16.652   7.396  1.00  0.00     0.700 A
HETATM    8  N9  UNL     1      28.370  16.423   6.110  1.00  0.00    -0.172 N
ATOM      9  H9  UNL     1      28.907  15.744   5.572  1.00  0.00     0.186 HD
HETATM   10  C13 UNL     1      27.339  17.065   5.509  1.00  0.00     0.156 A
HETATM   11  N10 UNL     1      27.054  16.787   4.221  1.00  0.00    -0.319 N
HETATM   12  C14 UNL     1      27.818  15.820   3.456  1.00  0.00     0.159 C
HETATM   13  C15 UNL     1      26.010  17.457   3.663  1.00  0.00     0.149 A
ENDROOT
BRANCH   1  14
HETATM   14  N4  UNL     1      24.200  19.062   3.785  1.00  0.00    -0.238 N
BRANCH  14  15
HETATM   15  C8  UNL     1      24.338  20.355   3.155  1.00  0.00     0.191 C
BRANCH  15  16
HETATM   16  C7  UNL     1      23.438  21.327   3.929  1.00  0.00     0.163 C
BRANCH  16  17
HETATM   17  C5  UNL     1      24.127  21.782   5.187  1.00  0.00     0.144 C
BRANCH  17  18
HETATM   18  N2  UNL     1      25.226  22.681   4.913  1.00  0.00    -0.322 N
HETATM   19  C4  UNL     1      26.435  22.472   5.628  1.00  0.00     0.344 C
HETATM   20  N1  UNL     1      27.533  23.373   5.494  1.00  0.00    -0.209 N
HETATM   21  O2  UNL     1      26.553  21.464   6.408  1.00  0.00    -0.245 OA
HETATM   22  C3  UNL     1      27.300  24.702   5.010  1.00  0.00     0.177 C
HETATM   23  C2  UNL     1      25.870  24.958   4.629  1.00  0.00     0.085 C
HETATM   24  C16 UNL     1      25.205  23.764   3.984  1.00  0.00     0.145 C
BRANCH  20  25
HETATM   25  O1  UNL     1      28.790  23.007   5.810  1.00  0.00    -0.283 OA
ATOM     26  H1  UNL     1      28.941  22.537   6.622  1.00  0.00     0.245 HD
ENDBRANCH  20  25
BRANCH  23  27
HETATM   27  S1  UNL     1      25.784  26.345   3.494  1.00  0.00    -0.165 SA
HETATM   28  C1  UNL     1      27.216  27.424   3.592  1.00  0.00     0.090 C
ENDBRANCH  23  27
ENDBRANCH  17  18
BRANCH  17  29
HETATM   29  C6  UNL     1      23.111  22.467   6.070  1.00  0.00     0.257 C
BRANCH  29  30
HETATM   30  N3  UNL     1      22.739  21.633   7.164  1.00  0.00    -0.077 N
ATOM     31  H33 UNL     1      21.734  21.658   7.331  1.00  0.00     0.274 HD
ATOM     32  H32 UNL     1      22.833  20.645   6.932  1.00  0.00     0.274 HD
ATOM     33  H31 UNL     1      23.266  21.874   8.003  1.00  0.00     0.274 HD
ENDBRANCH  29  30
ENDBRANCH  17  29
ENDBRANCH  16  17
BRANCH  16  34
HETATM   34  O3  UNL     1      22.308  20.603   4.282  1.00  0.00    -0.392 OA
ATOM     35  H3  UNL     1      22.573  19.717   4.501  1.00  0.00     0.210 HD
ENDBRANCH  16  34
ENDBRANCH  15  16
ENDBRANCH  14  15
BRANCH  14  36
HETATM   36  O4  UNL     1      22.975  18.502   3.786  1.00  0.00    -0.286 OA
ATOM     37  H4  UNL     1      22.497  18.500   4.607  1.00  0.00     0.244 HD
ENDBRANCH  14  36
ENDBRANCH   1  14
BRANCH  13  38
HETATM   38  N11 UNL     1      25.690  17.230   2.426  1.00  0.00    -0.382 N
ATOM     39 2H11 UNL     1      25.139  17.919   1.913  1.00  0.00     0.157 HD
ATOM     40 1H11 UNL     1      25.995  16.364   1.981  1.00  0.00     0.157 HD
ENDBRANCH  13  38
BRANCH   5  41
HETATM   41  O5  UNL     1      26.290  19.125   8.360  1.00  0.00    -0.343 OA
ATOM     42  H5  UNL     1      26.576  20.024   8.461  1.00  0.00     0.219 HD
ENDBRANCH   5  41
BRANCH   6  43
HETATM   43  N7  UNL     1      28.394  17.755   9.440  1.00  0.00    -0.322 N
ATOM     44  H72 UNL     1      27.975  18.542   9.935  1.00  0.00     0.178 HD
ATOM     45  H71 UNL     1      29.068  17.146   9.903  1.00  0.00     0.178 HD
ENDBRANCH   6  43
BRANCH   7  46
HETATM   46  N8  UNL     1      29.702  16.022   7.937  1.00  0.00    -0.233 N
ATOM     47  H82 UNL     1      29.630  15.029   8.157  1.00  0.00     0.174 HD
ATOM     48  H81 UNL     1      30.567  16.519   8.149  1.00  0.00     0.174 HD
ENDBRANCH   7  46
TORSDOF 15
ENDMDL