MODEL 1
REMARK VINA RESULT: -7.432135709      0.000      0.000
REMARK  14 active torsions:
REMARK  status: ('A' for Active; 'I' for Inactive)
REMARK    1  A    between atoms: O1_2  and  C2_3
REMARK    2  A    between atoms: C6_7  and  C7_8
REMARK    3  A    between atoms: C7_8  and  C8_10
REMARK    4  A    between atoms: C8_10  and  C9_11
REMARK    5  A    between atoms: C9_11  and  C10_12
REMARK    6  A    between atoms: C10_12  and  C11_13
REMARK    7  A    between atoms: C11_13  and  N1_15
REMARK    8  A    between atoms: N1_15  and  C13_17
REMARK    9  A    between atoms: C13_17  and  C14_18
REMARK   10  A    between atoms: C14_18  and  N2_19
REMARK   11  A    between atoms: N2_19  and  C15_21
REMARK   12  A    between atoms: C15_21  and  C16_22
REMARK   13  A    between atoms: C16_22  and  C17_23
REMARK   14  A    between atoms: C17_23  and  N3_24
ROOT
HETATM    1  C2  UNL     1      18.020   5.039  20.454  1.00  0.00     0.183 C
HETATM    2  C3  UNL     1      18.591   6.400  20.300  1.00  0.00     0.021 C
HETATM    3  C4  UNL     1      18.244   7.181  19.067  1.00  0.00     0.013 C
HETATM    4  C5  UNL     1      18.574   7.195  21.564  1.00  0.00     0.013 A
HETATM    5  C6  UNL     1      18.724   8.600  21.714  1.00  0.00     0.069 A
HETATM    6  C18 UNL     1      17.479   7.730  22.189  1.00  0.00    -0.023 A
HETATM    7  C19 UNL     1      16.299   8.449  21.897  1.00  0.00     0.011 C
HETATM    8  C20 UNL     1      14.997   7.943  21.394  1.00  0.00     0.006 C
HETATM    9  C21 UNL     1      14.367   6.758  21.952  1.00  0.00    -0.007 C
HETATM   10  C22 UNL     1      12.823   6.807  22.119  1.00  0.00     0.005 C
HETATM   11  C23 UNL     1      12.471   5.558  22.862  1.00  0.00     0.004 C
HETATM   12  C24 UNL     1      13.153   4.290  22.553  1.00  0.00     0.043 C
HETATM   13  C25 UNL     1      14.555   4.383  22.119  1.00  0.00     0.116 C
HETATM   14  C26 UNL     1      15.552   4.604  23.197  1.00  0.00     0.161 C
HETATM   15  N4  UNL     1      16.680   5.287  22.539  1.00  0.00    -0.375 N
HETATM   16  C27 UNL     1      17.578   5.696  23.469  1.00  0.00     0.121 C
HETATM   17  C28 UNL     1      17.439   7.232  23.607  1.00  0.00     0.030 C
HETATM   18  C29 UNL     1      16.779   4.886  21.253  1.00  0.00     0.193 C
HETATM   19  C30 UNL     1      15.694   5.398  20.286  1.00  0.00     0.075 C
HETATM   20  C31 UNL     1      14.497   5.555  21.110  1.00  0.00     0.034 C
HETATM   21  O3  UNL     1      16.417   3.503  21.287  1.00  0.00    -0.204 OA
HETATM   22  O4  UNL     1      15.084   3.363  21.350  1.00  0.00    -0.225 OA
ENDROOT
BRANCH   5  23
HETATM   23  C7  UNL     1      19.398   9.291  22.830  1.00  0.00     0.132 C
HETATM   24  O2  UNL     1      20.537   8.917  23.078  1.00  0.00    -0.298 OA
BRANCH  23  25
HETATM   25  C8  UNL     1      18.774  10.357  23.627  1.00  0.00     0.079 C
BRANCH  25  26
HETATM   26  C9  UNL     1      19.680  11.080  24.544  1.00  0.00     0.009 C
BRANCH  26  27
HETATM   27  C10 UNL     1      20.089  12.452  24.163  1.00  0.00     0.024 C
BRANCH  27  28
HETATM   28  C11 UNL     1      21.525  12.485  23.648  1.00  0.00     0.072 C
HETATM   29  C12 UNL     1      22.432  11.693  24.598  1.00  0.00     0.031 C
BRANCH  28  30
HETATM   30  N1  UNL     1      21.663  11.958  22.323  1.00  0.00    -0.416 N
ATOM     31  H1  UNL     1      20.927  12.052  21.623  1.00  0.00     0.153 HD
BRANCH  30  32
HETATM   32  C13 UNL     1      22.898  11.294  22.045  1.00  0.00     0.133 C
BRANCH  32  33
HETATM   33  C14 UNL     1      22.946  10.845  20.563  1.00  0.00     0.138 C
BRANCH  33  34
HETATM   34  N2  UNL     1      22.314   9.596  20.503  1.00  0.00    -0.401 N
ATOM     35  H2  UNL     1      21.295   9.563  20.523  1.00  0.00     0.158 HD
BRANCH  34  36
HETATM   36  C15 UNL     1      23.020   8.400  20.417  1.00  0.00     0.057 C
BRANCH  36  37
HETATM   37  C16 UNL     1      24.303   8.292  19.704  1.00  0.00     0.071 C
BRANCH  37  38
HETATM   38  C17 UNL     1      24.820   6.958  19.323  1.00  0.00     0.234 C
BRANCH  38  39
HETATM   39  N3  UNL     1      24.446   6.056  20.453  1.00  0.00    -0.079 N
ATOM     40  H33 UNL     1      23.993   6.536  21.231  1.00  0.00     0.274 HD
ATOM     41  H32 UNL     1      23.675   5.425  20.239  1.00  0.00     0.274 HD
ATOM     42  H31 UNL     1      25.311   5.579  20.711  1.00  0.00     0.274 HD
ENDBRANCH  38  39
ENDBRANCH  37  38
ENDBRANCH  36  37
ENDBRANCH  34  36
ENDBRANCH  33  34
ENDBRANCH  32  33
ENDBRANCH  30  32
ENDBRANCH  28  30
ENDBRANCH  27  28
ENDBRANCH  26  27
ENDBRANCH  25  26
ENDBRANCH  23  25
ENDBRANCH   5  23
BRANCH   1  43
HETATM   43  O1  UNL     1      17.752   4.545  19.174  1.00  0.00    -0.385 OA
HETATM   44  C1  UNL     1      18.731   3.664  18.727  1.00  0.00     0.202 C
ENDBRANCH   1  43
TORSDOF 14
ENDMDL