MODEL 5
REMARK VINA RESULT: -9.188863005      4.584      8.665
REMARK  15 active torsions:
REMARK  status: ('A' for Active; 'I' for Inactive)
REMARK    1  A    between atoms: C1_2  and  C2_3
REMARK       I    between atoms: C1_2  and  N1_10
REMARK    2  A    between atoms: C2_3  and  C3_4
REMARK    3  A    between atoms: N1_10  and  C9_12
REMARK    4  A    between atoms: C9_12  and  C10_13
REMARK    5  A    between atoms: C9_12  and  C17_20
REMARK    6  A    between atoms: C10_13  and  C11_14
REMARK    7  A    between atoms: C17_20  and  C18_22
REMARK    8  A    between atoms: C18_22  and  C19_23
REMARK    9  A    between atoms: C19_23  and  O3_24
REMARK   10  A    between atoms: C19_23  and  C20_26
REMARK   11  A    between atoms: C20_26  and  C21_28
REMARK   12  A    between atoms: C21_28  and  N2_29
REMARK   13  A    between atoms: C26_35  and  C27_36
REMARK   14  A    between atoms: C27_36  and  O5_37
REMARK   15  A    between atoms: N3_39  and  O6_41
ROOT
HETATM    1  C17 UNL     1      21.269   9.106  22.158  1.00  0.00     0.152 C
HETATM    2  O2  UNL     1      21.878   8.267  22.777  1.00  0.00    -0.296 OA
ENDROOT
BRANCH   1   3
HETATM    3  C9  UNL     1      19.837   9.409  22.505  1.00  0.00     0.154 C
BRANCH   3   4
HETATM    4  N1  UNL     1      19.822   9.877  23.888  1.00  0.00    -0.350 N
HETATM    5  C1  UNL     1      19.086  11.031  24.272  1.00  0.00     0.218 C
HETATM    6  O1  UNL     1      18.448  11.633  23.365  1.00  0.00    -0.274 OA
ATOM      7  H1  UNL     1      20.350   9.364  24.594  1.00  0.00     0.163 HD
BRANCH   5   8
HETATM    8  C2  UNL     1      19.099  11.465  25.675  1.00  0.00     0.107 C
BRANCH   8   9
HETATM    9  C3  UNL     1      18.919  10.380  26.682  1.00  0.00    -0.006 C
HETATM   10  C4  UNL     1      17.547   9.790  26.754  1.00  0.00     0.005 C
HETATM   11  C5  UNL     1      17.658   8.528  27.620  1.00  0.00     0.000 C
HETATM   12  C6  UNL     1      18.097   8.855  29.012  1.00  0.00     0.000 C
HETATM   13  C7  UNL     1      19.305   9.745  29.065  1.00  0.00     0.000 C
HETATM   14  C8  UNL     1      19.305  10.842  28.063  1.00  0.00     0.005 C
ENDBRANCH   8   9
ENDBRANCH   5   8
ENDBRANCH   3   4
BRANCH   3  15
HETATM   15  C10 UNL     1      19.073   8.138  22.331  1.00  0.00     0.037 C
BRANCH  15  16
HETATM   16  C11 UNL     1      17.576   8.294  22.419  1.00  0.00    -0.012 C
HETATM   17  C12 UNL     1      17.120   7.576  23.675  1.00  0.00     0.005 C
HETATM   18  C13 UNL     1      15.745   7.029  23.474  1.00  0.00     0.000 C
HETATM   19  C14 UNL     1      15.613   5.985  22.420  1.00  0.00     0.000 C
HETATM   20  C15 UNL     1      16.658   6.218  21.354  1.00  0.00     0.000 C
HETATM   21  C16 UNL     1      16.848   7.716  21.252  1.00  0.00     0.005 C
ENDBRANCH  15  16
ENDBRANCH   3  15
ENDBRANCH   1   3
BRANCH   1  22
HETATM   22  C18 UNL     1      21.974   9.805  21.068  1.00  0.00     0.120 C
BRANCH  22  23
HETATM   23  C19 UNL     1      22.011  11.324  21.280  1.00  0.00     0.196 C
BRANCH  23  24
HETATM   24  O3  UNL     1      22.266  11.846  19.993  1.00  0.00    -0.388 OA
ATOM     25  H3  UNL     1      22.225  12.787  20.112  1.00  0.00     0.210 HD
ENDBRANCH  23  24
BRANCH  23  26
HETATM   26  C20 UNL     1      23.160  11.568  22.176  1.00  0.00     0.183 C
HETATM   27  O4  UNL     1      24.279  11.533  21.711  1.00  0.00    -0.293 OA
BRANCH  26  28
HETATM   28  C21 UNL     1      22.958  11.842  23.606  1.00  0.00     0.354 C
BRANCH  28  29
HETATM   29  N2  UNL     1      23.896  12.868  24.029  1.00  0.00     0.112 N
HETATM   30  C22 UNL     1      23.211  14.168  24.122  1.00  0.00     0.320 C
HETATM   31  C23 UNL     1      22.011  13.989  24.968  1.00  0.00     0.015 C
HETATM   32  S1  UNL     1      20.735  14.324  24.456  1.00  0.00    -0.088 SA
HETATM   33  C24 UNL     1      22.239  13.455  26.342  1.00  0.00     0.050 C
HETATM   34  C25 UNL     1      23.269  12.381  26.378  1.00  0.00     0.050 C
HETATM   35  C26 UNL     1      24.382  12.520  25.375  1.00  0.00     0.299 C
BRANCH  35  36
HETATM   36  C27 UNL     1      25.431  13.464  25.831  1.00  0.00     0.169 C
HETATM   37  N3  UNL     1      26.483  13.726  25.143  1.00  0.00    -0.249 N
ATOM     38  H3  UNL     1      26.624  13.276  24.239  1.00  0.00     0.196 HD
BRANCH  36  39
HETATM   39  O5  UNL     1      25.266  14.090  27.054  1.00  0.00    -0.346 OA
ATOM     40  H5  UNL     1      25.900  14.747  27.313  1.00  0.00     0.219 HD
ENDBRANCH  36  39
BRANCH  37  41
HETATM   41  O6  UNL     1      27.405  14.597  25.611  1.00  0.00    -0.288 OA
ATOM     42  H6  UNL     1      27.383  15.509  25.346  1.00  0.00     0.244 HD
ENDBRANCH  37  41
ENDBRANCH  35  36
ENDBRANCH  28  29
ENDBRANCH  26  28
ENDBRANCH  23  26
ENDBRANCH  22  23
ENDBRANCH   1  22
TORSDOF 15
ENDMDL