MODEL 5
REMARK VINA RESULT: -8.856712183      2.108      4.785
REMARK  15 active torsions:
REMARK  status: ('A' for Active; 'I' for Inactive)
REMARK    1  A    between atoms: C2_2  and  C3_3
REMARK    2  A    between atoms: C3_3  and  C4_4
REMARK    3  A    between atoms: C4_4  and  C5_5
REMARK    4  A    between atoms: C5_5  and  C6_6
REMARK    5  A    between atoms: C6_6  and  N1_7
REMARK    6  A    between atoms: N1_7  and  C7_9
REMARK    7  A    between atoms: C10_14  and  C11_15
REMARK    8  A    between atoms: C13_20  and  N4_21
REMARK    9  A    between atoms: N4_21  and  C14_23
REMARK   10  A    between atoms: C15_24  and  O2_25
REMARK   11  A    between atoms: N6_31  and  C17_32
REMARK   12  A    between atoms: C17_32  and  C18_33
REMARK   13  A    between atoms: C18_33  and  C19_34
REMARK   14  A    between atoms: C19_34  and  C20_35
REMARK   15  A    between atoms: C20_35  and  C21_36
REMARK       I    between atoms: C21_36  and  N7_38
ROOT
HETATM    1  C14 UNL     1      18.262   9.092  25.013  1.00  0.00     0.169 A
HETATM    2  C15 UNL     1      17.672   7.889  25.339  1.00  0.00     0.190 A
HETATM    3  N5  UNL     1      17.051   8.045  26.517  1.00  0.00    -0.285 N
ATOM      4  H5  UNL     1      16.523   7.336  27.024  1.00  0.00     0.172 HD
HETATM    5  C16 UNL     1      17.253   9.292  26.894  1.00  0.00     0.334 A
HETATM    6  O3  UNL     1      16.780   9.749  27.992  1.00  0.00    -0.246 OA
HETATM    7  N6  UNL     1      17.993   9.975  26.002  1.00  0.00    -0.257 N
ENDROOT
BRANCH   1   8
HETATM    8  N4  UNL     1      18.989   9.342  23.866  1.00  0.00    -0.321 N
ATOM      9  H4  UNL     1      19.645  10.117  23.961  1.00  0.00     0.169 HD
BRANCH   8  10
HETATM   10  C13 UNL     1      19.005   8.806  22.726  1.00  0.00     0.152 A
HETATM   11  C7  UNL     1      20.159   8.536  22.031  1.00  0.00     0.146 A
HETATM   12  N2  UNL     1      20.022   7.946  20.812  1.00  0.00    -0.341 N
HETATM   13  C8  UNL     1      18.830   7.627  20.279  1.00  0.00     0.037 A
ATOM     14  H2  UNL     1      20.865   7.736  20.277  1.00  0.00     0.167 HD
HETATM   15  C9  UNL     1      18.788   6.983  18.941  1.00  0.00     0.070 C
HETATM   16  C10 UNL     1      17.674   7.900  20.980  1.00  0.00     0.102 A
HETATM   17  N3  UNL     1      17.794   8.479  22.179  1.00  0.00    -0.335 N
ATOM     18  H3  UNL     1      16.947   8.685  22.709  1.00  0.00     0.168 HD
BRANCH  11  19
HETATM   19  N1  UNL     1      21.283   8.840  22.531  1.00  0.00    -0.373 N
ATOM     20  H1  UNL     1      21.277   9.327  23.427  1.00  0.00     0.161 HD
BRANCH  19  21
HETATM   21  C6  UNL     1      22.564   8.558  21.948  1.00  0.00     0.121 C
BRANCH  21  22
HETATM   22  C5  UNL     1      23.282   9.786  21.478  1.00  0.00     0.020 C
BRANCH  22  23
HETATM   23  C4  UNL     1      23.359   9.769  19.968  1.00  0.00     0.002 C
BRANCH  23  24
HETATM   24  C3  UNL     1      24.526   8.987  19.457  1.00  0.00    -0.000 C
BRANCH  24  25
HETATM   25  C2  UNL     1      24.193   7.647  18.889  1.00  0.00    -0.005 C
HETATM   26  C1  UNL     1      24.938   6.606  19.721  1.00  0.00     0.005 C
ENDBRANCH  24  25
ENDBRANCH  23  24
ENDBRANCH  22  23
ENDBRANCH  21  22
ENDBRANCH  19  21
ENDBRANCH  11  19
BRANCH  16  27
HETATM   27  C11 UNL     1      16.341   7.568  20.428  1.00  0.00     0.174 C
HETATM   28  C12 UNL     1      15.723   6.278  20.829  1.00  0.00     0.098 C
HETATM   29  O1  UNL     1      15.729   8.330  19.645  1.00  0.00    -0.291 OA
ENDBRANCH  16  27
ENDBRANCH   8  10
ENDBRANCH   1   8
BRANCH   2  30
HETATM   30  O2  UNL     1      17.672   6.690  24.633  1.00  0.00    -0.343 OA
ATOM     31  H2  UNL     1      16.963   6.072  24.501  1.00  0.00     0.219 HD
ENDBRANCH   2  30
BRANCH   7  32
HETATM   32  C17 UNL     1      18.450  11.300  26.135  1.00  0.00     0.099 C
BRANCH  32  33
HETATM   33  C18 UNL     1      19.563  11.708  26.970  1.00  0.00    -0.008 C
BRANCH  33  34
HETATM   34  C19 UNL     1      20.486  12.796  26.653  1.00  0.00     0.038 C
BRANCH  34  35
HETATM   35  C20 UNL     1      20.703  13.118  25.226  1.00  0.00     0.107 C
BRANCH  35  36
HETATM   36  C21 UNL     1      21.775  12.154  24.738  1.00  0.00     0.220 C
HETATM   37  O4  UNL     1      21.492  11.021  24.283  1.00  0.00    -0.273 OA
HETATM   38  N7  UNL     1      23.137  12.537  24.797  1.00  0.00    -0.351 N
HETATM   39  C22 UNL     1      23.532  13.836  25.314  1.00  0.00     0.130 C
HETATM   40  C28 UNL     1      24.185  11.663  24.346  1.00  0.00     0.130 C
HETATM   41  C23 UNL     1      24.773  13.746  26.178  1.00  0.00     0.004 C
HETATM   42  C24 UNL     1      24.614  12.656  27.211  1.00  0.00     0.007 C
HETATM   43  C27 UNL     1      25.863  13.176  25.285  1.00  0.00     0.012 C
HETATM   44  C25 UNL     1      25.112  11.390  26.597  1.00  0.00     0.007 C
HETATM   45  C26 UNL     1      25.435  11.748  25.159  1.00  0.00     0.004 C
ENDBRANCH  35  36
ENDBRANCH  34  35
ENDBRANCH  33  34
ENDBRANCH  32  33
ENDBRANCH   7  32
TORSDOF 15
ENDMDL