MODEL 3
REMARK VINA RESULT: -6.723359331      4.680      7.063
REMARK  16 active torsions:
REMARK  status: ('A' for Active; 'I' for Inactive)
REMARK    1  A    between atoms: C2_2  and  C3_3
REMARK    2  A    between atoms: C3_3  and  C4_4
REMARK    3  A    between atoms: C4_4  and  N1_5
REMARK    4  A    between atoms: N1_5  and  C5_6
REMARK       I    between atoms: N1_5  and  C9_10
REMARK    5  A    between atoms: C5_6  and  C6_7
REMARK    6  A    between atoms: C6_7  and  C7_8
REMARK    7  A    between atoms: C9_10  and  C10_12
REMARK    8  A    between atoms: C13_15  and  O2_16
REMARK    9  A    between atoms: C14_18  and  C15_19
REMARK   10  A    between atoms: C16_20  and  C17_21
REMARK   11  A    between atoms: C18_22  and  O3_23
REMARK   12  A    between atoms: C20_26  and  O4_27
REMARK   13  A    between atoms: C23_31  and  C24_32
REMARK   14  A    between atoms: C24_32  and  C25_33
REMARK   15  A    between atoms: C25_33  and  C26_34
REMARK   16  A    between atoms: C26_34  and  O5_35
ROOT
HETATM    1  C10 UNL     1      15.265   6.339  20.245  1.00  0.00     0.115 C
HETATM    2  C11 UNL     1      16.125   7.505  19.717  1.00  0.00     0.020 C
HETATM    3  C12 UNL     1      16.823   8.097  20.921  1.00  0.00     0.042 C
HETATM    4  C13 UNL     1      16.176   7.386  22.054  1.00  0.00     0.097 C
HETATM    5  C14 UNL     1      16.793   7.472  23.366  1.00  0.00     0.052 C
HETATM    6  C23 UNL     1      16.645   6.175  24.213  1.00  0.00     0.035 C
HETATM    7  C27 UNL     1      15.592   5.317  23.728  1.00  0.00     0.109 C
HETATM    8  C28 UNL     1      15.532   3.883  24.223  1.00  0.00     0.208 C
HETATM    9  O6  UNL     1      14.153   3.947  24.033  1.00  0.00    -0.385 OA
HETATM   10  C29 UNL     1      14.225   5.297  24.376  1.00  0.00     0.208 C
HETATM   11  O7  UNL     1      15.384   5.253  22.362  1.00  0.00    -0.361 OA
HETATM   12  C30 UNL     1      16.080   5.971  21.497  1.00  0.00     0.102 C
HETATM   13  C31 UNL     1      17.372   5.410  21.023  1.00  0.00     0.050 C
ENDROOT
BRANCH   5  14
HETATM   14  C15 UNL     1      18.205   7.937  23.417  1.00  0.00    -0.022 C
HETATM   15  C16 UNL     1      18.531   9.211  23.616  1.00  0.00    -0.023 C
BRANCH  15  16
HETATM   16  C17 UNL     1      19.887   9.750  23.680  1.00  0.00     0.043 C
HETATM   17  C18 UNL     1      19.965  11.163  24.223  1.00  0.00     0.128 C
HETATM   18  C19 UNL     1      21.467  11.425  24.045  1.00  0.00     0.064 C
HETATM   19  C20 UNL     1      21.775  10.785  22.710  1.00  0.00     0.125 C
HETATM   20  C21 UNL     1      20.590   9.894  22.371  1.00  0.00     0.020 C
HETATM   21  C22 UNL     1      21.158   8.533  21.988  1.00  0.00     0.013 C
BRANCH  17  22
HETATM   22  O3  UNL     1      19.322  12.084  23.431  1.00  0.00    -0.395 OA
ATOM     23  H3  UNL     1      19.399  12.974  23.755  1.00  0.00     0.210 HD
ENDBRANCH  17  22
BRANCH  19  24
HETATM   24  O4  UNL     1      22.006  11.728  21.710  1.00  0.00    -0.395 OA
ATOM     25  H4  UNL     1      21.318  12.381  21.665  1.00  0.00     0.210 HD
ENDBRANCH  19  24
ENDBRANCH  15  16
ENDBRANCH   5  14
BRANCH   4  26
HETATM   26  O2  UNL     1      14.832   7.837  22.086  1.00  0.00    -0.386 OA
ATOM     27  H2  UNL     1      14.298   7.063  22.221  1.00  0.00     0.210 HD
ENDBRANCH   4  26
BRANCH   6  28
HETATM   28  C24 UNL     1      16.741   6.623  25.629  1.00  0.00     0.010 C
BRANCH  28  29
HETATM   29  C25 UNL     1      16.016   7.815  26.099  1.00  0.00     0.027 C
BRANCH  29  30
HETATM   30  C26 UNL     1      17.000   8.660  26.982  1.00  0.00     0.164 C
BRANCH  30  31
HETATM   31  O5  UNL     1      16.189   9.615  27.590  1.00  0.00    -0.401 OA
ATOM     32  H5  UNL     1      16.196   9.381  28.511  1.00  0.00     0.209 HD
ENDBRANCH  30  31
ENDBRANCH  29  30
ENDBRANCH  28  29
ENDBRANCH   6  28
BRANCH   1  33
HETATM   33  C9  UNL     1      15.286   5.247  19.263  1.00  0.00     0.227 C
HETATM   34  N1  UNL     1      14.350   4.176  19.233  1.00  0.00    -0.352 N
HETATM   35  O1  UNL     1      16.197   5.230  18.363  1.00  0.00    -0.273 OA
BRANCH  34  36
HETATM   36  C4  UNL     1      13.251   4.125  20.150  1.00  0.00     0.125 C
BRANCH  36  37
HETATM   37  C3  UNL     1      12.673   2.716  20.302  1.00  0.00     0.020 C
BRANCH  37  38
HETATM   38  C2  UNL     1      13.496   1.965  21.356  1.00  0.00    -0.003 C
HETATM   39  C1  UNL     1      13.843   0.588  20.878  1.00  0.00     0.005 C
ENDBRANCH  37  38
ENDBRANCH  36  37
ENDBRANCH  34  36
BRANCH  34  40
HETATM   40  C5  UNL     1      14.595   3.112  18.270  1.00  0.00     0.125 C
BRANCH  40  41
HETATM   41  C6  UNL     1      13.781   3.262  17.021  1.00  0.00     0.020 C
BRANCH  41  42
HETATM   42  C7  UNL     1      13.609   1.907  16.329  1.00  0.00    -0.003 C
HETATM   43  C8  UNL     1      12.388   1.227  16.901  1.00  0.00     0.005 C
ENDBRANCH  41  42
ENDBRANCH  40  41
ENDBRANCH  34  40
ENDBRANCH   1  33
TORSDOF 16
ENDMDL