MODEL 3
REMARK VINA RESULT: -7.762366919      2.644      8.409
REMARK  16 active torsions:
REMARK  status: ('A' for Active; 'I' for Inactive)
REMARK    1  A    between atoms: C3_3  and  C4_4
REMARK    2  A    between atoms: C4_4  and  C7_7
REMARK    3  A    between atoms: C9_9  and  O1_10
REMARK    4  A    between atoms: C10_12  and  N1_13
REMARK    5  A    between atoms: C17_24  and  O4_25
REMARK    6  A    between atoms: C18_27  and  C19_28
REMARK    7  A    between atoms: C19_28  and  C20_29
REMARK    8  A    between atoms: C20_29  and  C21_30
REMARK       I    between atoms: C21_30  and  N3_32
REMARK    9  A    between atoms: N3_32  and  C22_34
REMARK   10  A    between atoms: C22_34  and  C23_35
REMARK   11  A    between atoms: C23_35  and  N4_36
REMARK   12  A    between atoms: N4_36  and  C24_37
REMARK   13  A    between atoms: N4_36  and  C27_40
REMARK   14  A    between atoms: C24_37  and  C25_38
REMARK   15  A    between atoms: C27_40  and  C28_41
REMARK   16  A    between atoms: C28_41  and  C29_42
ROOT
HETATM    1  C1  UNL     1      13.517   3.883  19.147  1.00  0.00     0.112 C
HETATM    2  C2  UNL     1      14.350   4.422  20.225  1.00  0.00    -0.110 C
HETATM    3  C3  UNL     1      15.054   4.862  21.110  1.00  0.00    -0.097 C
ENDROOT
BRANCH   3   4
HETATM    4  C4  UNL     1      15.950   5.363  22.197  1.00  0.00     0.026 C
HETATM    5  C5  UNL     1      15.190   5.056  23.467  1.00  0.00     0.029 C
HETATM    6  C6  UNL     1      17.085   4.360  22.178  1.00  0.00     0.029 C
BRANCH   4   7
HETATM    7  C7  UNL     1      16.359   6.772  22.031  1.00  0.00     0.008 C
HETATM    8  C8  UNL     1      15.122   7.469  21.394  1.00  0.00     0.020 C
HETATM    9  C9  UNL     1      16.457   7.602  23.300  1.00  0.00     0.151 C
HETATM   10  C10 UNL     1      17.839   7.600  23.885  1.00  0.00     0.126 C
HETATM   11  C16 UNL     1      18.653   8.466  22.981  1.00  0.00     0.060 C
HETATM   12  C17 UNL     1      18.594   7.937  21.604  1.00  0.00     0.125 C
HETATM   13  C18 UNL     1      17.562   6.974  21.187  1.00  0.00     0.027 C
BRANCH   9  14
HETATM   14  O1  UNL     1      15.429   7.457  24.181  1.00  0.00    -0.393 OA
ATOM     15  H1  UNL     1      15.456   8.026  24.942  1.00  0.00     0.210 HD
ENDBRANCH   9  14
BRANCH  10  16
HETATM   16  N1  UNL     1      17.851   7.935  25.288  1.00  0.00    -0.302 N
HETATM   17  C11 UNL     1      18.160   9.238  25.549  1.00  0.00     0.108 A
HETATM   18  C12 UNL     1      18.209   9.733  26.828  1.00  0.00     0.022 A
HETATM   19  C13 UNL     1      18.544  11.168  27.129  1.00  0.00     0.056 C
HETATM   20  C14 UNL     1      17.939   8.890  27.873  1.00  0.00     0.256 A
HETATM   21  O2  UNL     1      17.967   9.291  29.073  1.00  0.00    -0.267 OA
HETATM   22  N2  UNL     1      17.637   7.602  27.574  1.00  0.00    -0.275 N
HETATM   23  C15 UNL     1      17.596   7.144  26.311  1.00  0.00     0.329 A
ATOM     24  H2  UNL     1      17.432   6.956  28.337  1.00  0.00     0.173 HD
HETATM   25  O3  UNL     1      17.314   5.964  26.133  1.00  0.00    -0.246 OA
ENDBRANCH  10  16
BRANCH  12  26
HETATM   26  O4  UNL     1      19.904   7.497  21.270  1.00  0.00    -0.395 OA
ATOM     27  H4  UNL     1      19.936   6.563  21.442  1.00  0.00     0.210 HD
ENDBRANCH  12  26
BRANCH  13  28
HETATM   28  C19 UNL     1      17.158   7.190  19.743  1.00  0.00     0.017 C
BRANCH  28  29
HETATM   29  C20 UNL     1      17.701   6.112  18.805  1.00  0.00     0.103 C
BRANCH  29  30
HETATM   30  C21 UNL     1      18.887   6.643  18.095  1.00  0.00     0.217 C
HETATM   31  O5  UNL     1      19.176   7.848  18.233  1.00  0.00    -0.274 OA
HETATM   32  N3  UNL     1      19.653   5.788  17.291  1.00  0.00    -0.359 N
ATOM     33  H3  UNL     1      19.364   4.810  17.242  1.00  0.00     0.162 HD
BRANCH  32  34
HETATM   34  C22 UNL     1      20.824   6.173  16.519  1.00  0.00     0.152 C
BRANCH  34  35
HETATM   35  C23 UNL     1      21.665   4.974  16.347  1.00  0.00     0.292 C
BRANCH  35  36
HETATM   36  N4  UNL     1      22.865   4.905  17.208  1.00  0.00     0.090 N
BRANCH  36  37
HETATM   37  C24 UNL     1      22.533   3.903  18.171  1.00  0.00     0.272 C
BRANCH  37  38
HETATM   38  C25 UNL     1      23.716   3.156  18.748  1.00  0.00     0.026 C
HETATM   39  C26 UNL     1      24.154   2.105  17.750  1.00  0.00     0.007 C
ENDBRANCH  37  38
ENDBRANCH  36  37
BRANCH  36  40
HETATM   40  C27 UNL     1      23.199   6.137  17.772  1.00  0.00     0.272 C
BRANCH  40  41
HETATM   41  C28 UNL     1      24.612   6.514  18.045  1.00  0.00     0.030 C
BRANCH  41  42
HETATM   42  C29 UNL     1      25.056   6.823  19.418  1.00  0.00    -0.003 C
HETATM   43  C30 UNL     1      23.941   7.463  20.245  1.00  0.00     0.005 C
ENDBRANCH  41  42
ENDBRANCH  40  41
ENDBRANCH  36  40
ENDBRANCH  35  36
ENDBRANCH  34  35
ENDBRANCH  32  34
ENDBRANCH  29  30
ENDBRANCH  28  29
ENDBRANCH  13  28
ENDBRANCH   4   7
ENDBRANCH   3   4
TORSDOF 16
ENDMDL