MODEL 4
REMARK VINA RESULT: -7.340072295      3.551      6.784
REMARK  14 active torsions:
REMARK  status: ('A' for Active; 'I' for Inactive)
REMARK    1  A    between atoms: C3_3  and  O1_4
REMARK    2  A    between atoms: C4_6  and  C5_7
REMARK    3  A    between atoms: C5_7  and  C6_8
REMARK       I    between atoms: C6_8  and  N1_10
REMARK    4  A    between atoms: N1_10  and  C7_12
REMARK    5  A    between atoms: N2_22  and  C17_23
REMARK    6  A    between atoms: C17_23  and  C18_24
REMARK    7  A    between atoms: C18_24  and  C19_26
REMARK    8  A    between atoms: C19_26  and  C20_27
REMARK    9  A    between atoms: C19_26  and  N4_35
REMARK   10  A    between atoms: C20_27  and  C21_28
REMARK   11  A    between atoms: C21_28  and  C22_29
REMARK   12  A    between atoms: C22_29  and  C23_30
REMARK   13  A    between atoms: C23_30  and  N3_31
REMARK       I    between atoms: N4_35  and  C24_36
REMARK   14  A    between atoms: C24_36  and  C25_38
ROOT
HETATM    1  C1  UNL     1      15.652   8.096  20.998  1.00  0.00     0.071 C
HETATM    2  C2  UNL     1      16.898   7.552  21.629  1.00  0.00     0.041 C
HETATM    3  C3  UNL     1      16.835   7.705  23.084  1.00  0.00     0.070 C
HETATM    4  C4  UNL     1      15.603   7.380  23.861  1.00  0.00     0.053 C
HETATM    5  C13 UNL     1      14.855   6.180  23.380  1.00  0.00     0.012 C
HETATM    6  C14 UNL     1      15.607   4.890  23.357  1.00  0.00     0.006 C
HETATM    7  C15 UNL     1      16.025   4.595  21.931  1.00  0.00     0.045 C
HETATM    8  C16 UNL     1      17.424   5.179  21.767  1.00  0.00     0.069 C
HETATM    9  N2  UNL     1      17.340   6.388  21.059  1.00  0.00    -0.334 N
ENDROOT
BRANCH   9  10
HETATM   10  C17 UNL     1      17.318   6.296  19.655  1.00  0.00     0.149 C
BRANCH  10  11
HETATM   11  C18 UNL     1      18.513   6.697  18.912  1.00  0.00     0.200 C
HETATM   12  O3  UNL     1      18.678   7.860  18.569  1.00  0.00    -0.288 OA
BRANCH  11  13
HETATM   13  C19 UNL     1      19.618   5.702  18.515  1.00  0.00     0.241 C
BRANCH  13  14
HETATM   14  C20 UNL     1      19.020   4.775  17.440  1.00  0.00     0.048 C
BRANCH  14  15
HETATM   15  C21 UNL     1      20.023   4.587  16.331  1.00  0.00     0.005 C
BRANCH  15  16
HETATM   16  C22 UNL     1      20.608   3.202  16.369  1.00  0.00     0.027 C
BRANCH  16  17
HETATM   17  C23 UNL     1      22.011   3.181  16.907  1.00  0.00     0.229 C
BRANCH  17  18
HETATM   18  N3  UNL     1      22.963   3.910  16.118  1.00  0.00    -0.079 N
ATOM     19  H33 UNL     1      22.503   4.343  15.318  1.00  0.00     0.274 HD
ATOM     20  H32 UNL     1      23.272   4.744  16.615  1.00  0.00     0.274 HD
ATOM     21  H31 UNL     1      23.767   3.361  15.811  1.00  0.00     0.274 HD
ENDBRANCH  17  18
ENDBRANCH  16  17
ENDBRANCH  15  16
ENDBRANCH  14  15
ENDBRANCH  13  14
BRANCH  13  22
HETATM   22  N4  UNL     1      20.789   6.316  18.287  1.00  0.00    -0.400 NA
HETATM   23  C24 UNL     1      22.003   6.947  18.047  1.00  0.00     0.322 C
HETATM   24  O4  UNL     1      22.790   6.653  17.122  1.00  0.00    -0.255 OA
BRANCH  23  25
HETATM   25  C25 UNL     1      22.486   8.062  18.913  1.00  0.00     0.338 C
HETATM   26  C26 UNL     1      21.791   8.165  20.239  1.00  0.00     0.122 C
HETATM   27  S1  UNL     1      23.027   9.236  21.101  1.00  0.00    -0.137 SA
HETATM   28  C27 UNL     1      24.301   9.202  19.774  1.00  0.00     0.347 C
HETATM   29  N5  UNL     1      23.892   7.942  19.125  1.00  0.00     0.108 N
HETATM   30  C28 UNL     1      24.186   6.923  20.149  1.00  0.00     0.312 C
ENDBRANCH  23  25
ENDBRANCH  13  22
ENDBRANCH  11  13
ENDBRANCH  10  11
ENDBRANCH   9  10
BRANCH   3  31
HETATM   31  O1  UNL     1      18.016   7.270  23.753  1.00  0.00    -0.363 OA
ATOM     32  H1  UNL     1      17.853   6.925  24.624  1.00  0.00     0.217 HD
ENDBRANCH   3  31
BRANCH   4  33
HETATM   33  C5  UNL     1      16.106   7.099  25.275  1.00  0.00     0.114 C
BRANCH  33  34
HETATM   34  C6  UNL     1      16.204   8.226  26.175  1.00  0.00     0.218 C
HETATM   35  O2  UNL     1      15.263   8.766  26.828  1.00  0.00    -0.274 OA
HETATM   36  N1  UNL     1      17.486   8.822  26.369  1.00  0.00    -0.356 N
ATOM     37  H1  UNL     1      18.290   8.430  25.880  1.00  0.00     0.162 HD
BRANCH  36  38
HETATM   38  C7  UNL     1      17.687   9.967  27.238  1.00  0.00     0.084 C
HETATM   39  C8  UNL     1      18.817  10.838  26.695  1.00  0.00     0.025 C
HETATM   40  C9  UNL     1      19.331  11.713  27.804  1.00  0.00     0.002 C
HETATM   41  C10 UNL     1      20.139  10.851  28.760  1.00  0.00     0.000 C
HETATM   42  C11 UNL     1      19.486   9.502  28.930  1.00  0.00     0.002 C
HETATM   43  C12 UNL     1      17.991   9.594  28.644  1.00  0.00     0.025 C
ENDBRANCH  36  38
ENDBRANCH  33  34
ENDBRANCH   4  33
TORSDOF 14
ENDMDL