MODEL 2
REMARK VINA RESULT: -8.628177681      1.318      1.962
REMARK  16 active torsions:
REMARK  status: ('A' for Active; 'I' for Inactive)
REMARK       I    between atoms: N1_2  and  C3_4
REMARK    1  A    between atoms: C3_4  and  C4_6
REMARK    2  A    between atoms: C4_6  and  C5_7
REMARK    3  A    between atoms: C5_7  and  C6_8
REMARK    4  A    between atoms: C6_8  and  C7_9
REMARK    5  A    between atoms: C7_9  and  C8_10
REMARK    6  A    between atoms: C8_10  and  C9_11
REMARK    7  A    between atoms: C9_11  and  C10_12
REMARK    8  A    between atoms: C10_12  and  C11_13
REMARK    9  A    between atoms: C11_13  and  C12_14
REMARK   10  A    between atoms: C12_14  and  N2_15
REMARK   11  A    between atoms: N2_15  and  C13_17
REMARK   12  A    between atoms: C13_17  and  O2_18
REMARK   13  A    between atoms: C13_17  and  O3_20
REMARK   14  A    between atoms: O3_20  and  C14_21
REMARK   15  A    between atoms: C14_21  and  C17_24
REMARK   16  A    between atoms: C18_27  and  O4_28
ROOT
HETATM    1  C14 UNL     1      21.815   9.021  21.415  1.00  0.00     0.093 C
HETATM    2  C15 UNL     1      20.508   8.434  21.899  1.00  0.00     0.049 C
HETATM    3  C16 UNL     1      22.885   8.501  22.286  1.00  0.00     0.049 C
ENDROOT
BRANCH   1   4
HETATM    4  O3  UNL     1      21.626  10.439  21.452  1.00  0.00    -0.304 OA
BRANCH   4   5
HETATM    5  C13 UNL     1      22.569  11.301  21.016  1.00  0.00     0.258 C
BRANCH   5   6
HETATM    6  N2  UNL     1      23.851  11.519  21.548  1.00  0.00    -0.350 N
ATOM      7  H2  UNL     1      24.623  11.006  21.122  1.00  0.00     0.163 HD
BRANCH   6   8
HETATM    8  C12 UNL     1      24.174  12.400  22.640  1.00  0.00     0.123 C
BRANCH   8   9
HETATM    9  C11 UNL     1      24.320  11.609  23.892  1.00  0.00     0.020 C
BRANCH   9  10
HETATM   10  C10 UNL     1      25.547  11.814  24.703  1.00  0.00     0.002 C
BRANCH  10  11
HETATM   11  C9  UNL     1      25.453  11.735  26.169  1.00  0.00     0.000 C
BRANCH  11  12
HETATM   12  C8  UNL     1      24.488  12.603  26.861  1.00  0.00     0.000 C
BRANCH  12  13
HETATM   13  C7  UNL     1      23.452  11.740  27.606  1.00  0.00     0.000 C
BRANCH  13  14
HETATM   14  C6  UNL     1      22.058  12.015  27.197  1.00  0.00     0.000 C
BRANCH  14  15
HETATM   15  C5  UNL     1      22.002  13.294  26.330  1.00  0.00     0.009 C
BRANCH  15  16
HETATM   16  C4  UNL     1      20.593  13.600  25.947  1.00  0.00     0.103 C
BRANCH  16  17
HETATM   17  C3  UNL     1      20.198  12.722  24.815  1.00  0.00     0.218 C
HETATM   18  N1  UNL     1      19.128  11.815  25.005  1.00  0.00    -0.361 N
HETATM   19  C1  UNL     1      18.739  10.983  23.878  1.00  0.00     0.152 C
HETATM   20  C2  UNL     1      18.444  11.704  26.276  1.00  0.00     0.152 C
HETATM   21  O1  UNL     1      20.818  12.803  23.708  1.00  0.00    -0.273 OA
ENDBRANCH  16  17
ENDBRANCH  15  16
ENDBRANCH  14  15
ENDBRANCH  13  14
ENDBRANCH  12  13
ENDBRANCH  11  12
ENDBRANCH  10  11
ENDBRANCH   9  10
ENDBRANCH   8   9
ENDBRANCH   6   8
ENDBRANCH   5   6
BRANCH   5  22
HETATM   22  O2  UNL     1      22.219  12.002  19.974  1.00  0.00    -0.327 OA
ATOM     23  H2  UNL     1      22.171  12.945  20.072  1.00  0.00     0.221 HD
ENDBRANCH   5  22
ENDBRANCH   4   5
ENDBRANCH   1   4
BRANCH   1  24
HETATM   24  C17 UNL     1      21.960   8.570  19.957  1.00  0.00     0.211 C
HETATM   25  N3  UNL     1      21.172   7.408  19.783  1.00  0.00    -0.340 N
HETATM   26  C18 UNL     1      19.958   7.196  19.089  1.00  0.00     0.220 C
ATOM     27  H3  UNL     1      21.545   6.575  20.239  1.00  0.00     0.164 HD
HETATM   28  N4  UNL     1      19.548   7.685  17.836  1.00  0.00    -0.293 N
HETATM   29  C19 UNL     1      20.183   7.619  16.583  1.00  0.00     0.224 C
ATOM     30  H4  UNL     1      18.647   8.162  17.836  1.00  0.00     0.172 HD
HETATM   31  O5  UNL     1      19.671   8.175  15.546  1.00  0.00    -0.273 OA
HETATM   32  C20 UNL     1      21.455   6.932  16.336  1.00  0.00     0.103 C
HETATM   33  C21 UNL     1      21.393   5.495  15.967  1.00  0.00     0.009 C
HETATM   34  C22 UNL     1      21.978   4.531  16.919  1.00  0.00     0.000 C
HETATM   35  C23 UNL     1      23.423   4.325  16.997  1.00  0.00     0.000 C
HETATM   36  C24 UNL     1      24.376   5.422  16.771  1.00  0.00     0.002 C
HETATM   37  C25 UNL     1      25.149   5.886  17.998  1.00  0.00     0.020 C
HETATM   38  C26 UNL     1      24.300   6.131  19.210  1.00  0.00     0.122 C
HETATM   39  N5  UNL     1      24.305   7.484  19.686  1.00  0.00    -0.359 N
HETATM   40  C27 UNL     1      23.374   8.506  19.563  1.00  0.00     0.243 C
ATOM     41  H5  UNL     1      25.142   7.740  20.209  1.00  0.00     0.162 HD
HETATM   42  O6  UNL     1      23.827   9.585  19.010  1.00  0.00    -0.271 OA
BRANCH  26  43
HETATM   43  O4  UNL     1      19.131   6.427  19.757  1.00  0.00    -0.332 OA
ATOM     44  H4  UNL     1      18.443   6.072  19.205  1.00  0.00     0.220 HD
ENDBRANCH  26  43
ENDBRANCH   1  24
TORSDOF 16
ENDMDL