MODEL 5
REMARK VINA RESULT: -7.302052716      2.765      5.661
REMARK  12 active torsions:
REMARK  status: ('A' for Active; 'I' for Inactive)
REMARK    1  A    between atoms: S1_2  and  C2_3
REMARK    2  A    between atoms: C2_3  and  C3_4
REMARK    3  A    between atoms: C3_4  and  N1_5
REMARK    4  A    between atoms: N1_5  and  C4_8
REMARK       I    between atoms: N2_12  and  C7_13
REMARK    5  A    between atoms: C7_13  and  C8_15
REMARK    6  A    between atoms: C8_15  and  C9_16
REMARK    7  A    between atoms: C8_15  and  N6_24
REMARK    8  A    between atoms: C9_16  and  C10_17
REMARK    9  A    between atoms: C10_17  and  C11_18
REMARK   10  A    between atoms: C11_18  and  N3_19
REMARK       I    between atoms: N6_24  and  C13_26
REMARK   11  A    between atoms: C13_26  and  C14_28
REMARK   12  A    between atoms: C14_28  and  S3_29
ROOT
HETATM    1  C8  UNL     1      19.699   8.732  22.897  1.00  0.00     0.176 C
ENDROOT
BRANCH   1   2
HETATM    2  C7  UNL     1      19.271   8.511  21.493  1.00  0.00     0.244 C
HETATM    3  N2  UNL     1      18.230   7.616  21.127  1.00  0.00    -0.313 N
HETATM    4  C4  UNL     1      17.794   7.405  19.731  1.00  0.00     0.352 C
HETATM    5  C6  UNL     1      17.413   6.748  21.933  1.00  0.00     0.139 C
HETATM    6  S2  UNL     1      15.983   7.611  19.989  1.00  0.00    -0.114 SA
HETATM    7  C5  UNL     1      15.967   7.222  21.789  1.00  0.00     0.098 C
HETATM    8  O1  UNL     1      19.878   9.162  20.603  1.00  0.00    -0.271 OA
BRANCH   4   9
HETATM    9  N1  UNL     1      18.002   6.044  19.354  1.00  0.00    -0.044 N
ATOM     10  H12 UNL     1      17.308   5.751  18.666  1.00  0.00     0.280 HD
ATOM     11  H11 UNL     1      17.757   5.416  20.121  1.00  0.00     0.280 HD
BRANCH   9  12
HETATM   12  C3  UNL     1      19.330   5.772  18.882  1.00  0.00     0.246 C
BRANCH  12  13
HETATM   13  C2  UNL     1      19.820   6.934  18.042  1.00  0.00     0.101 C
BRANCH  13  14
HETATM   14  S1  UNL     1      21.547   6.582  17.544  1.00  0.00    -0.172 SA
HETATM   15  C1  UNL     1      22.643   7.363  18.773  1.00  0.00     0.089 C
ENDBRANCH  13  14
ENDBRANCH  12  13
ENDBRANCH   9  12
ENDBRANCH   4   9
ENDBRANCH   1   2
BRANCH   1  16
HETATM   16  C9  UNL     1      18.503   8.520  23.825  1.00  0.00     0.036 C
BRANCH  16  17
HETATM   17  C10 UNL     1      18.514   9.433  25.011  1.00  0.00     0.022 C
BRANCH  17  18
HETATM   18  C11 UNL     1      17.536   8.988  26.074  1.00  0.00     0.122 C
BRANCH  18  19
HETATM   19  N3  UNL     1      18.136   8.488  27.264  1.00  0.00    -0.367 N
HETATM   20  C12 UNL     1      18.274   9.189  28.312  1.00  0.00     0.196 C
HETATM   21  N4  UNL     1      18.897   8.561  29.446  1.00  0.00    -0.067 NA
HETATM   22  N5  UNL     1      17.839  10.521  28.363  1.00  0.00    -0.067 NA
ATOM     23  H3  UNL     1      18.470   7.524  27.275  1.00  0.00     0.161 HD
ENDBRANCH  18  19
ENDBRANCH  17  18
ENDBRANCH  16  17
ENDBRANCH   1  16
BRANCH   1  24
HETATM   24  N6  UNL     1      20.087  10.139  23.092  1.00  0.00    -0.346 N
HETATM   25  C13 UNL     1      21.431  10.548  23.289  1.00  0.00     0.238 C
HETATM   26  O2  UNL     1      22.316   9.675  23.298  1.00  0.00    -0.272 OA
ATOM     27  H6  UNL     1      19.357  10.851  23.085  1.00  0.00     0.163 HD
BRANCH  25  28
HETATM   28  C14 UNL     1      21.775  11.974  23.476  1.00  0.00     0.097 C
HETATM   29  C16 UNL     1      20.508  12.850  23.314  1.00  0.00     0.036 C
HETATM   30  C17 UNL     1      20.518  13.827  24.438  1.00  0.00    -0.004 C
HETATM   31  C18 UNL     1      20.017  13.114  25.672  1.00  0.00     0.006 C
HETATM   32  C22 UNL     1      22.004  13.866  24.826  1.00  0.00    -0.035 C
HETATM   33  C19 UNL     1      21.064  11.996  25.798  1.00  0.00     0.012 C
HETATM   34  C20 UNL     1      22.186  12.350  24.830  1.00  0.00    -0.011 C
HETATM   35  C21 UNL     1      23.521  11.935  25.319  1.00  0.00     0.018 C
HETATM   36  C23 UNL     1      22.188  14.448  26.207  1.00  0.00     0.016 C
HETATM   37  C24 UNL     1      22.828  14.623  23.873  1.00  0.00     0.016 C
BRANCH  28  38
HETATM   38  S3  UNL     1      22.943  12.369  22.145  1.00  0.00    -0.153 SA
HETATM   39  C15 UNL     1      22.684  11.399  20.666  1.00  0.00     0.091 C
ENDBRANCH  28  38
ENDBRANCH  25  28
ENDBRANCH   1  24
TORSDOF 12
ENDMDL