MODEL 1
REMARK VINA RESULT: -7.320147174      0.000      0.000
REMARK  13 active torsions:
REMARK  status: ('A' for Active; 'I' for Inactive)
REMARK    1  A    between atoms: O1_2  and  C2_3
REMARK    2  A    between atoms: C2_3  and  C3_4
REMARK    3  A    between atoms: C3_4  and  N1_5
REMARK    4  A    between atoms: N1_5  and  C4_7
REMARK    5  A    between atoms: C4_7  and  C5_8
REMARK    6  A    between atoms: C5_8  and  N2_9
REMARK    7  A    between atoms: N2_9  and  O2_11
REMARK    8  A    between atoms: O2_11  and  C6_12
REMARK    9  A    between atoms: C6_12  and  C7_13
REMARK   10  A    between atoms: C8_14  and  C9_15
REMARK   11  A    between atoms: C30_39  and  C31_40
REMARK   12  A    between atoms: C31_40  and  N4_41
REMARK   13  A    between atoms: C31_40  and  O4_45
ROOT
HETATM    1  C9  UNL     1      16.443   6.663  21.947  1.00  0.00     0.053 C
HETATM    2  C10 UNL     1      16.903   5.419  22.539  1.00  0.00     0.141 C
HETATM    3  O3  UNL     1      17.871   4.819  22.347  1.00  0.00    -0.297 OA
HETATM    4  C11 UNL     1      15.973   4.829  23.590  1.00  0.00     0.085 C
HETATM    5  C12 UNL     1      14.521   4.894  23.267  1.00  0.00     0.006 C
HETATM    6  C13 UNL     1      13.594   4.362  24.251  1.00  0.00    -0.001 C
HETATM    7  C14 UNL     1      14.271   3.319  25.149  1.00  0.00     0.034 C
HETATM    8  C15 UNL     1      13.168   2.605  25.893  1.00  0.00    -0.001 C
HETATM    9  C16 UNL     1      12.290   3.411  26.520  1.00  0.00     0.010 C
HETATM   10  N3  UNL     1      11.104   3.156  27.312  1.00  0.00    -0.393 N
ATOM     11  H3  UNL     1      10.891   2.318  27.853  1.00  0.00     0.159 HD
HETATM   12  C17 UNL     1      10.267   4.369  27.171  1.00  0.00     0.120 C
HETATM   13  C18 UNL     1      11.356   5.452  27.155  1.00  0.00     0.035 C
HETATM   14  C19 UNL     1      12.537   4.869  26.450  1.00  0.00     0.003 C
HETATM   15  C20 UNL     1      13.790   5.228  27.263  1.00  0.00     0.022 C
HETATM   16  C21 UNL     1      12.667   5.288  24.990  1.00  0.00     0.004 C
HETATM   17  C22 UNL     1      12.927   6.757  24.937  1.00  0.00     0.007 C
HETATM   18  C23 UNL     1      14.060   7.135  24.006  1.00  0.00     0.011 C
HETATM   19  C24 UNL     1      14.113   6.283  22.788  1.00  0.00    -0.031 C
HETATM   20  C25 UNL     1      12.696   6.208  22.275  1.00  0.00     0.016 C
HETATM   21  C26 UNL     1      14.997   6.621  21.677  1.00  0.00    -0.018 C
HETATM   22  C27 UNL     1      14.708   5.580  20.587  1.00  0.00     0.018 C
HETATM   23  C28 UNL     1      14.786   7.939  20.991  1.00  0.00     0.012 C
HETATM   24  C29 UNL     1      15.988   7.934  20.044  1.00  0.00     0.011 C
HETATM   25  C30 UNL     1      17.026   7.014  20.619  1.00  0.00     0.062 C
ENDROOT
BRANCH   1  26
HETATM   26  C8  UNL     1      16.934   7.767  22.862  1.00  0.00    -0.010 C
HETATM   27  C7  UNL     1      18.104   8.555  22.650  1.00  0.00    -0.001 C
BRANCH  27  28
HETATM   28  C6  UNL     1      19.475   8.224  22.247  1.00  0.00     0.228 C
BRANCH  28  29
HETATM   29  O2  UNL     1      19.510   9.017  20.982  1.00  0.00    -0.281 OA
BRANCH  29  30
HETATM   30  N2  UNL     1      20.656   9.336  20.722  1.00  0.00    -0.301 N
ATOM     31  H2  UNL     1      20.509  10.174  20.158  1.00  0.00     0.187 HD
BRANCH  30  32
HETATM   32  C5  UNL     1      22.007   9.254  20.729  1.00  0.00     0.165 C
BRANCH  32  33
HETATM   33  C4  UNL     1      22.410   7.998  19.859  1.00  0.00     0.135 C
BRANCH  33  34
HETATM   34  N1  UNL     1      21.299   7.448  19.207  1.00  0.00    -0.418 N
ATOM     35  H1  UNL     1      20.369   7.559  19.610  1.00  0.00     0.153 HD
BRANCH  34  36
HETATM   36  C3  UNL     1      21.457   6.739  17.992  1.00  0.00     0.140 C
BRANCH  36  37
HETATM   37  C2  UNL     1      20.282   7.048  17.079  1.00  0.00     0.186 C
BRANCH  37  38
HETATM   38  O1  UNL     1      19.483   5.918  16.806  1.00  0.00    -0.394 OA
HETATM   39  C1  UNL     1      20.208   5.104  15.897  1.00  0.00     0.201 C
ENDBRANCH  37  38
ENDBRANCH  36  37
ENDBRANCH  34  36
ENDBRANCH  33  34
ENDBRANCH  32  33
ENDBRANCH  30  32
ENDBRANCH  29  30
ENDBRANCH  28  29
ENDBRANCH  27  28
ENDBRANCH   1  26
BRANCH  25  40
HETATM   40  C31 UNL     1      17.508   6.069  19.664  1.00  0.00     0.321 C
BRANCH  40  41
HETATM   41  N4  UNL     1      16.961   5.462  18.517  1.00  0.00    -0.053 N
ATOM     42  H43 UNL     1      17.360   6.000  17.747  1.00  0.00     0.277 HD
ATOM     43  H42 UNL     1      17.429   4.556  18.477  1.00  0.00     0.277 HD
ATOM     44  H41 UNL     1      16.013   5.256  18.202  1.00  0.00     0.277 HD
ENDBRANCH  40  41
BRANCH  40  45
HETATM   45  O4  UNL     1      18.731   5.626  19.826  1.00  0.00    -0.369 OA
ATOM     46  H4  UNL     1      19.063   5.580  20.715  1.00  0.00     0.212 HD
ENDBRANCH  40  45
ENDBRANCH  25  40
TORSDOF 13
ENDMDL