MODEL 1
REMARK VINA RESULT: -9.258254194      0.000      0.000
REMARK  15 active torsions:
REMARK  status: ('A' for Active; 'I' for Inactive)
REMARK    1  A    between atoms: C2_2  and  C3_3
REMARK    2  A    between atoms: C3_3  and  C4_4
REMARK    3  A    between atoms: C4_4  and  O2_6
REMARK    4  A    between atoms: O2_6  and  C5_7
REMARK    5  A    between atoms: C5_7  and  C6_8
REMARK    6  A    between atoms: C8_10  and  C9_11
REMARK    7  A    between atoms: C9_11  and  O3_12
REMARK    8  A    between atoms: C9_11  and  C10_14
REMARK    9  A    between atoms: C10_14  and  N1_17
REMARK       I    between atoms: N1_17  and  C13_19
REMARK   10  A    between atoms: C13_19  and  C14_21
REMARK   11  A    between atoms: C18_25  and  O5_26
REMARK   12  A    between atoms: O5_26  and  C19_27
REMARK   13  A    between atoms: C19_27  and  C20_28
REMARK   14  A    between atoms: C30_38  and  O6_39
REMARK   15  A    between atoms: C31_41  and  O7_42
ROOT
HETATM    1  C10 UNL     1      22.423   9.664  21.133  1.00  0.00     0.052 C
HETATM    2  C11 UNL     1      22.624   8.574  22.174  1.00  0.00     0.041 C
HETATM    3  C12 UNL     1      23.567   9.651  20.211  1.00  0.00     0.041 C
ENDROOT
BRANCH   1   4
HETATM    4  C9  UNL     1      22.136  10.952  21.867  1.00  0.00     0.152 C
BRANCH   4   5
HETATM    5  C8  UNL     1      22.971  11.277  23.049  1.00  0.00     0.049 C
HETATM    6  C7  UNL     1      21.982  11.610  24.186  1.00  0.00     0.019 C
HETATM    7  C6  UNL     1      22.257  12.982  24.656  1.00  0.00     0.042 C
HETATM    8  C31 UNL     1      23.236  13.617  23.743  1.00  0.00     0.153 C
HETATM    9  C30 UNL     1      23.744  12.531  22.845  1.00  0.00     0.154 C
BRANCH   7  10
HETATM   10  C5  UNL     1      22.825  13.055  26.068  1.00  0.00     0.185 C
BRANCH  10  11
HETATM   11  O2  UNL     1      22.724  11.819  26.740  1.00  0.00    -0.321 OA
BRANCH  11  12
HETATM   12  C4  UNL     1      21.774  11.696  27.740  1.00  0.00     0.258 C
HETATM   13  O1  UNL     1      22.036  10.965  28.732  1.00  0.00    -0.265 OA
BRANCH  12  14
HETATM   14  C3  UNL     1      20.466  12.379  27.702  1.00  0.00     0.111 C
BRANCH  14  15
HETATM   15  C2  UNL     1      19.403  11.322  27.386  1.00  0.00     0.005 C
HETATM   16  C1  UNL     1      18.720  11.762  26.095  1.00  0.00     0.005 C
ENDBRANCH  14  15
ENDBRANCH  12  14
ENDBRANCH  11  12
ENDBRANCH  10  11
ENDBRANCH   7  10
BRANCH   8  17
HETATM   17  O7  UNL     1      22.650  14.682  23.054  1.00  0.00    -0.393 OA
ATOM     18  H7  UNL     1      23.156  15.477  23.172  1.00  0.00     0.210 HD
ENDBRANCH   8  17
BRANCH   9  19
HETATM   19  O6  UNL     1      25.118  12.349  23.148  1.00  0.00    -0.393 OA
ATOM     20  H6  UNL     1      25.263  11.549  23.641  1.00  0.00     0.210 HD
ENDBRANCH   9  19
ENDBRANCH   4   5
BRANCH   4  21
HETATM   21  O3  UNL     1      20.802  10.695  22.373  1.00  0.00    -0.393 OA
ATOM     22  H3  UNL     1      20.258  11.407  22.057  1.00  0.00     0.210 HD
ENDBRANCH   4  21
ENDBRANCH   1   4
BRANCH   1  23
HETATM   23  N1  UNL     1      21.203   9.373  20.372  1.00  0.00    -0.350 N
HETATM   24  C13 UNL     1      20.143   8.563  20.761  1.00  0.00     0.225 C
HETATM   25  O4  UNL     1      20.144   7.983  21.869  1.00  0.00    -0.273 OA
ATOM     26  H1  UNL     1      21.125   9.814  19.455  1.00  0.00     0.163 HD
BRANCH  24  27
HETATM   27  C14 UNL     1      18.942   8.322  19.910  1.00  0.00     0.107 C
HETATM   28  C15 UNL     1      17.759   7.811  20.688  1.00  0.00     0.017 C
HETATM   29  C16 UNL     1      17.765   6.331  20.513  1.00  0.00     0.004 C
HETATM   30  C17 UNL     1      18.787   5.990  19.466  1.00  0.00     0.033 C
HETATM   31  C18 UNL     1      19.135   7.290  18.846  1.00  0.00     0.134 C
BRANCH  31  32
HETATM   32  O5  UNL     1      20.416   7.319  18.297  1.00  0.00    -0.384 OA
BRANCH  32  33
HETATM   33  C19 UNL     1      20.538   6.221  17.451  1.00  0.00     0.177 C
BRANCH  33  34
HETATM   34  C20 UNL     1      21.917   5.606  17.527  1.00  0.00    -0.018 C
HETATM   35  C21 UNL     1      22.532   5.550  16.167  1.00  0.00     0.016 C
HETATM   36  C22 UNL     1      23.956   5.012  16.309  1.00  0.00    -0.013 C
HETATM   37  C23 UNL     1      24.770   5.933  17.185  1.00  0.00     0.009 C
HETATM   38  C27 UNL     1      23.961   3.643  16.933  1.00  0.00     0.009 C
HETATM   39  C24 UNL     1      24.138   5.985  18.566  1.00  0.00    -0.013 C
HETATM   40  C25 UNL     1      24.115   4.607  19.157  1.00  0.00     0.009 C
HETATM   41  C29 UNL     1      22.743   6.539  18.399  1.00  0.00     0.016 C
HETATM   42  C26 UNL     1      23.287   3.711  18.275  1.00  0.00    -0.013 C
HETATM   43  C28 UNL     1      21.877   4.214  18.090  1.00  0.00     0.016 C
ENDBRANCH  33  34
ENDBRANCH  32  33
ENDBRANCH  31  32
ENDBRANCH  24  27
ENDBRANCH   1  23
TORSDOF 15
ENDMDL