MODEL 3
REMARK VINA RESULT: -8.474486374      0.860      1.265
REMARK  11 active torsions:
REMARK  status: ('A' for Active; 'I' for Inactive)
REMARK       I    between atoms: C2_2  and  N1_4
REMARK    1  A    between atoms: N1_4  and  C3_6
REMARK    2  A    between atoms: C16_20  and  N2_21
REMARK    3  A    between atoms: C17_24  and  O5_25
REMARK    4  A    between atoms: O5_25  and  C18_26
REMARK    5  A    between atoms: C19_27  and  C20_28
REMARK    6  A    between atoms: C20_28  and  C21_29
REMARK    7  A    between atoms: C21_29  and  C22_30
REMARK    8  A    between atoms: C22_30  and  C23_31
REMARK    9  A    between atoms: C23_31  and  C26_34
REMARK   10  A    between atoms: C28_38  and  O8_39
REMARK   11  A    between atoms: C29_41  and  O9_42
ROOT
HETATM    1  C3  UNL     1      22.982   8.201  21.391  1.00  0.00     0.116 C
HETATM    2  C4  UNL     1      24.149   7.647  20.689  1.00  0.00     0.032 C
HETATM    3  C5  UNL     1      23.898   7.113  19.289  1.00  0.00    -0.011 C
HETATM    4  C6  UNL     1      25.351   6.906  18.791  1.00  0.00     0.010 C
HETATM    5  C7  UNL     1      23.267   5.790  19.431  1.00  0.00     0.008 C
HETATM    6  C8  UNL     1      23.039   4.983  18.180  1.00  0.00     0.043 C
HETATM    7  C9  UNL     1      23.926   4.997  17.057  1.00  0.00     0.014 C
HETATM    8  C10 UNL     1      23.466   4.006  15.984  1.00  0.00     0.041 C
HETATM    9  C11 UNL     1      21.990   3.850  15.932  1.00  0.00     0.084 A
HETATM   10  C12 UNL     1      21.229   5.018  15.390  1.00  0.00     0.049 C
HETATM   11  O2  UNL     1      21.363   2.709  15.425  1.00  0.00    -0.370 OA
HETATM   12  C13 UNL     1      21.572   2.770  16.751  1.00  0.00     0.157 A
HETATM   13  C14 UNL     1      20.686   3.143  17.849  1.00  0.00     0.048 C
HETATM   14  C15 UNL     1      21.457   3.367  19.138  1.00  0.00     0.071 C
HETATM   15  C16 UNL     1      22.862   3.638  18.768  1.00  0.00     0.069 C
HETATM   16  C17 UNL     1      20.978   4.669  19.701  1.00  0.00     0.144 C
HETATM   17  C27 UNL     1      22.004   5.665  20.197  1.00  0.00     0.052 C
HETATM   18  C28 UNL     1      21.176   6.881  20.435  1.00  0.00     0.155 C
HETATM   19  C29 UNL     1      21.793   8.208  20.478  1.00  0.00     0.170 C
ENDROOT
BRANCH  16  20
HETATM   20  O5  UNL     1      20.150   4.347  20.821  1.00  0.00    -0.357 OA
BRANCH  20  21
HETATM   21  C18 UNL     1      18.849   3.926  20.735  1.00  0.00     0.131 C
HETATM   22  C19 UNL     1      17.991   4.400  19.854  1.00  0.00    -0.003 C
BRANCH  22  23
HETATM   23  C20 UNL     1      16.583   3.891  19.817  1.00  0.00     0.029 C
BRANCH  23  24
HETATM   24  C21 UNL     1      15.633   4.843  20.443  1.00  0.00     0.005 C
BRANCH  24  25
HETATM   25  C22 UNL     1      15.881   6.258  20.127  1.00  0.00     0.020 C
BRANCH  25  26
HETATM   26  C23 UNL     1      16.245   7.208  21.200  1.00  0.00     0.041 C
HETATM   27  C24 UNL     1      15.125   8.192  21.518  1.00  0.00     0.026 C
HETATM   28  C25 UNL     1      16.353   6.340  22.495  1.00  0.00     0.026 C
BRANCH  26  29
HETATM   29  C26 UNL     1      17.536   7.901  21.063  1.00  0.00     0.181 C
HETATM   30  O6  UNL     1      18.083   8.004  19.921  1.00  0.00    -0.647 OA
HETATM   31  O7  UNL     1      18.203   8.465  22.135  1.00  0.00    -0.647 OA
ENDBRANCH  26  29
ENDBRANCH  25  26
ENDBRANCH  24  25
ENDBRANCH  23  24
ENDBRANCH  22  23
ENDBRANCH  20  21
ENDBRANCH  16  20
BRANCH  15  32
HETATM   32  N2  UNL     1      23.777   2.807  18.991  1.00  0.00    -0.123 N
HETATM   33  O3  UNL     1      24.016   1.650  18.274  1.00  0.00    -0.532 OA
HETATM   34  O4  UNL     1      24.712   2.974  20.026  1.00  0.00    -0.532 OA
ENDBRANCH  15  32
BRANCH  18  35
HETATM   35  O8  UNL     1      20.430   6.737  21.612  1.00  0.00    -0.392 OA
ATOM     36  H8  UNL     1      21.006   6.570  22.348  1.00  0.00     0.210 HD
ENDBRANCH  18  35
BRANCH  19  37
HETATM   37  O9  UNL     1      20.863   9.065  21.137  1.00  0.00    -0.391 OA
ATOM     38  H9  UNL     1      20.165   8.479  21.405  1.00  0.00     0.210 HD
ENDBRANCH  19  37
BRANCH   1  39
HETATM   39  N1  UNL     1      23.222   9.454  22.033  1.00  0.00    -0.354 N
HETATM   40  C2  UNL     1      23.535  10.599  21.273  1.00  0.00     0.214 C
HETATM   41  C1  UNL     1      23.796  11.935  21.878  1.00  0.00     0.117 C
HETATM   42  O1  UNL     1      23.607  10.531  20.019  1.00  0.00    -0.274 OA
ATOM     43  H1  UNL     1      23.165   9.522  23.049  1.00  0.00     0.162 HD
ENDBRANCH   1  39
TORSDOF 11
ENDMDL