MODEL 5
REMARK VINA RESULT: -6.986514721      2.827      8.524
REMARK  16 active torsions:
REMARK  status: ('A' for Active; 'I' for Inactive)
REMARK    1  A    between atoms: C2_2  and  N1_3
REMARK    2  A    between atoms: C2_2  and  C8_12
REMARK    3  A    between atoms: N1_3  and  C3_4
REMARK    4  A    between atoms: C3_4  and  O1_5
REMARK    5  A    between atoms: C3_4  and  O2_7
REMARK    6  A    between atoms: O2_7  and  C4_8
REMARK    7  A    between atoms: C8_12  and  O3_13
REMARK    8  A    between atoms: C8_12  and  C9_15
REMARK    9  A    between atoms: C9_15  and  N2_16
REMARK   10  A    between atoms: N2_16  and  C10_18
REMARK       I    between atoms: N3_20  and  C12_21
REMARK   11  A    between atoms: C12_21  and  C13_23
REMARK   12  A    between atoms: C13_23  and  N4_24
REMARK   13  A    between atoms: C13_23  and  C19_33
REMARK       I    between atoms: N4_24  and  C14_26
REMARK   14  A    between atoms: C14_26  and  O6_28
REMARK   15  A    between atoms: O6_28  and  C15_29
REMARK   16  A    between atoms: C25_39  and  N5_40
ROOT
HETATM    1  C10 UNL     1      22.812   9.488  22.608  1.00  0.00     0.049 C
HETATM    2  C11 UNL     1      23.475   9.621  21.245  1.00  0.00     0.184 C
HETATM    3  N3  UNL     1      23.404   8.369  20.522  1.00  0.00    -0.344 N
HETATM    4  C12 UNL     1      23.739   8.400  19.128  1.00  0.00     0.243 C
HETATM    5  O4  UNL     1      24.068   9.540  18.634  1.00  0.00    -0.271 OA
HETATM    6  C23 UNL     1      23.044   7.206  21.244  1.00  0.00     0.132 C
HETATM    7  C24 UNL     1      21.721   7.357  21.923  1.00  0.00     0.079 C
HETATM    8  C25 UNL     1      21.556   8.789  22.478  1.00  0.00     0.032 C
ENDROOT
BRANCH   1   9
HETATM    9  N2  UNL     1      23.117  10.486  23.502  1.00  0.00    -0.367 N
ATOM     10  H2  UNL     1      22.974  10.277  24.490  1.00  0.00     0.165 HD
BRANCH   9  11
HETATM   11  C9  UNL     1      23.599  11.752  23.194  1.00  0.00     0.095 C
BRANCH  11  12
HETATM   12  C8  UNL     1      25.070  11.876  23.374  1.00  0.00     0.192 C
BRANCH  12  13
HETATM   13  C2  UNL     1      25.555  12.585  24.628  1.00  0.00     0.197 C
HETATM   14  C1  UNL     1      26.825  11.820  25.086  1.00  0.00     0.050 C
BRANCH  13  15
HETATM   15  N1  UNL     1      24.542  12.403  25.643  1.00  0.00    -0.396 NA
BRANCH  15  16
HETATM   16  C3  UNL     1      23.625  12.242  26.562  1.00  0.00     0.336 C
BRANCH  16  17
HETATM   17  O1  UNL     1      23.776  12.129  27.855  1.00  0.00    -0.316 OA
ATOM     18  H1  UNL     1      23.441  12.691  28.544  1.00  0.00     0.222 HD
ENDBRANCH  16  17
BRANCH  16  19
HETATM   19  O2  UNL     1      22.223  12.163  26.263  1.00  0.00    -0.295 OA
BRANCH  19  20
HETATM   20  C4  UNL     1      21.420  13.280  26.093  1.00  0.00     0.061 C
HETATM   21  C5  UNL     1      20.750  13.304  24.717  1.00  0.00     0.046 C
HETATM   22  C6  UNL     1      20.351  13.258  27.162  1.00  0.00     0.046 C
HETATM   23  C7  UNL     1      22.212  14.561  26.268  1.00  0.00     0.046 C
ENDBRANCH  19  20
ENDBRANCH  16  19
ENDBRANCH  15  16
ENDBRANCH  13  15
ENDBRANCH  12  13
BRANCH  12  24
HETATM   24  O3  UNL     1      25.668  12.447  22.254  1.00  0.00    -0.387 OA
ATOM     25  H3  UNL     1      25.754  11.793  21.571  1.00  0.00     0.210 HD
ENDBRANCH  12  24
ENDBRANCH  11  12
ENDBRANCH   9  11
ENDBRANCH   1   9
BRANCH   8  26
HETATM   26  N5  UNL     1      20.360   9.080  22.722  1.00  0.00    -0.391 N
HETATM   27  C26 UNL     1      19.334   8.582  21.794  1.00  0.00     0.148 C
HETATM   28  C27 UNL     1      19.839   9.851  23.811  1.00  0.00     0.148 C
ENDBRANCH   8  26
BRANCH   4  29
HETATM   29  C13 UNL     1      23.752   7.279  18.202  1.00  0.00     0.186 C
BRANCH  29  30
HETATM   30  N4  UNL     1      22.438   6.606  18.395  1.00  0.00    -0.323 N
HETATM   31  C14 UNL     1      21.474   6.543  17.359  1.00  0.00     0.362 C
HETATM   32  O5  UNL     1      21.746   7.070  16.256  1.00  0.00    -0.238 OA
ATOM     33  H4  UNL     1      22.226   6.178  19.296  1.00  0.00     0.165 HD
BRANCH  31  34
HETATM   34  O6  UNL     1      20.253   5.930  17.504  1.00  0.00    -0.294 OA
BRANCH  34  35
HETATM   35  C15 UNL     1      20.000   4.654  17.986  1.00  0.00     0.061 C
HETATM   36  C16 UNL     1      20.274   4.505  19.479  1.00  0.00     0.046 C
HETATM   37  C17 UNL     1      18.494   4.393  17.801  1.00  0.00     0.046 C
HETATM   38  C18 UNL     1      20.716   3.544  17.252  1.00  0.00     0.046 C
ENDBRANCH  34  35
ENDBRANCH  31  34
ENDBRANCH  29  30
BRANCH  29  39
HETATM   39  C19 UNL     1      24.820   6.219  18.509  1.00  0.00    -0.022 C
HETATM   40  C20 UNL     1      25.965   6.759  19.315  1.00  0.00     0.017 C
HETATM   41  C21 UNL     1      24.257   5.028  19.210  1.00  0.00     0.017 C
HETATM   42  C22 UNL     1      25.436   5.804  17.156  1.00  0.00     0.017 C
ENDBRANCH  29  39
ENDBRANCH   4  29
TORSDOF 16
ENDMDL