MODEL 2
REMARK VINA RESULT: -8.284783545      2.304      4.877
REMARK  10 active torsions:
REMARK  status: ('A' for Active; 'I' for Inactive)
REMARK    1  A    between atoms: C2_2  and  C3_3
REMARK    2  A    between atoms: C6_6  and  C7_7
REMARK    3  A    between atoms: C7_7  and  C8_8
REMARK    4  A    between atoms: C8_8  and  O1_9
REMARK    5  A    between atoms: C8_8  and  C9_11
REMARK    6  A    between atoms: C9_11  and  C10_12
REMARK    7  A    between atoms: C12_16  and  O4_17
REMARK    8  A    between atoms: C15_21  and  O5_22
REMARK    9  A    between atoms: C18_25  and  C19_26
REMARK   10  A    between atoms: C24_33  and  O8_34
ROOT
HETATM    1  C8  UNL     1      19.635   6.951  19.255  1.00  0.00     0.138 C
ENDROOT
BRANCH   1   2
HETATM    2  C7  UNL     1      18.735   7.506  20.298  1.00  0.00     0.038 C
BRANCH   2   3
HETATM    3  C6  UNL     1      17.623   6.626  20.754  1.00  0.00    -0.005 C
HETATM    4  C5  UNL     1      18.041   5.187  20.896  1.00  0.00     0.014 C
HETATM    5  C3  UNL     1      16.919   4.238  21.112  1.00  0.00    -0.038 C
HETATM    6  C4  UNL     1      16.042   4.021  19.884  1.00  0.00     0.015 C
HETATM    7  C26 UNL     1      16.061   4.728  22.276  1.00  0.00     0.025 C
HETATM    8  C24 UNL     1      14.985   5.665  21.857  1.00  0.00     0.126 C
HETATM    9  C27 UNL     1      16.935   5.214  23.377  1.00  0.00     0.039 C
HETATM   10  C23 UNL     1      15.390   7.107  21.767  1.00  0.00     0.039 C
HETATM   11  C22 UNL     1      16.915   7.211  21.915  1.00  0.00     0.020 C
HETATM   12  C28 UNL     1      17.252   6.699  23.262  1.00  0.00     0.034 C
HETATM   13  C29 UNL     1      18.643   7.029  23.752  1.00  0.00     0.036 C
HETATM   14  N1  UNL     1      16.421   7.366  24.222  1.00  0.00    -0.393 N
HETATM   15  C30 UNL     1      18.412   7.294  25.225  1.00  0.00     0.046 C
HETATM   16  C31 UNL     1      17.001   7.696  25.273  1.00  0.00     0.056 C
ATOM     17  H1  UNL     1      15.432   7.554  24.058  1.00  0.00     0.159 HD
BRANCH   5  18
HETATM   18  C2  UNL     1      17.460   2.882  21.502  1.00  0.00     0.005 C
HETATM   19  C1  UNL     1      18.941   2.760  21.349  1.00  0.00     0.006 C
ENDBRANCH   5  18
BRANCH   8  20
HETATM   20  O8  UNL     1      13.924   5.604  22.782  1.00  0.00    -0.390 OA
HETATM   21  C25 UNL     1      13.169   4.454  22.562  1.00  0.00     0.202 C
ENDBRANCH   8  20
ENDBRANCH   2   3
ENDBRANCH   1   2
BRANCH   1  22
HETATM   22  O1  UNL     1      19.631   7.918  18.213  1.00  0.00    -0.394 OA
ATOM     23  H1  UNL     1      20.547   8.057  18.004  1.00  0.00     0.210 HD
ENDBRANCH   1  22
BRANCH   1  24
HETATM   24  C9  UNL     1      21.072   6.835  19.651  1.00  0.00     0.088 C
HETATM   25  C11 UNL     1      21.609   5.518  20.022  1.00  0.00     0.042 C
HETATM   26  C12 UNL     1      23.101   5.697  20.270  1.00  0.00     0.136 C
HETATM   27  C20 UNL     1      21.773   4.714  18.729  1.00  0.00     0.010 C
HETATM   28  C13 UNL     1      23.598   6.105  18.872  1.00  0.00     0.027 C
HETATM   29  C14 UNL     1      24.942   5.610  18.519  1.00  0.00     0.022 C
HETATM   30  C15 UNL     1      23.292   7.568  18.646  1.00  0.00     0.139 C
HETATM   31  C18 UNL     1      22.448   5.788  17.935  1.00  0.00     0.071 C
HETATM   32  C17 UNL     1      21.871   7.123  18.368  1.00  0.00     0.058 C
HETATM   33  C21 UNL     1      20.620   4.035  18.196  1.00  0.00     0.012 C
BRANCH  24  34
HETATM   34  C10 UNL     1      21.305   7.895  20.667  1.00  0.00     0.185 C
HETATM   35  O2  UNL     1      21.207   9.123  20.443  1.00  0.00    -0.647 OA
HETATM   36  O3  UNL     1      21.659   7.537  21.975  1.00  0.00    -0.647 OA
ENDBRANCH  24  34
BRANCH  26  37
HETATM   37  O4  UNL     1      23.683   4.467  20.583  1.00  0.00    -0.394 OA
ATOM     38  H4  UNL     1      23.925   4.011  19.786  1.00  0.00     0.210 HD
ENDBRANCH  26  37
BRANCH  30  39
HETATM   39  O5  UNL     1      23.879   8.158  17.559  1.00  0.00    -0.389 OA
HETATM   40  C16 UNL     1      24.442   9.375  17.964  1.00  0.00     0.202 C
ENDBRANCH  30  39
BRANCH  31  41
HETATM   41  C19 UNL     1      22.729   5.597  16.547  1.00  0.00     0.183 C
HETATM   42  O6  UNL     1      22.238   6.351  15.671  1.00  0.00    -0.647 OA
HETATM   43  O7  UNL     1      23.546   4.581  16.085  1.00  0.00    -0.647 OA
ENDBRANCH  31  41
ENDBRANCH   1  24
TORSDOF 10
ENDMDL