MODEL 4
REMARK VINA RESULT: -7.140847619      1.984      4.410
REMARK  8 active torsions:
REMARK  status: ('A' for Active; 'I' for Inactive)
REMARK    1  A    between atoms: C2_2  and  C3_3
REMARK    2  A    between atoms: C13_13  and  C14_14
REMARK    3  A    between atoms: C16_18  and  C18_20
REMARK    4  A    between atoms: C20_23  and  C21_24
REMARK    5  A    between atoms: C25_30  and  O5_31
REMARK    6  A    between atoms: C26_33  and  C27_34
REMARK    7  A    between atoms: C27_34  and  O6_35
REMARK    8  A    between atoms: C29_38  and  O7_39
ROOT
HETATM    1  C3  UNL     1      23.171   3.184  18.443  1.00  0.00    -0.026 C
HETATM    2  C4  UNL     1      23.837   3.046  19.859  1.00  0.00     0.019 C
HETATM    3  C5  UNL     1      23.397   1.909  17.842  1.00  0.00     0.016 C
HETATM    4  C6  UNL     1      22.573   0.643  18.184  1.00  0.00     0.037 C
HETATM    5  C7  UNL     1      21.272   1.204  18.271  1.00  0.00     0.147 C
HETATM    6  C8  UNL     1      19.931   0.730  18.531  1.00  0.00     0.009 C
HETATM    7  C9  UNL     1      18.852   1.544  18.704  1.00  0.00    -0.065 A
HETATM    8  C10 UNL     1      17.540   2.247  18.921  1.00  0.00     0.030 A
HETATM    9  C11 UNL     1      16.916   2.622  20.164  1.00  0.00     0.018 C
HETATM   10  C12 UNL     1      17.181   4.102  20.429  1.00  0.00     0.038 C
HETATM   11  C13 UNL     1      17.202   5.045  19.325  1.00  0.00     0.082 C
HETATM   12  C15 UNL     1      16.846   6.440  19.900  1.00  0.00     0.043 C
HETATM   13  C16 UNL     1      17.591   6.865  21.095  1.00  0.00     0.007 C
HETATM   14  C17 UNL     1      18.232   8.251  20.875  1.00  0.00     0.027 C
HETATM   15  S1  UNL     1      18.933   5.762  21.573  1.00  0.00    -0.137 SA
HETATM   16  C20 UNL     1      18.549   4.121  21.049  1.00  0.00     0.107 C
HETATM   17  C22 UNL     1      19.433   3.494  20.035  1.00  0.00     0.043 A
HETATM   18  C23 UNL     1      18.741   2.932  18.864  1.00  0.00     0.009 A
HETATM   19  C24 UNL     1      19.484   4.060  18.710  1.00  0.00     0.021 A
HETATM   20  C25 UNL     1      18.443   5.178  18.502  1.00  0.00     0.148 C
HETATM   21  C26 UNL     1      20.766   4.100  17.874  1.00  0.00     0.043 C
HETATM   22  C28 UNL     1      22.053   4.061  18.622  1.00  0.00     0.030 C
HETATM   23  C29 UNL     1      20.595   3.010  16.851  1.00  0.00     0.271 C
HETATM   24  O8  UNL     1      21.179   1.863  17.099  1.00  0.00    -0.351 OA
ENDROOT
BRANCH   1  25
HETATM   25  C2  UNL     1      24.290   4.025  17.801  1.00  0.00    -0.028 C
HETATM   26  C1  UNL     1      24.491   4.189  16.539  1.00  0.00     0.007 C
ENDBRANCH   1  25
BRANCH  21  27
HETATM   27  C27 UNL     1      20.822   5.394  17.068  1.00  0.00     0.179 C
BRANCH  27  28
HETATM   28  O6  UNL     1      21.672   6.333  17.711  1.00  0.00    -0.400 OA
ATOM     29  H6  UNL     1      21.780   7.103  17.165  1.00  0.00     0.209 HD
ENDBRANCH  27  28
ENDBRANCH  21  27
BRANCH  23  30
HETATM   30  O7  UNL     1      21.088   3.401  15.578  1.00  0.00    -0.365 OA
HETATM   31  C30 UNL     1      21.076   2.330  14.725  1.00  0.00     0.204 C
ENDBRANCH  23  30
BRANCH  20  32
HETATM   32  O5  UNL     1      18.897   6.437  18.513  1.00  0.00    -0.393 OA
ATOM     33  H5  UNL     1      18.187   7.059  18.408  1.00  0.00     0.210 HD
ENDBRANCH  20  32
BRANCH  16  34
HETATM   34  C21 UNL     1      18.480   3.261  22.288  1.00  0.00     0.193 C
HETATM   35  O3  UNL     1      17.772   3.659  23.242  1.00  0.00    -0.647 OA
HETATM   36  O4  UNL     1      19.155   2.074  22.404  1.00  0.00    -0.647 OA
ENDBRANCH  16  34
BRANCH  11  37
HETATM   37  C14 UNL     1      16.007   4.799  18.464  1.00  0.00     0.185 C
HETATM   38  O1  UNL     1      16.152   4.635  17.244  1.00  0.00    -0.647 OA
HETATM   39  O2  UNL     1      14.767   4.764  19.064  1.00  0.00    -0.647 OA
ENDBRANCH  11  37
BRANCH  13  40
HETATM   40  C18 UNL     1      16.639   7.126  22.275  1.00  0.00     0.016 C
HETATM   41  C19 UNL     1      15.310   7.635  21.797  1.00  0.00     0.006 C
ENDBRANCH  13  40
TORSDOF 8
ENDMDL