MODEL 3
REMARK VINA RESULT: -6.094398317      1.860      3.078
REMARK  12 active torsions:
REMARK  status: ('A' for Active; 'I' for Inactive)
REMARK    1  A    between atoms: C5_5  and  C6_6
REMARK    2  A    between atoms: C5_5  and  N2_12
REMARK    3  A    between atoms: C6_6  and  O1_7
REMARK    4  A    between atoms: C6_6  and  N1_9
REMARK    5  A    between atoms: N2_12  and  C9_13
REMARK    6  A    between atoms: N2_12  and  C14_18
REMARK    7  A    between atoms: C10_14  and  C11_15
REMARK    8  A    between atoms: C23_27  and  O2_28
REMARK    9  A    between atoms: C24_30  and  O3_31
REMARK   10  A    between atoms: C25_33  and  O4_34
REMARK   11  A    between atoms: C26_36  and  O5_37
REMARK   12  A    between atoms: C27_39  and  O6_40
ROOT
HETATM    1  C1  UNL     1      20.071   2.604  20.867  1.00  0.00     0.016 C
HETATM    2  C2  UNL     1      19.216   3.270  20.103  1.00  0.00    -0.066 C
HETATM    3  C3  UNL     1      17.848   3.545  20.634  1.00  0.00     0.038 C
HETATM    4  C4  UNL     1      17.863   4.079  22.005  1.00  0.00     0.044 C
HETATM    5  C5  UNL     1      17.511   5.525  22.277  1.00  0.00     0.097 C
HETATM    6  C18 UNL     1      18.777   6.275  21.987  1.00  0.00     0.040 C
HETATM    7  C19 UNL     1      19.088   7.540  22.660  1.00  0.00     0.003 C
HETATM    8  C20 UNL     1      20.494   7.611  23.294  1.00  0.00     0.000 C
HETATM    9  C21 UNL     1      21.464   7.244  22.210  1.00  0.00     0.002 C
HETATM   10  C22 UNL     1      22.466   8.330  21.879  1.00  0.00     0.034 C
HETATM   11  C23 UNL     1      22.478   8.675  20.422  1.00  0.00     0.149 C
HETATM   12  C24 UNL     1      23.581   8.096  19.614  1.00  0.00     0.178 C
HETATM   13  C25 UNL     1      23.806   6.631  19.729  1.00  0.00     0.180 C
HETATM   14  C26 UNL     1      23.786   5.895  18.402  1.00  0.00     0.180 C
HETATM   15  C27 UNL     1      22.396   5.418  18.041  1.00  0.00     0.175 C
HETATM   16  C29 UNL     1      21.754   4.567  19.077  1.00  0.00     0.202 C
HETATM   17  O7  UNL     1      20.996   3.508  18.586  1.00  0.00    -0.384 OA
HETATM   18  C30 UNL     1      19.636   3.715  18.745  1.00  0.00     0.201 C
ENDROOT
BRANCH   5  19
HETATM   19  C6  UNL     1      17.426   5.650  23.755  1.00  0.00     0.142 C
BRANCH  19  20
HETATM   20  O1  UNL     1      17.811   4.642  24.487  1.00  0.00    -0.348 OA
ATOM     21  H1  UNL     1      17.593   4.645  25.412  1.00  0.00     0.219 HD
ENDBRANCH  19  20
BRANCH  19  22
HETATM   22  N1  UNL     1      17.009   6.649  24.631  1.00  0.00    -0.372 N
HETATM   23  C7  UNL     1      17.820   6.874  25.870  1.00  0.00     0.150 C
HETATM   24  C8  UNL     1      15.893   7.547  24.579  1.00  0.00     0.150 C
ENDBRANCH  19  22
ENDBRANCH   5  19
BRANCH   5  25
HETATM   25  N2  UNL     1      16.324   5.953  21.559  1.00  0.00    -0.365 N
BRANCH  25  26
HETATM   26  C9  UNL     1      15.254   5.350  22.180  1.00  0.00     0.084 C
HETATM   27  C10 UNL     1      14.495   4.153  22.069  1.00  0.00    -0.006 C
BRANCH  27  28
HETATM   28  C11 UNL     1      13.634   3.830  20.863  1.00  0.00     0.001 C
HETATM   29  C12 UNL     1      14.192   2.523  20.218  1.00  0.00     0.013 C
HETATM   30  C13 UNL     1      12.227   3.414  21.246  1.00  0.00     0.013 C
ENDBRANCH  27  28
ENDBRANCH  25  26
BRANCH  25  31
HETATM   31  C14 UNL     1      16.306   6.837  20.528  1.00  0.00     0.022 C
HETATM   32  C15 UNL     1      17.514   7.106  19.670  1.00  0.00     0.037 C
HETATM   33  C16 UNL     1      15.653   8.148  20.757  1.00  0.00     0.037 C
HETATM   34  C17 UNL     1      15.416   6.184  19.382  1.00  0.00     0.037 C
ENDBRANCH  25  31
ENDBRANCH   5  25
BRANCH  11  35
HETATM   35  O2  UNL     1      22.575  10.076  20.327  1.00  0.00    -0.393 OA
ATOM     36  H2  UNL     1      23.429  10.274  19.960  1.00  0.00     0.210 HD
ENDBRANCH  11  35
BRANCH  15  37
HETATM   37  O6  UNL     1      22.401   4.764  16.835  1.00  0.00    -0.386 OA
HETATM   38  C28 UNL     1      21.931   5.561  15.786  1.00  0.00     0.202 C
ENDBRANCH  15  37
BRANCH  12  39
HETATM   39  O3  UNL     1      23.293   8.352  18.251  1.00  0.00    -0.390 OA
ATOM     40  H3  UNL     1      23.327   7.522  17.789  1.00  0.00     0.210 HD
ENDBRANCH  12  39
BRANCH  14  41
HETATM   41  O5  UNL     1      24.698   4.862  18.467  1.00  0.00    -0.390 OA
ATOM     42  H5  UNL     1      24.218   4.046  18.550  1.00  0.00     0.210 HD
ENDBRANCH  14  41
BRANCH  13  43
HETATM   43  O4  UNL     1      25.112   6.457  20.248  1.00  0.00    -0.390 OA
ATOM     44  H4  UNL     1      25.037   6.485  21.195  1.00  0.00     0.210 HD
ENDBRANCH  13  43
TORSDOF 12
ENDMDL