MODEL 5
REMARK VINA RESULT: -8.578707257      5.784      9.580
REMARK  10 active torsions:
REMARK  status: ('A' for Active; 'I' for Inactive)
REMARK    1  A    between atoms: C2_2  and  C3_3
REMARK    2  A    between atoms: C7_8  and  O2_9
REMARK    3  A    between atoms: C16_19  and  O3_20
REMARK    4  A    between atoms: O3_20  and  C17_21
REMARK    5  A    between atoms: C17_21  and  C18_23
REMARK    6  A    between atoms: C18_23  and  N1_24
REMARK       I    between atoms: N1_24  and  C19_26
REMARK    7  A    between atoms: C19_26  and  C20_28
REMARK    8  A    between atoms: C20_28  and  C21_29
REMARK    9  A    between atoms: C21_29  and  C22_30
REMARK   10  A    between atoms: C29_39  and  O7_41
ROOT
HETATM    1  C3  UNL     1      23.148   4.807  16.956  1.00  0.00     0.041 C
HETATM    2  C4  UNL     1      22.090   5.053  15.953  1.00  0.00     0.028 C
HETATM    3  C5  UNL     1      24.491   5.341  16.515  1.00  0.00     0.142 C
HETATM    4  O1  UNL     1      25.083   4.885  15.556  1.00  0.00    -0.297 OA
HETATM    5  C6  UNL     1      24.911   6.455  17.425  1.00  0.00     0.120 C
HETATM    6  C7  UNL     1      23.574   6.826  18.037  1.00  0.00     0.100 C
HETATM    7  C8  UNL     1      22.982   5.466  18.273  1.00  0.00     0.047 C
HETATM    8  C9  UNL     1      21.606   5.471  18.843  1.00  0.00    -0.001 C
HETATM    9  C10 UNL     1      21.479   4.290  19.764  1.00  0.00     0.006 C
HETATM   10  C11 UNL     1      20.268   4.288  20.624  1.00  0.00     0.007 C
HETATM   11  C12 UNL     1      19.399   5.458  20.236  1.00  0.00     0.004 C
HETATM   12  C13 UNL     1      18.023   5.335  20.824  1.00  0.00    -0.017 C
HETATM   13  C14 UNL     1      17.395   4.120  20.111  1.00  0.00     0.018 C
HETATM   14  C15 UNL     1      17.986   5.009  22.280  1.00  0.00     0.018 C
HETATM   15  C16 UNL     1      17.174   6.510  20.436  1.00  0.00     0.140 C
HETATM   16  C23 UNL     1      17.913   7.425  19.450  1.00  0.00     0.034 C
HETATM   17  C24 UNL     1      19.143   7.901  20.161  1.00  0.00     0.012 C
HETATM   18  C25 UNL     1      20.110   6.738  20.435  1.00  0.00    -0.035 C
HETATM   19  C26 UNL     1      20.565   6.939  21.873  1.00  0.00     0.016 C
HETATM   20  C27 UNL     1      21.281   6.781  19.464  1.00  0.00     0.002 C
HETATM   21  C28 UNL     1      22.427   7.471  20.134  1.00  0.00     0.046 C
HETATM   22  C29 UNL     1      23.680   7.549  19.332  1.00  0.00     0.086 C
HETATM   23  C30 UNL     1      24.869   7.051  20.167  1.00  0.00     0.049 C
ENDROOT
BRANCH  15  24
HETATM   24  O3  UNL     1      16.814   7.328  21.536  1.00  0.00    -0.314 OA
BRANCH  24  25
HETATM   25  C17 UNL     1      15.521   7.749  21.766  1.00  0.00     0.277 C
HETATM   26  O4  UNL     1      15.099   8.716  21.114  1.00  0.00    -0.263 OA
BRANCH  25  27
HETATM   27  C18 UNL     1      14.639   7.090  22.751  1.00  0.00     0.233 C
BRANCH  27  28
HETATM   28  N1  UNL     1      14.329   5.720  22.423  1.00  0.00    -0.352 N
HETATM   29  C19 UNL     1      13.108   5.120  22.776  1.00  0.00     0.218 C
HETATM   30  O5  UNL     1      12.194   5.716  23.395  1.00  0.00    -0.274 OA
ATOM     31  H1  UNL     1      15.020   5.166  21.916  1.00  0.00     0.162 HD
BRANCH  29  32
HETATM   32  C20 UNL     1      12.856   3.691  22.405  1.00  0.00     0.111 C
BRANCH  32  33
HETATM   33  C21 UNL     1      12.068   3.586  21.123  1.00  0.00     0.109 C
BRANCH  33  34
HETATM   34  C22 UNL     1      12.995   3.274  20.019  1.00  0.00     0.231 C
HETATM   35  N2  UNL     1      12.917   1.996  19.389  1.00  0.00    -0.062 NA
HETATM   36  O6  UNL     1      13.840   4.113  19.633  1.00  0.00    -0.277 OA
ENDBRANCH  33  34
ENDBRANCH  32  33
ENDBRANCH  29  32
ENDBRANCH  27  28
ENDBRANCH  25  27
ENDBRANCH  24  25
ENDBRANCH  15  24
BRANCH  22  37
HETATM   37  O7  UNL     1      24.029   8.886  19.007  1.00  0.00    -0.387 OA
ATOM     38  H7  UNL     1      24.475   8.845  18.169  1.00  0.00     0.210 HD
ENDBRANCH  22  37
BRANCH   1  39
HETATM   39  C2  UNL     1      23.336   3.317  17.068  1.00  0.00    -0.020 C
HETATM   40  C1  UNL     1      22.384   2.499  16.670  1.00  0.00     0.008 C
ENDBRANCH   1  39
BRANCH   6  41
HETATM   41  O2  UNL     1      22.904   7.597  17.130  1.00  0.00    -0.386 OA
ATOM     42  H2  UNL     1      22.120   7.125  16.877  1.00  0.00     0.210 HD
ENDBRANCH   6  41
TORSDOF 10
ENDMDL