MODEL 2
REMARK VINA RESULT: -10.527167133      1.172      1.617
REMARK  8 active torsions:
REMARK  status: ('A' for Active; 'I' for Inactive)
REMARK       I    between atoms: C1_2  and  N1_3
REMARK       I    between atoms: C1_2  and  N6_31
REMARK    1  A    between atoms: N1_3  and  C2_5
REMARK    2  A    between atoms: N2_8  and  C5_9
REMARK    3  A    between atoms: C5_9  and  C6_10
REMARK    4  A    between atoms: C6_10  and  C7_11
REMARK    5  A    between atoms: C10_14  and  N3_15
REMARK    6  A    between atoms: N3_15  and  C11_17
REMARK    7  A    between atoms: C14_20  and  N4_21
REMARK    8  A    between atoms: N6_31  and  C20_33
ROOT
HETATM    1  C2  UNL     1      22.699  10.542  21.654  1.00  0.00     0.089 C
HETATM    2  C3  UNL     1      23.084  11.902  21.220  1.00  0.00     0.055 C
HETATM    3  C4  UNL     1      24.376  12.396  21.810  1.00  0.00     0.274 C
HETATM    4  N2  UNL     1      24.496  12.160  23.211  1.00  0.00     0.088 N
HETATM    5  C18 UNL     1      24.017  10.912  23.679  1.00  0.00     0.274 C
HETATM    6  C19 UNL     1      22.722  10.456  23.143  1.00  0.00     0.055 C
ENDROOT
BRANCH   1   7
HETATM    7  N1  UNL     1      23.450   9.476  21.000  1.00  0.00    -0.338 N
HETATM    8  C1  UNL     1      22.849   8.279  20.561  1.00  0.00     0.316 C
HETATM    9  O1  UNL     1      21.626   8.103  20.724  1.00  0.00    -0.247 OA
HETATM   10  N6  UNL     1      23.621   7.268  19.938  1.00  0.00    -0.338 N
ATOM     11  H6  UNL     1      24.620   7.429  19.811  1.00  0.00     0.164 HD
ATOM     12  H1  UNL     1      24.452   9.603  20.854  1.00  0.00     0.164 HD
BRANCH  10  13
HETATM   13  C20 UNL     1      23.053   6.002  19.466  1.00  0.00     0.091 C
HETATM   14  C21 UNL     1      23.230   5.942  17.963  1.00  0.00     0.032 C
HETATM   15  C22 UNL     1      24.362   4.969  18.109  1.00  0.00     0.025 C
HETATM   16  C23 UNL     1      24.087   3.564  17.635  1.00  0.00     0.194 C
HETATM   17  C26 UNL     1      24.035   4.907  19.613  1.00  0.00     0.023 C
HETATM   18  C24 UNL     1      24.576   2.789  18.875  1.00  0.00     0.043 C
HETATM   19  N7  UNL     1      22.665   3.342  17.725  1.00  0.00    -0.038 N
HETATM   20  C25 UNL     1      23.591   3.505  19.832  1.00  0.00     0.057 C
HETATM   21  C27 UNL     1      22.325   3.141  19.102  1.00  0.00     0.232 C
HETATM   22  C28 UNL     1      21.941   1.716  19.422  1.00  0.00     0.095 C
HETATM   23  O4  UNL     1      21.152   3.605  19.582  1.00  0.00    -0.354 OA
HETATM   24  C29 UNL     1      20.577   2.339  19.357  1.00  0.00     0.176 C
ATOM     25  H72 UNL     1      22.123   4.090  17.292  1.00  0.00     0.281 HD
ATOM     26  H71 UNL     1      22.349   2.577  17.127  1.00  0.00     0.281 HD
ENDBRANCH  10  13
ENDBRANCH   1   7
BRANCH   4  27
HETATM   27  C5  UNL     1      23.903  13.205  23.992  1.00  0.00     0.272 C
BRANCH  27  28
HETATM   28  C6  UNL     1      24.524  13.501  25.296  1.00  0.00     0.034 C
BRANCH  28  29
HETATM   29  C7  UNL     1      23.421  13.920  26.292  1.00  0.00    -0.013 C
HETATM   30  C8  UNL     1      22.193  14.402  25.639  1.00  0.00     0.007 C
HETATM   31  C9  UNL     1      20.880  13.855  26.047  1.00  0.00     0.025 C
HETATM   32  C10 UNL     1      20.823  12.438  26.483  1.00  0.00     0.083 C
HETATM   33  C16 UNL     1      22.199  11.812  26.619  1.00  0.00     0.025 C
HETATM   34  C17 UNL     1      23.154  12.800  27.256  1.00  0.00     0.007 C
BRANCH  32  35
HETATM   35  N3  UNL     1      20.165  12.279  27.770  1.00  0.00    -0.372 N
ATOM     36  H3  UNL     1      20.222  13.052  28.433  1.00  0.00     0.161 HD
BRANCH  35  37
HETATM   37  C11 UNL     1      19.518  11.228  28.128  1.00  0.00     0.101 A
HETATM   38  C12 UNL     1      18.255  10.900  27.728  1.00  0.00     0.051 A
HETATM   39  C13 UNL     1      17.623   9.763  28.170  1.00  0.00     0.041 A
HETATM   40  C14 UNL     1      18.260   8.896  29.054  1.00  0.00     0.118 A
HETATM   41  C15 UNL     1      19.538   9.274  29.427  1.00  0.00     0.125 A
HETATM   42  N5  UNL     1      20.150  10.387  28.990  1.00  0.00    -0.350 N
ATOM     43  H5  UNL     1      21.095  10.603  29.306  1.00  0.00     0.166 HD
BRANCH  40  44
HETATM   44  N4  UNL     1      17.646   7.722  29.537  1.00  0.00    -0.114 N
HETATM   45  O2  UNL     1      17.931   7.301  30.662  1.00  0.00    -0.532 OA
HETATM   46  O3  UNL     1      16.744   7.055  28.777  1.00  0.00    -0.532 OA
ENDBRANCH  40  44
ENDBRANCH  35  37
ENDBRANCH  32  35
ENDBRANCH  28  29
ENDBRANCH  27  28
ENDBRANCH   4  27
TORSDOF 8
ENDMDL