MODEL 1
REMARK VINA RESULT: -9.098424963      0.000      0.000
REMARK  9 active torsions:
REMARK  status: ('A' for Active; 'I' for Inactive)
REMARK    1  A    between atoms: C2_2  and  C4_4
REMARK    2  A    between atoms: C4_4  and  C5_5
REMARK    3  A    between atoms: C5_5  and  C7_7
REMARK    4  A    between atoms: C7_7  and  N1_8
REMARK    5  A    between atoms: N1_8  and  C8_10
REMARK    6  A    between atoms: C13_17  and  O3_18
REMARK    7  A    between atoms: C16_22  and  C17_23
REMARK    8  A    between atoms: C19_26  and  C20_27
REMARK    9  A    between atoms: C32_41  and  O7_42
ROOT
HETATM    1  C8  UNL     1      22.097   7.135  21.086  1.00  0.00     0.078 C
HETATM    2  C9  UNL     1      20.782   7.601  20.636  1.00  0.00     0.042 C
HETATM    3  C10 UNL     1      19.987   7.093  19.552  1.00  0.00     0.125 C
HETATM    4  C11 UNL     1      18.516   7.155  19.999  1.00  0.00     0.266 C
HETATM    5  O1  UNL     1      17.865   8.220  20.143  1.00  0.00    -0.265 OA
HETATM    6  O2  UNL     1      18.049   5.854  20.212  1.00  0.00    -0.318 OA
HETATM    7  C12 UNL     1      19.265   5.061  20.170  1.00  0.00     0.218 C
HETATM    8  C13 UNL     1      19.924   5.783  18.987  1.00  0.00     0.103 C
HETATM    9  C14 UNL     1      21.075   5.053  18.388  1.00  0.00     0.035 C
HETATM   10  C15 UNL     1      21.893   4.690  19.586  1.00  0.00     0.034 C
HETATM   11  C16 UNL     1      23.229   5.459  19.483  1.00  0.00     0.037 C
HETATM   12  C18 UNL     1      23.141   6.820  20.054  1.00  0.00     0.042 C
HETATM   13  C19 UNL     1      23.416   5.374  18.033  1.00  0.00     0.102 C
HETATM   14  C21 UNL     1      23.874   4.202  17.357  1.00  0.00     0.038 C
HETATM   15  C22 UNL     1      23.393   4.541  15.921  1.00  0.00     0.019 C
HETATM   16  C23 UNL     1      22.074   5.187  16.132  1.00  0.00     0.031 C
HETATM   17  C24 UNL     1      20.909   4.249  16.055  1.00  0.00    -0.033 C
HETATM   18  C25 UNL     1      21.067   3.081  15.141  1.00  0.00     0.016 C
HETATM   19  C26 UNL     1      19.818   5.067  15.342  1.00  0.00     0.016 C
HETATM   20  C27 UNL     1      20.688   3.920  17.472  1.00  0.00     0.031 C
HETATM   21  C28 UNL     1      21.141   2.563  17.895  1.00  0.00    -0.020 C
HETATM   22  C29 UNL     1      22.489   2.070  17.905  1.00  0.00    -0.001 C
HETATM   23  C30 UNL     1      23.696   2.787  17.550  1.00  0.00    -0.079 C
HETATM   24  C31 UNL     1      24.882   2.161  18.320  1.00  0.00     0.044 C
HETATM   25  C32 UNL     1      22.015   5.771  17.527  1.00  0.00     0.093 C
ENDROOT
BRANCH   1  26
HETATM   26  N1  UNL     1      22.680   8.294  21.791  1.00  0.00    -0.417 N
ATOM     27  H1  UNL     1      23.565   8.238  22.295  1.00  0.00     0.153 HD
BRANCH  26  28
HETATM   28  C7  UNL     1      21.922   9.487  21.716  1.00  0.00     0.118 C
BRANCH  28  29
HETATM   29  C5  UNL     1      22.937  10.647  21.656  1.00  0.00    -0.001 C
HETATM   30  C6  UNL     1      23.674  10.524  20.379  1.00  0.00     0.011 C
BRANCH  29  31
HETATM   31  C4  UNL     1      23.677  10.592  22.925  1.00  0.00     0.010 C
BRANCH  31  32
HETATM   32  C2  UNL     1      23.971  11.823  23.670  1.00  0.00    -0.022 C
HETATM   33  C1  UNL     1      25.438  12.063  23.866  1.00  0.00     0.009 C
HETATM   34  C3  UNL     1      23.259  13.050  23.145  1.00  0.00     0.009 C
ENDBRANCH  31  32
ENDBRANCH  29  31
ENDBRANCH  28  29
ENDBRANCH  26  28
ENDBRANCH   1  26
BRANCH  11  35
HETATM   35  C17 UNL     1      24.149   4.667  20.338  1.00  0.00     0.242 C
HETATM   36  O4  UNL     1      25.207   5.136  20.713  1.00  0.00    -0.306 OA
ENDBRANCH  11  35
BRANCH   8  37
HETATM   37  O3  UNL     1      18.816   5.752  18.102  1.00  0.00    -0.386 OA
ATOM     38  H3  UNL     1      18.916   4.988  17.546  1.00  0.00     0.210 HD
ENDBRANCH   8  37
BRANCH  13  39
HETATM   39  C20 UNL     1      24.279   6.526  17.627  1.00  0.00     0.186 C
HETATM   40  O5  UNL     1      25.521   6.368  17.540  1.00  0.00    -0.647 OA
HETATM   41  O6  UNL     1      23.821   7.793  17.322  1.00  0.00    -0.647 OA
ENDBRANCH  13  39
BRANCH  25  42
HETATM   42  O7  UNL     1      21.839   7.109  17.366  1.00  0.00    -0.387 OA
ATOM     43  H7  UNL     1      22.606   7.643  17.192  1.00  0.00     0.210 HD
ENDBRANCH  25  42
TORSDOF 9
ENDMDL