MODEL 1
REMARK VINA RESULT: -8.018217246      0.000      0.000
REMARK  10 active torsions:
REMARK  status: ('A' for Active; 'I' for Inactive)
REMARK    1  A    between atoms: C2_2  and  C3_3
REMARK    2  A    between atoms: N1_4  and  C4_5
REMARK    3  A    between atoms: N1_4  and  C6_7
REMARK    4  A    between atoms: C9_11  and  C10_12
REMARK    5  A    between atoms: C10_12  and  C12_14
REMARK    6  A    between atoms: C15_18  and  O3_19
REMARK    7  A    between atoms: C16_21  and  O4_22
REMARK    8  A    between atoms: C17_24  and  O5_25
REMARK    9  A    between atoms: C21_30  and  O6_31
REMARK   10  A    between atoms: C25_36  and  C26_37
ROOT
HETATM    1  C6  UNL     1      17.706   4.886  20.392  1.00  0.00     0.029 C
HETATM    2  C7  UNL     1      19.168   4.848  19.966  1.00  0.00     0.018 C
HETATM    3  C8  UNL     1      19.710   3.519  19.623  1.00  0.00     0.149 C
HETATM    4  O1  UNL     1      20.557   3.314  18.611  1.00  0.00    -0.356 OA
HETATM    5  C9  UNL     1      21.751   3.877  18.505  1.00  0.00     0.146 C
HETATM    6  C14 UNL     1      21.582   5.266  17.988  1.00  0.00     0.062 C
HETATM    7  C15 UNL     1      22.370   5.573  16.738  1.00  0.00     0.157 C
HETATM    8  C16 UNL     1      21.858   7.004  16.522  1.00  0.00     0.177 C
HETATM    9  C17 UNL     1      20.398   6.870  16.829  1.00  0.00     0.162 C
HETATM   10  C18 UNL     1      20.188   5.731  17.789  1.00  0.00     0.024 C
HETATM   11  C19 UNL     1      19.293   4.774  16.990  1.00  0.00     0.024 C
HETATM   12  C20 UNL     1      19.498   6.014  19.061  1.00  0.00    -0.004 C
HETATM   13  C21 UNL     1      19.888   7.167  19.892  1.00  0.00     0.051 C
HETATM   14  C22 UNL     1      18.749   8.057  20.272  1.00  0.00     0.071 C
HETATM   15  C23 UNL     1      17.952   7.751  21.438  1.00  0.00     0.010 C
HETATM   16  C24 UNL     1      18.293   6.569  22.286  1.00  0.00     0.030 C
HETATM   17  C25 UNL     1      17.704   6.885  23.660  1.00  0.00    -0.075 C
HETATM   18  C29 UNL     1      16.450   7.312  23.671  1.00  0.00    -0.022 C
HETATM   19  C30 UNL     1      15.713   7.456  22.405  1.00  0.00     0.037 C
HETATM   20  C31 UNL     1      16.641   7.055  21.228  1.00  0.00    -0.026 C
HETATM   21  C32 UNL     1      15.851   7.188  20.026  1.00  0.00     0.016 C
HETATM   22  C33 UNL     1      17.365   5.767  21.526  1.00  0.00     0.054 C
ENDROOT
BRANCH   1  23
HETATM   23  N1  UNL     1      17.027   3.665  20.503  1.00  0.00    -0.359 N
HETATM   24  C3  UNL     1      16.213   3.041  19.600  1.00  0.00     0.090 C
BRANCH  24  25
HETATM   25  C2  UNL     1      16.132   3.465  18.203  1.00  0.00     0.007 C
HETATM   26  C1  UNL     1      15.120   4.233  17.816  1.00  0.00     0.012 C
ENDBRANCH  24  25
BRANCH  23  27
HETATM   27  C4  UNL     1      17.021   3.069  21.814  1.00  0.00     0.124 C
HETATM   28  C5  UNL     1      15.634   2.645  22.248  1.00  0.00     0.027 C
ENDBRANCH  23  27
ENDBRANCH   1  23
BRANCH  13  29
HETATM   29  O6  UNL     1      21.008   7.912  19.547  1.00  0.00    -0.364 OA
ATOM     30  H6  UNL     1      20.936   8.588  18.884  1.00  0.00     0.217 HD
ENDBRANCH  13  29
BRANCH  17  31
HETATM   31  C26 UNL     1      18.453   6.746  24.921  1.00  0.00     0.006 C
HETATM   32  C27 UNL     1      17.700   5.796  25.848  1.00  0.00     0.014 C
HETATM   33  C28 UNL     1      18.450   8.119  25.580  1.00  0.00     0.014 C
ENDBRANCH  17  31
BRANCH   5  34
HETATM   34  C10 UNL     1      22.592   3.781  19.748  1.00  0.00     0.081 C
HETATM   35  C11 UNL     1      23.090   5.168  20.179  1.00  0.00     0.020 C
BRANCH  34  36
HETATM   36  C12 UNL     1      23.814   3.007  19.426  1.00  0.00     0.129 C
HETATM   37  C13 UNL     1      23.913   2.206  18.155  1.00  0.00     0.091 C
HETATM   38  O2  UNL     1      24.806   2.967  20.157  1.00  0.00    -0.298 OA
ENDBRANCH  34  36
ENDBRANCH   5  34
BRANCH   9  39
HETATM   39  O5  UNL     1      19.709   8.025  17.047  1.00  0.00    -0.392 OA
ATOM     40  H5  UNL     1      19.451   8.207  17.943  1.00  0.00     0.210 HD
ENDBRANCH   9  39
BRANCH   7  41
HETATM   41  O3  UNL     1      22.118   4.741  15.684  1.00  0.00    -0.392 OA
ATOM     42  H3  UNL     1      22.808   4.704  15.032  1.00  0.00     0.210 HD
ENDBRANCH   7  41
BRANCH   8  43
HETATM   43  O4  UNL     1      22.125   7.257  15.153  1.00  0.00    -0.390 OA
ATOM     44  H4  UNL     1      22.622   8.066  15.165  1.00  0.00     0.210 HD
ENDBRANCH   8  43
TORSDOF 10
ENDMDL