MODEL 4
REMARK VINA RESULT: -4.861647655      2.630      3.647
REMARK  2 active torsions:
REMARK  status: ('A' for Active; 'I' for Inactive)
REMARK    1  A    between atoms: N1_2  and  C2_3
REMARK    2  A    between atoms: C6_8  and  N2_9
ROOT
HETATM    1  N2  UNL     1      17.794   3.592  15.352  1.00  0.00    -0.299 N
ATOM      2  H2  UNL     1      18.808   3.483  15.351  1.00  0.00     0.173 HD
HETATM    3  C7  UNL     1      16.970   2.464  15.433  1.00  0.00     0.179 C
HETATM    4  N3  UNL     1      16.287   1.506  15.487  1.00  0.00    -0.172 NA
ENDROOT
BRANCH   1   5
HETATM    5  C6  UNL     1      17.217   4.894  15.271  1.00  0.00     0.298 C
HETATM    6  N1  UNL     1      17.459   5.603  14.049  1.00  0.00    -0.037 N
HETATM    7  C1  UNL     1      18.561   6.562  14.220  1.00  0.00     0.276 C
HETATM    8  C3  UNL     1      16.278   6.397  13.757  1.00  0.00     0.241 C
HETATM    9  C4  UNL     1      15.339   6.244  14.934  1.00  0.00     0.032 C
HETATM   10  C5  UNL     1      15.698   4.854  15.428  1.00  0.00     0.057 C
BRANCH   6  11
HETATM   11  C2  UNL     1      17.799   4.784  12.923  1.00  0.00     0.353 C
HETATM   12 CL1  UNL     1      16.395   4.136  12.064  1.00  0.00    -0.101 Cl
ENDBRANCH   6  11
ENDBRANCH   1   5
TORSDOF 2
ENDMDL