MODEL 5
REMARK VINA RESULT: -4.486659632      2.536      3.787
REMARK  1 active torsions:
REMARK  status: ('A' for Active; 'I' for Inactive)
REMARK    1  A    between atoms: C2_4  and  C3_6
ROOT
HETATM    1  C3  UNL     1      16.851   2.837  12.479  1.00  0.00     0.046 C
HETATM    2  C4  UNL     1      16.880   1.356  12.475  1.00  0.00     0.039 C
HETATM    3  C5  UNL     1      17.651   0.687  11.409  1.00  0.00     0.233 C
HETATM    4  N2  UNL     1      18.023   1.501  10.294  1.00  0.00    -0.075 N
ATOM      5  H21 UNL     1      17.231   1.751   9.702  1.00  0.00     0.277 HD
ATOM      6  H22 UNL     1      18.559   0.992   9.592  1.00  0.00     0.277 HD
HETATM    7  C6  UNL     1      18.727   2.658  10.810  1.00  0.00     0.233 C
HETATM    8  C7  UNL     1      17.725   3.526  11.501  1.00  0.00     0.039 C
ENDROOT
BRANCH   1   9
HETATM    9  C2  UNL     1      17.178   3.397  13.841  1.00  0.00     0.057 C
HETATM   10  N1  UNL     1      17.835   4.483  13.992  1.00  0.00    -0.391 N
HETATM   11  C1  UNL     1      18.115   4.967  15.320  1.00  0.00     0.146 C
ATOM     12  H1  UNL     1      18.160   5.004  13.178  1.00  0.00     0.159 HD
HETATM   13  S1  UNL     1      16.631   2.519  15.307  1.00  0.00    -0.038 SA
ENDBRANCH   1   9
TORSDOF 1
ENDMDL