MODEL 1
REMARK VINA RESULT: -4.947036560      0.000      0.000
REMARK  1 active torsions:
REMARK  status: ('A' for Active; 'I' for Inactive)
REMARK    1  A    between atoms: C4_5  and  C5_6
ROOT
HETATM    1  C1  UNL     1      14.361   2.908  17.164  1.00  0.00     0.310 C
HETATM    2  N1  UNL     1      15.290   3.886  16.619  1.00  0.00     0.091 N
HETATM    3  C2  UNL     1      14.513   5.039  16.208  1.00  0.00     0.273 C
HETATM    4  C3  UNL     1      15.205   5.643  15.020  1.00  0.00     0.044 C
HETATM    5  C4  UNL     1      16.242   4.634  14.668  1.00  0.00     0.030 C
HETATM    6  C6  UNL     1      17.549   5.040  15.261  1.00  0.00     0.245 C
HETATM    7  N2  UNL     1      18.223   3.835  15.686  1.00  0.00    -0.072 N
ATOM      8  H21 UNL     1      18.678   3.933  16.594  1.00  0.00     0.277 HD
ATOM      9  H22 UNL     1      19.059   3.633  15.139  1.00  0.00     0.277 HD
HETATM   10  C7  UNL     1      17.257   2.767  15.653  1.00  0.00     0.268 C
HETATM   11  C8  UNL     1      15.907   3.374  15.419  1.00  0.00     0.259 C
ENDROOT
BRANCH   5  12
HETATM   12  C5  UNL     1      16.332   4.389  13.176  1.00  0.00     0.128 C
HETATM   13 CL1  UNL     1      17.734   5.248  12.496  1.00  0.00    -0.130 Cl
ENDBRANCH   5  12
TORSDOF 1
ENDMDL