MODEL 4
REMARK VINA RESULT: -4.356861100      1.935      2.933
REMARK  2 active torsions:
REMARK  status: ('A' for Active; 'I' for Inactive)
REMARK    1  A    between atoms: O1_1  and  C1_3
REMARK    2  A    between atoms: C1_3  and  C2_5
ROOT
HETATM    1  C2  UNL     1      15.600   3.036  15.776  1.00  0.00     0.162 C
HETATM    2  C3  UNL     1      17.002   3.515  16.104  1.00  0.00     0.061 C
HETATM    3  C4  UNL     1      17.174   2.958  14.698  1.00  0.00     0.171 C
HETATM    4  O2  UNL     1      16.215   2.009  15.062  1.00  0.00    -0.382 OA
ENDROOT
BRANCH   1   5
HETATM    5  C1  UNL     1      14.776   2.601  16.950  1.00  0.00     0.218 C
HETATM    6 BR1  UNL     1      14.924   3.811  18.435  1.00  0.00    -0.059 Br
BRANCH   5   7
HETATM    7  O1  UNL     1      15.235   1.336  17.353  1.00  0.00    -0.382 OA
ATOM      8  H1  UNL     1      14.485   0.768  17.486  1.00  0.00     0.211 HD
ENDBRANCH   5   7
ENDBRANCH   1   5
TORSDOF 2
ENDMDL