MODEL 3
REMARK VINA RESULT: -5.319101514      0.995      1.180
REMARK  2 active torsions:
REMARK  status: ('A' for Active; 'I' for Inactive)
REMARK    1  A    between atoms: C2_2  and  N2_6
REMARK    2  A    between atoms: C4_9  and  C5_10
ROOT
HETATM    1  N2  UNL     1      16.763   3.026  13.993  1.00  0.00    -0.347 N
HETATM    2  C3  UNL     1      16.757   1.889  14.910  1.00  0.00     0.294 C
HETATM    3  O1  UNL     1      15.680   2.094  15.772  1.00  0.00    -0.364 OA
HETATM    4  C4  UNL     1      15.789   3.462  16.021  1.00  0.00     0.159 C
HETATM    5  C7  UNL     1      15.893   4.020  14.630  1.00  0.00     0.159 C
ENDROOT
BRANCH   1   6
HETATM    6  C2  UNL     1      17.469   3.089  12.783  1.00  0.00     0.070 C
HETATM    7  C1  UNL     1      17.198   2.120  11.687  1.00  0.00     0.088 C
HETATM    8  N1  UNL     1      18.372   3.998  12.606  1.00  0.00    -0.389 N
ATOM      9  H12 UNL     1      18.886   4.045  11.726  1.00  0.00     0.157 HD
ATOM     10  H11 UNL     1      18.558   4.662  13.357  1.00  0.00     0.157 HD
ENDBRANCH   1   6
BRANCH   4  11
HETATM   11  C5  UNL     1      14.614   3.999  16.791  1.00  0.00     0.109 C
HETATM   12  C6  UNL     1      14.449   5.459  16.392  1.00  0.00     0.029 C
HETATM   13 CL1  UNL     1      14.986   3.892  18.531  1.00  0.00    -0.123 Cl
ENDBRANCH   4  11
TORSDOF 2
ENDMDL