MODEL 4
REMARK VINA RESULT: -4.075903637      1.837      2.473
REMARK  2 active torsions:
REMARK  status: ('A' for Active; 'I' for Inactive)
REMARK    1  A    between atoms: C2_2  and  C3_3
REMARK    2  A    between atoms: C4_6  and  O2_7
ROOT
HETATM    1  C1  UNL     1      16.519   2.103  15.215  1.00  0.00     0.052 C
HETATM    2  C2  UNL     1      16.913   3.332  15.979  1.00  0.00     0.119 A
HETATM    3  O1  UNL     1      18.323   3.345  16.245  1.00  0.00    -0.342 OA
HETATM    4  C4  UNL     1      17.801   4.360  15.463  1.00  0.00     0.293 A
ENDROOT
BRANCH   2   5
HETATM    5  C3  UNL     1      16.003   3.694  17.114  1.00  0.00     0.128 C
HETATM    6 BR1  UNL     1      14.311   2.810  16.846  1.00  0.00    -0.093 Br
ENDBRANCH   2   5
BRANCH   4   7
HETATM    7  O2  UNL     1      17.985   4.379  14.097  1.00  0.00    -0.368 OA
ATOM      8  H2  UNL     1      18.794   3.999  13.776  1.00  0.00     0.212 HD
ENDBRANCH   4   7
TORSDOF 2
ENDMDL