MODEL 5
REMARK VINA RESULT: -3.645117767      4.015      4.988
REMARK  1 active torsions:
REMARK  status: ('A' for Active; 'I' for Inactive)
REMARK    1  A    between atoms: C3_7  and  C4_8
ROOT
HETATM    1  C1  UNL     1      16.349   2.092  11.018  1.00  0.00     0.315 C
HETATM    2  N1  UNL     1      17.337   3.103  11.108  1.00  0.00     0.144 N
HETATM    3  C2  UNL     1      18.718   2.695  11.084  1.00  0.00     0.508 C
HETATM    4  N2  UNL     1      18.990   3.751  12.059  1.00  0.00    -0.013 N
ATOM      5  H21 UNL     1      19.464   4.613  11.790  1.00  0.00     0.282 HD
ATOM      6  H22 UNL     1      19.689   3.628  12.792  1.00  0.00     0.282 HD
HETATM    7  C3  UNL     1      17.561   3.734  12.362  1.00  0.00     0.447 C
ENDROOT
BRANCH   7   8
HETATM    8  C4  UNL     1      17.179   3.040  13.579  1.00  0.00     0.045 C
HETATM    9  C5  UNL     1      16.560   3.657  14.579  1.00  0.00     0.056 C
HETATM   10 BR1  UNL     1      16.054   2.746  16.183  1.00  0.00    -0.064 Br
ENDBRANCH   7   8
TORSDOF 1
ENDMDL