MODEL 5
REMARK VINA RESULT: -3.826357810      1.775      1.998
REMARK  2 active torsions:
REMARK  status: ('A' for Active; 'I' for Inactive)
REMARK    1  A    between atoms: C1_2  and  O1_3
REMARK    2  A    between atoms: O1_3  and  C2_4
ROOT
HETATM    1  C2  UNL     1      16.403   4.635  14.621  1.00  0.00     0.149 C
HETATM    2  C3  UNL     1      16.877   6.092  14.701  1.00  0.00     0.061 C
HETATM    3  C4  UNL     1      18.384   5.868  14.634  1.00  0.00     0.235 C
HETATM    4  N1  UNL     1      18.624   4.657  15.387  1.00  0.00    -0.073 N
ATOM      5  H11 UNL     1      19.149   4.822  16.246  1.00  0.00     0.277 HD
ATOM      6  H12 UNL     1      19.298   4.036  14.935  1.00  0.00     0.277 HD
HETATM    7  C5  UNL     1      17.356   4.027  15.621  1.00  0.00     0.264 C
ENDROOT
BRANCH   1   8
HETATM    8  O1  UNL     1      15.098   4.490  15.022  1.00  0.00    -0.374 OA
BRANCH   8   9
HETATM    9  C1  UNL     1      14.945   4.493  16.400  1.00  0.00     0.253 C
HETATM   10 BR1  UNL     1      13.987   2.949  16.990  1.00  0.00    -0.068 Br
ENDBRANCH   8   9
ENDBRANCH   1   8
TORSDOF 2
ENDMDL