MODEL 2
REMARK VINA RESULT: -5.144278250      0.800      1.152
REMARK  2 active torsions:
REMARK  status: ('A' for Active; 'I' for Inactive)
REMARK    1  A    between atoms: C2_2  and  N1_3
REMARK    2  A    between atoms: C7_9  and  O1_10
ROOT
HETATM    1  N1  UNL     1      17.527   3.791  13.643  1.00  0.00     0.091 N
HETATM    2  C3  UNL     1      16.733   4.926  14.065  1.00  0.00     0.280 C
HETATM    3  C4  UNL     1      16.475   4.595  15.513  1.00  0.00     0.053 C
HETATM    4  C5  UNL     1      15.031   4.413  15.891  1.00  0.00     0.033 C
HETATM    5  C6  UNL     1      15.289   2.950  16.215  1.00  0.00     0.119 C
HETATM    6 CL1  UNL     1      15.411   2.629  17.979  1.00  0.00    -0.122 Cl
HETATM    7  C7  UNL     1      16.654   3.095  15.633  1.00  0.00     0.106 C
HETATM    8  C8  UNL     1      16.770   2.692  14.159  1.00  0.00     0.312 C
ENDROOT
BRANCH   1   9
HETATM    9  C2  UNL     1      17.733   3.756  12.222  1.00  0.00     0.268 C
HETATM   10  C1  UNL     1      18.393   4.962  11.665  1.00  0.00     0.037 C
ENDBRANCH   1   9
BRANCH   7  11
HETATM   11  O1  UNL     1      17.721   2.736  16.418  1.00  0.00    -0.386 OA
ATOM     12  H1  UNL     1      17.582   1.927  16.896  1.00  0.00     0.210 HD
ENDBRANCH   7  11
TORSDOF 2
ENDMDL