MODEL 4
REMARK VINA RESULT: -4.666211146      3.536      4.629
REMARK  2 active torsions:
REMARK  status: ('A' for Active; 'I' for Inactive)
REMARK    1  A    between atoms: C7_8  and  O1_9
REMARK    2  A    between atoms: C7_8  and  C8_11
ROOT
HETATM    1  C1  UNL     1      16.709   1.757  11.515  1.00  0.00     0.015 C
HETATM    2  C2  UNL     1      17.562   2.832  12.092  1.00  0.00     0.052 C
HETATM    3  C3  UNL     1      17.096   3.325  13.440  1.00  0.00     0.232 C
HETATM    4  C4  UNL     1      15.951   4.244  13.151  1.00  0.00     0.075 C
HETATM    5  C5  UNL     1      17.074   5.044  12.481  1.00  0.00     0.260 C
HETATM    6  N1  UNL     1      17.908   4.547  13.574  1.00  0.00     0.097 N
HETATM    7  C6  UNL     1      17.678   5.223  14.830  1.00  0.00     0.311 C
HETATM    8  C7  UNL     1      17.418   4.161  11.325  1.00  0.00     0.106 C
ENDROOT
BRANCH   8   9
HETATM    9  O1  UNL     1      16.381   4.022  10.438  1.00  0.00    -0.386 OA
ATOM     10  H1  UNL     1      16.292   4.841   9.965  1.00  0.00     0.210 HD
ENDBRANCH   8   9
BRANCH   8  11
HETATM   11  C8  UNL     1      18.721   4.528  10.660  1.00  0.00     0.155 C
HETATM   12 CL1  UNL     1      19.854   3.189  10.956  1.00  0.00    -0.127 Cl
ENDBRANCH   8  11
TORSDOF 2
ENDMDL