MODEL 2
REMARK VINA RESULT: -5.949684318      2.286      3.327
REMARK  1 active torsions:
REMARK  status: ('A' for Active; 'I' for Inactive)
REMARK    1  A    between atoms: O1_2  and  C2_3
ROOT
HETATM    1  C2  UNL     1      15.864   4.314  13.066  1.00  0.00     0.178 C
HETATM    2  C3  UNL     1      16.843   3.225  13.439  1.00  0.00     0.149 C
HETATM    3  N1  UNL     1      16.835   2.870  14.809  1.00  0.00    -0.418 N
ATOM      4  H1  UNL     1      17.429   2.128  15.180  1.00  0.00     0.153 HD
HETATM    5  C4  UNL     1      15.946   3.614  15.642  1.00  0.00     0.118 C
HETATM    6  C5  UNL     1      16.233   5.065  15.740  1.00  0.00     0.011 C
HETATM    7  C6  UNL     1      14.977   5.846  15.298  1.00  0.00     0.014 C
HETATM    8  C7  UNL     1      15.576   6.609  14.147  1.00  0.00     0.029 C
HETATM    9  C8  UNL     1      16.886   7.097  14.794  1.00  0.00     0.016 C
HETATM   10  C9  UNL     1      17.213   5.595  14.756  1.00  0.00     0.034 C
HETATM   11  C10 UNL     1      16.448   5.623  13.440  1.00  0.00     0.138 C
HETATM   12  F1  UNL     1      17.201   6.232  12.451  1.00  0.00    -0.239 F
ENDROOT
BRANCH   1  13
HETATM   13  O1  UNL     1      15.764   4.280  11.658  1.00  0.00    -0.386 OA
HETATM   14  C1  UNL     1      16.166   3.048  11.150  1.00  0.00     0.202 C
ENDBRANCH   1  13
TORSDOF 1
ENDMDL