MODEL 2
REMARK VINA RESULT: -5.883313425      2.191      3.520
REMARK  2 active torsions:
REMARK  status: ('A' for Active; 'I' for Inactive)
REMARK    1  A    between atoms: O1_1  and  C1_3
REMARK    2  A    between atoms: C1_3  and  C2_4
ROOT
HETATM    1  C2  UNL     1      15.847   3.558  15.884  1.00  0.00     0.018 C
HETATM    2  C3  UNL     1      16.218   3.494  17.374  1.00  0.00     0.059 C
HETATM    3  C4  UNL     1      14.810   3.975  17.643  1.00  0.00     0.131 C
HETATM    4  F1  UNL     1      14.210   3.534  18.766  1.00  0.00    -0.241 F
HETATM    5  C5  UNL     1      14.803   5.487  17.421  1.00  0.00     0.316 C
HETATM    6  N1  UNL     1      14.782   5.695  16.019  1.00  0.00     0.097 N
HETATM    7  C6  UNL     1      15.042   7.005  15.552  1.00  0.00     0.273 C
HETATM    8  C7  UNL     1      15.418   6.750  14.081  1.00  0.00     0.032 C
HETATM    9  C8  UNL     1      15.727   5.244  14.018  1.00  0.00     0.038 C
HETATM   10  C9  UNL     1      15.940   4.965  15.467  1.00  0.00     0.233 C
HETATM   11  C10 UNL     1      14.418   3.245  16.349  1.00  0.00     0.059 C
ENDROOT
BRANCH   1  12
HETATM   12  C1  UNL     1      16.484   2.508  15.045  1.00  0.00     0.176 C
BRANCH  12  13
HETATM   13  O1  UNL     1      16.287   1.263  15.600  1.00  0.00    -0.400 OA
ATOM     14  H1  UNL     1      16.514   0.582  14.978  1.00  0.00     0.209 HD
ENDBRANCH  12  13
ENDBRANCH   1  12
TORSDOF 2
ENDMDL