MODEL 4
REMARK VINA RESULT: -5.478484123      2.048      4.502
REMARK  1 active torsions:
REMARK  status: ('A' for Active; 'I' for Inactive)
REMARK    1  A    between atoms: C2_2  and  N1_3
ROOT
HETATM    1  N1  UNL     1      14.924   3.918  16.444  1.00  0.00     0.123 N
HETATM    2  C3  UNL     1      15.660   2.699  16.148  1.00  0.00     0.305 C
HETATM    3  C4  UNL     1      17.109   3.121  16.011  1.00  0.00     0.305 C
HETATM    4  N2  UNL     1      16.976   4.533  15.598  1.00  0.00     0.126 N
HETATM    5  C5  UNL     1      16.687   4.459  14.177  1.00  0.00     0.312 C
HETATM    6  C6  UNL     1      16.977   5.731  13.448  1.00  0.00     0.198 C
HETATM    7  F1  UNL     1      18.208   6.192  13.889  1.00  0.00    -0.248 F
HETATM    8  C7  UNL     1      15.893   6.748  13.547  1.00  0.00     0.039 C
HETATM    9  C8  UNL     1      14.805   6.340  14.546  1.00  0.00     0.007 C
HETATM   10  C9  UNL     1      15.339   6.294  15.933  1.00  0.00     0.069 C
HETATM   11  C10 UNL     1      15.857   4.960  16.382  1.00  0.00     0.456 C
ENDROOT
BRANCH   1  12
HETATM   12  C2  UNL     1      14.193   3.704  17.625  1.00  0.00     0.271 C
HETATM   13  C1  UNL     1      14.844   4.100  18.905  1.00  0.00     0.037 C
ENDBRANCH   1  12
TORSDOF 1
ENDMDL