MODEL 5
REMARK VINA RESULT: -5.654550537      1.340      2.639
REMARK  1 active torsions:
REMARK  status: ('A' for Active; 'I' for Inactive)
REMARK    1  A    between atoms: C5_6  and  C6_7
ROOT
HETATM    1  C6  UNL     1      16.463   4.196  15.020  1.00  0.00     0.208 C
HETATM    2  C7  UNL     1      16.736   2.957  15.786  1.00  0.00     0.038 C
HETATM    3  C8  UNL     1      15.628   2.578  16.747  1.00  0.00     0.041 C
HETATM    4  C9  UNL     1      15.215   3.709  17.641  1.00  0.00     0.195 C
HETATM    5  F1  UNL     1      14.018   3.327  18.253  1.00  0.00    -0.248 F
HETATM    6  C10 UNL     1      15.024   4.937  16.797  1.00  0.00     0.269 C
HETATM    7  N2  UNL     1      15.123   4.662  15.384  1.00  0.00    -0.066 N
ATOM      8  H21 UNL     1      14.405   4.004  15.080  1.00  0.00     0.277 HD
ATOM      9  H22 UNL     1      14.845   5.469  14.826  1.00  0.00     0.277 HD
ENDROOT
BRANCH   1  10
HETATM   10  C5  UNL     1      16.490   4.085  13.534  1.00  0.00     0.109 C
HETATM   11  N1  UNL     1      17.280   4.976  12.801  1.00  0.00    -0.410 N
HETATM   12  C1  UNL     1      18.123   5.893  13.458  1.00  0.00     0.143 C
HETATM   13  C2  UNL     1      17.884   4.302  11.693  1.00  0.00     0.117 C
HETATM   14  C3  UNL     1      17.148   2.957  11.587  1.00  0.00     0.021 C
HETATM   15  C4  UNL     1      16.889   2.701  13.057  1.00  0.00     0.028 C
ENDBRANCH   1  10
TORSDOF 1
ENDMDL