MODEL 2
REMARK VINA RESULT: -6.004554399      2.408      4.410
REMARK  1 active torsions:
REMARK  status: ('A' for Active; 'I' for Inactive)
REMARK    1  A    between atoms: C5_8  and  N2_9
ROOT
HETATM    1  F1  UNL     1      16.178   6.893  13.152  1.00  0.00    -0.247 F
HETATM    2  C1  UNL     1      16.927   5.866  13.750  1.00  0.00     0.199 C
HETATM    3  C2  UNL     1      18.140   5.678  12.917  1.00  0.00     0.059 C
HETATM    4  C3  UNL     1      18.025   4.513  11.961  1.00  0.00     0.121 C
HETATM    5  N1  UNL     1      17.784   3.358  12.734  1.00  0.00    -0.400 N
ATOM      6  H1  UNL     1      18.406   2.551  12.676  1.00  0.00     0.158 HD
HETATM    7  C4  UNL     1      16.667   3.346  13.586  1.00  0.00     0.083 C
HETATM    8  C5  UNL     1      16.122   4.654  14.044  1.00  0.00     0.151 C
ENDROOT
BRANCH   8   9
HETATM    9  N2  UNL     1      15.716   4.533  15.413  1.00  0.00    -0.401 N
HETATM   10  C6  UNL     1      16.374   3.589  16.221  1.00  0.00     0.117 C
HETATM   11  C7  UNL     1      15.399   3.163  17.329  1.00  0.00     0.019 C
HETATM   12  C8  UNL     1      15.074   4.416  18.110  1.00  0.00     0.003 C
HETATM   13  C9  UNL     1      14.323   5.347  17.181  1.00  0.00     0.019 C
HETATM   14  C10 UNL     1      15.296   5.726  16.059  1.00  0.00     0.117 C
ENDBRANCH   8   9
TORSDOF 1
ENDMDL