MODEL 2
REMARK VINA RESULT: -4.116063903      2.077      2.592
REMARK  1 active torsions:
REMARK  status: ('A' for Active; 'I' for Inactive)
REMARK    1  A    between atoms: N1_2  and  C3_4
ROOT
HETATM    1  C3  UNL     1      15.003   4.079  15.628  1.00  0.00     0.264 C
HETATM    2  C4  UNL     1      16.353   3.469  15.500  1.00  0.00     0.066 C
HETATM    3  C5  UNL     1      16.706   3.853  14.055  1.00  0.00     0.236 C
HETATM    4  N2  UNL     1      16.005   5.061  13.769  1.00  0.00    -0.059 N
ATOM      5  H21 UNL     1      15.584   5.055  12.839  1.00  0.00     0.278 HD
ATOM      6  H22 UNL     1      16.634   5.852  13.636  1.00  0.00     0.278 HD
HETATM    7  C6  UNL     1      15.028   5.300  14.815  1.00  0.00     0.290 C
HETATM    8 BR1  UNL     1      15.456   6.945  15.665  1.00  0.00    -0.059 Br
ENDROOT
BRANCH   1   9
HETATM    9  N1  UNL     1      14.404   4.096  16.916  1.00  0.00     0.087 N
HETATM   10  C1  UNL     1      13.683   2.810  17.086  1.00  0.00     0.310 C
HETATM   11  C2  UNL     1      15.366   4.066  18.009  1.00  0.00     0.310 C
ENDBRANCH   1   9
TORSDOF 1
ENDMDL