MODEL 2
REMARK VINA RESULT: -5.387860004      1.199      1.199
REMARK  1 active torsions:
REMARK  status: ('A' for Active; 'I' for Inactive)
REMARK    1  A    between atoms: C8_11  and  C9_12
ROOT
HETATM    1  C1  UNL     1      18.291   6.729  13.165  1.00  0.00     0.012 C
HETATM    2  C2  UNL     1      17.381   6.061  14.179  1.00  0.00     0.006 C
HETATM    3  C3  UNL     1      16.606   7.121  14.903  1.00  0.00     0.008 C
HETATM    4  C4  UNL     1      15.506   6.618  15.757  1.00  0.00     0.020 C
HETATM    5  C5  UNL     1      14.861   5.359  15.337  1.00  0.00     0.117 C
HETATM    6  N1  UNL     1      15.621   4.494  14.518  1.00  0.00    -0.404 N
HETATM    7  C6  UNL     1      16.338   3.461  15.180  1.00  0.00     0.136 C
HETATM    8  C7  UNL     1      16.683   2.401  14.126  1.00  0.00     0.133 C
HETATM    9  N2  UNL     1      17.497   2.985  13.111  1.00  0.00    -0.411 N
ATOM     10  H2  UNL     1      18.378   2.569  12.811  1.00  0.00     0.153 HD
HETATM   11  C8  UNL     1      16.994   4.190  12.547  1.00  0.00     0.128 C
HETATM   12  C10 UNL     1      16.389   5.150  13.499  1.00  0.00     0.107 C
ENDROOT
BRANCH  11  13
HETATM   13  C9  UNL     1      16.026   3.829  11.431  1.00  0.00     0.248 C
HETATM   14  F1  UNL     1      16.508   2.643  10.867  1.00  0.00    -0.253 F
ENDBRANCH  11  13
TORSDOF 1
ENDMDL