MODEL 2
REMARK VINA RESULT: -6.481728745      1.600      1.937
REMARK  1 active torsions:
REMARK  status: ('A' for Active; 'I' for Inactive)
REMARK    1  A    between atoms: N2_5  and  C4_6
ROOT
HETATM    1  C1  UNL     1      17.353   3.489  11.238  1.00  0.00     0.132 C
HETATM    2  N1  UNL     1      16.936   3.727  12.584  1.00  0.00    -0.230 NA
HETATM    3  C2  UNL     1      16.680   2.537  13.335  1.00  0.00     0.153 C
HETATM    4  C3  UNL     1      16.767   2.711  14.823  1.00  0.00     0.078 C
HETATM    5  N2  UNL     1      16.825   4.009  15.311  1.00  0.00    -0.344 N
HETATM    6  C9  UNL     1      17.010   5.075  14.401  1.00  0.00     0.382 C
HETATM    7  F1  UNL     1      17.548   6.198  14.977  1.00  0.00    -0.206 F
HETATM    8  N3  UNL     1      17.787   4.630  13.245  1.00  0.00    -0.107 NA
ENDROOT
BRANCH   5   9
HETATM    9  C4  UNL     1      16.131   4.387  16.455  1.00  0.00     0.087 C
HETATM   10  C5  UNL     1      15.586   3.314  17.337  1.00  0.00     0.025 C
HETATM   11  C6  UNL     1      14.846   4.155  18.391  1.00  0.00     0.002 C
HETATM   12  C7  UNL     1      14.397   5.407  17.639  1.00  0.00     0.002 C
HETATM   13  C8  UNL     1      14.874   5.210  16.208  1.00  0.00     0.025 C
ENDBRANCH   5   9
TORSDOF 1
ENDMDL