MODEL 2
REMARK VINA RESULT: -5.707415417      1.814      2.929
REMARK  2 active torsions:
REMARK  status: ('A' for Active; 'I' for Inactive)
REMARK    1  A    between atoms: C2_2  and  C3_3
REMARK    2  A    between atoms: C5_6  and  O1_8
ROOT
HETATM    1  C3  UNL     1      15.879   5.667  14.921  1.00  0.00     0.113 C
HETATM    2  F1  UNL     1      16.706   6.447  15.740  1.00  0.00    -0.242 F
HETATM    3  C4  UNL     1      16.680   4.505  14.428  1.00  0.00     0.083 C
HETATM    4  C5  UNL     1      16.596   3.438  15.502  1.00  0.00     0.088 C
HETATM    5  C6  UNL     1      16.589   2.102  14.832  1.00  0.00     0.048 C
HETATM    6  C7  UNL     1      15.350   3.732  16.267  1.00  0.00     0.265 C
HETATM    7  C8  UNL     1      14.786   5.020  15.712  1.00  0.00     0.090 C
HETATM    8  C9  UNL     1      14.764   5.491  17.122  1.00  0.00     0.282 C
HETATM    9  N1  UNL     1      15.499   4.312  17.568  1.00  0.00     0.092 N
HETATM   10  C10 UNL     1      14.779   3.668  18.637  1.00  0.00     0.310 C
ENDROOT
BRANCH   1  11
HETATM   11  C2  UNL     1      15.380   6.571  13.835  1.00  0.00     0.039 C
HETATM   12  C1  UNL     1      16.459   7.273  13.078  1.00  0.00     0.008 C
ENDBRANCH   1  11
BRANCH   4  13
HETATM   13  O1  UNL     1      17.741   3.505  16.307  1.00  0.00    -0.388 OA
ATOM     14  H1  UNL     1      18.408   2.931  15.948  1.00  0.00     0.210 HD
ENDBRANCH   4  13
TORSDOF 2
ENDMDL