MODEL 4
REMARK VINA RESULT: -5.493621592      3.174      3.673
REMARK  1 active torsions:
REMARK  status: ('A' for Active; 'I' for Inactive)
REMARK    1  A    between atoms: N1_7  and  C5_8
ROOT
HETATM    1  C5  UNL     1      17.055   2.998  13.420  1.00  0.00     0.230 C
HETATM    2  C6  UNL     1      17.023   1.571  12.939  1.00  0.00     0.063 C
HETATM    3  C7  UNL     1      17.130   1.479  11.428  1.00  0.00     0.234 C
HETATM    4  N2  UNL     1      16.100   2.235  10.766  1.00  0.00    -0.075 N
ATOM      5  H21 UNL     1      15.191   1.790  10.891  1.00  0.00     0.277 HD
ATOM      6  H22 UNL     1      16.192   2.157   9.753  1.00  0.00     0.277 HD
HETATM    7  C8  UNL     1      16.045   3.603  11.160  1.00  0.00     0.234 C
HETATM    8  C9  UNL     1      16.827   4.004  12.348  1.00  0.00     0.063 C
ENDROOT
BRANCH   1   9
HETATM    9  N1  UNL     1      16.296   3.276  14.580  1.00  0.00     0.131 N
HETATM   10  C1  UNL     1      16.208   4.663  14.947  1.00  0.00     0.428 C
HETATM   11  F1  UNL     1      17.452   5.097  15.361  1.00  0.00    -0.214 F
HETATM   12  C2  UNL     1      15.202   4.934  16.008  1.00  0.00     0.237 C
HETATM   13  O1  UNL     1      14.860   3.922  16.819  1.00  0.00    -0.385 OA
HETATM   14  C3  UNL     1      15.401   2.705  16.690  1.00  0.00     0.198 C
HETATM   15  C4  UNL     1      16.534   2.508  15.746  1.00  0.00     0.303 C
ENDBRANCH   1   9
TORSDOF 1
ENDMDL