MODEL 3
REMARK VINA RESULT: -4.674933706      1.462      2.547
REMARK  1 active torsions:
REMARK  status: ('A' for Active; 'I' for Inactive)
REMARK    1  A    between atoms: O1_2  and  C2_3
ROOT
HETATM    1  C2  UNL     1      17.283   4.120  14.570  1.00  0.00     0.146 C
HETATM    2  C3  UNL     1      16.507   2.908  14.160  1.00  0.00     0.119 C
HETATM    3  C4  UNL     1      17.298   2.025  13.198  1.00  0.00     0.032 C
HETATM    4  N1  UNL     1      16.258   2.133  15.354  1.00  0.00    -0.158 NA
HETATM    5  N2  UNL     1      15.372   2.747  16.203  1.00  0.00    -0.233 NA
HETATM    6  C5  UNL     1      15.429   2.032  17.483  1.00  0.00     0.132 C
HETATM    7  C6  UNL     1      15.543   4.140  16.391  1.00  0.00     0.082 A
HETATM    8  C7  UNL     1      15.117   5.143  15.380  1.00  0.00     0.030 A
HETATM    9  C8  UNL     1      16.590   4.821  15.672  1.00  0.00     0.037 A
ENDROOT
BRANCH   1  10
HETATM   10  O1  UNL     1      17.374   4.956  13.443  1.00  0.00    -0.389 OA
HETATM   11  C1  UNL     1      18.384   5.900  13.611  1.00  0.00     0.202 C
ENDBRANCH   1  10
TORSDOF 1
ENDMDL