MODEL 4
REMARK VINA RESULT: -4.825612448      4.118      6.182
REMARK  2 active torsions:
REMARK  status: ('A' for Active; 'I' for Inactive)
REMARK    1  A    between atoms: C3_3  and  N1_4
REMARK    2  A    between atoms: C7_8  and  O1_9
ROOT
HETATM    1  C1  UNL     1      18.355  -0.686  11.592  1.00  0.00     0.013 C
HETATM    2  C2  UNL     1      17.859   0.405  11.723  1.00  0.00    -0.087 C
HETATM    3  C3  UNL     1      17.245   1.729  11.874  1.00  0.00     0.365 C
ENDROOT
BRANCH   3   4
HETATM    4  N1  UNL     1      18.269   2.736  12.147  1.00  0.00     0.106 N
HETATM    5  C4  UNL     1      19.251   2.808  11.089  1.00  0.00     0.274 C
HETATM    6  C5  UNL     1      19.844   4.194  10.953  1.00  0.00     0.033 C
HETATM    7  C6  UNL     1      18.791   5.222  10.607  1.00  0.00     0.035 C
HETATM    8  C7  UNL     1      17.445   4.625  10.987  1.00  0.00     0.151 C
HETATM    9  C8  UNL     1      17.633   4.025  12.363  1.00  0.00     0.248 C
HETATM   10  C9  UNL     1      16.374   3.929  13.156  1.00  0.00     0.045 C
BRANCH   8  11
HETATM   11  O1  UNL     1      16.397   5.508  10.892  1.00  0.00    -0.393 OA
ATOM     12  H1  UNL     1      15.826   5.510  11.651  1.00  0.00     0.210 HD
ENDBRANCH   8  11
ENDBRANCH   3   4
TORSDOF 2
ENDMDL