MODEL 1
REMARK VINA RESULT: -4.337127448      0.000      0.000
REMARK  1 active torsions:
REMARK  status: ('A' for Active; 'I' for Inactive)
REMARK    1  A    between atoms: N1_2  and  C4_5
ROOT
HETATM    1  C4  UNL     1      16.102   4.267  15.141  1.00  0.00     0.201 C
HETATM    2  C5  UNL     1      17.239   3.480  15.710  1.00  0.00     0.051 C
HETATM    3  C6  UNL     1      16.824   2.048  15.970  1.00  0.00     0.124 C
HETATM    4  N2  UNL     1      15.930   1.909  17.079  1.00  0.00    -0.179 NA
HETATM    5  S1  UNL     1      15.389   3.507  17.648  1.00  0.00    -0.064 SA
HETATM    6  C7  UNL     1      14.992   4.467  16.138  1.00  0.00     0.126 C
ENDROOT
BRANCH   1   7
HETATM    7  N1  UNL     1      16.519   5.550  14.657  1.00  0.00    -0.073 N
HETATM    8  C1  UNL     1      17.866   5.889  15.134  1.00  0.00     0.272 C
HETATM    9  C2  UNL     1      15.656   6.625  15.066  1.00  0.00     0.272 C
HETATM   10  C3  UNL     1      16.595   5.521  13.211  1.00  0.00     0.272 C
ENDBRANCH   1   7
TORSDOF 1
ENDMDL