MODEL 2
REMARK VINA RESULT: -4.707809911      1.263      2.886
REMARK  1 active torsions:
REMARK  status: ('A' for Active; 'I' for Inactive)
REMARK    1  A    between atoms: C2_2  and  N1_3
ROOT
HETATM    1  N1  UNL     1      16.162   4.948  15.270  1.00  0.00    -0.290 NA
HETATM    2  C3  UNL     1      14.973   5.418  15.848  1.00  0.00     0.078 C
HETATM    3  C4  UNL     1      14.242   4.466  16.739  1.00  0.00     0.117 C
HETATM    4  N2  UNL     1      14.925   3.353  17.227  1.00  0.00    -0.310 N
HETATM    5  C5  UNL     1      15.385   3.296  18.539  1.00  0.00     0.172 C
HETATM    6  N3  UNL     1      15.300   2.378  16.357  1.00  0.00    -0.134 NA
HETATM    7  C6  UNL     1      16.659   2.640  15.935  1.00  0.00     0.109 C
HETATM    8  C7  UNL     1      16.922   2.072  14.581  1.00  0.00     0.031 C
HETATM    9  C8  UNL     1      17.022   4.107  16.009  1.00  0.00     0.117 C
ENDROOT
BRANCH   1  10
HETATM   10  C2  UNL     1      16.921   6.047  14.720  1.00  0.00     0.090 C
HETATM   11  C1  UNL     1      18.415   5.902  14.865  1.00  0.00     0.021 C
ENDBRANCH   1  10
TORSDOF 1
ENDMDL