MODEL 5
REMARK VINA RESULT: -4.480377801      1.522      3.535
REMARK  2 active torsions:
REMARK  status: ('A' for Active; 'I' for Inactive)
REMARK    1  A    between atoms: C2_2  and  C3_3
REMARK    2  A    between atoms: C3_3  and  N1_4
ROOT
HETATM    1  N1  UNL     1      16.300   5.929  14.994  1.00  0.00     0.098 N
HETATM    2  C4  UNL     1      15.028   6.004  15.696  1.00  0.00     0.280 C
HETATM    3  C5  UNL     1      15.089   4.466  15.651  1.00  0.00     0.050 C
HETATM    4  C6  UNL     1      16.044   4.011  16.718  1.00  0.00     0.027 C
HETATM    5  C7  UNL     1      17.404   3.661  16.200  1.00  0.00     0.114 C
HETATM    6  N2  UNL     1      17.380   3.001  14.934  1.00  0.00    -0.419 N
ATOM      7  H2  UNL     1      17.804   2.086  14.785  1.00  0.00     0.153 HD
HETATM    8  C8  UNL     1      16.719   3.716  13.896  1.00  0.00     0.150 C
HETATM    9  C9  UNL     1      15.780   4.782  14.326  1.00  0.00     0.246 C
ENDROOT
BRANCH   1  10
HETATM   10  C3  UNL     1      16.610   7.101  14.218  1.00  0.00     0.299 C
BRANCH  10  11
HETATM   11  C2  UNL     1      18.005   7.477  14.583  1.00  0.00    -0.007 C
HETATM   12  C1  UNL     1      19.021   6.629  14.470  1.00  0.00     0.008 C
ENDBRANCH  10  11
ENDBRANCH   1  10
TORSDOF 2
ENDMDL