MODEL 2
REMARK VINA RESULT: -4.948997644      1.237      5.522
REMARK  3 active torsions:
REMARK  status: ('A' for Active; 'I' for Inactive)
REMARK    1  A    between atoms: N1_2  and  C2_5
REMARK    2  A    between atoms: C2_5  and  C3_6
REMARK    3  A    between atoms: C4_7  and  C5_8
ROOT
HETATM    1  C5  UNL     1      16.800   3.557  15.009  1.00  0.00     0.092 C
HETATM    2  C6  UNL     1      15.860   4.709  14.884  1.00  0.00     0.249 C
HETATM    3  N2  UNL     1      14.956   4.661  16.009  1.00  0.00    -0.070 N
ATOM      4  H21 UNL     1      13.983   4.549  15.723  1.00  0.00     0.277 HD
ATOM      5  H22 UNL     1      14.863   5.563  16.474  1.00  0.00     0.277 HD
HETATM    6  C7  UNL     1      15.389   3.627  16.897  1.00  0.00     0.183 C
HETATM    7  C8  UNL     1      14.174   2.871  17.435  1.00  0.00     0.040 C
HETATM    8  C9  UNL     1      16.149   2.663  16.041  1.00  0.00     0.051 C
ENDROOT
BRANCH   1   9
HETATM    9  C4  UNL     1      16.900   2.869  13.705  1.00  0.00    -0.098 C
HETATM   10  C3  UNL     1      16.965   2.291  12.632  1.00  0.00    -0.079 C
BRANCH  10  11
HETATM   11  C2  UNL     1      17.015   1.594  11.350  1.00  0.00     0.325 C
BRANCH  11  12
HETATM   12  N1  UNL     1      18.334   1.036  11.204  1.00  0.00    -0.069 N
HETATM   13  C1  UNL     1      18.272  -0.369  11.566  1.00  0.00     0.267 C
ATOM     14  H12 UNL     1      19.039   1.548  11.733  1.00  0.00     0.277 HD
ATOM     15  H11 UNL     1      18.725   1.187  10.273  1.00  0.00     0.277 HD
ENDBRANCH  11  12
ENDBRANCH  10  11
ENDBRANCH   1   9
TORSDOF 3
ENDMDL