MODEL 4
REMARK VINA RESULT: -4.608431985      2.771      3.970
REMARK  1 active torsions:
REMARK  status: ('A' for Active; 'I' for Inactive)
REMARK    1  A    between atoms: C3_3  and  C4_4
ROOT
HETATM    1  C1  UNL     1      15.263   6.715  14.761  1.00  0.00     0.045 C
HETATM    2  C2  UNL     1      15.310   5.253  14.572  1.00  0.00     0.249 C
HETATM    3  C3  UNL     1      15.641   4.383  15.713  1.00  0.00     0.222 C
HETATM    4  N1  UNL     1      16.833   4.874  16.359  1.00  0.00    -0.067 N
ATOM      5  H11 UNL     1      17.029   4.389  17.234  1.00  0.00     0.277 HD
ATOM      6  H12 UNL     1      16.711   5.812  16.741  1.00  0.00     0.277 HD
HETATM    7  C7  UNL     1      17.925   4.798  15.435  1.00  0.00     0.263 C
HETATM    8  C8  UNL     1      17.662   5.264  14.054  1.00  0.00     0.300 C
HETATM    9  N2  UNL     1      16.350   5.020  13.552  1.00  0.00     0.092 N
HETATM   10  C9  UNL     1      16.174   3.779  12.873  1.00  0.00     0.310 C
ENDROOT
BRANCH   3  11
HETATM   11  C4  UNL     1      14.559   3.992  16.651  1.00  0.00     0.018 A
HETATM   12  C5  UNL     1      14.612   2.528  17.090  1.00  0.00     0.007 A
HETATM   13  C6  UNL     1      14.778   3.650  18.066  1.00  0.00     0.007 A
ENDBRANCH   3  11
TORSDOF 1
ENDMDL