MODEL 2
REMARK VINA RESULT: -5.468912887      1.671      2.466
REMARK  2 active torsions:
REMARK  status: ('A' for Active; 'I' for Inactive)
REMARK    1  A    between atoms: C3_3  and  N1_4
REMARK    2  A    between atoms: C8_9  and  O1_10
ROOT
HETATM    1  C1  UNL     1      18.473   8.481  14.546  1.00  0.00     0.013 C
HETATM    2  C2  UNL     1      17.970   7.408  14.347  1.00  0.00    -0.087 C
HETATM    3  C3  UNL     1      17.337   6.138  14.109  1.00  0.00     0.365 C
ENDROOT
BRANCH   3   4
HETATM    4  N1  UNL     1      16.671   5.622  15.290  1.00  0.00     0.101 N
HETATM    5  C4  UNL     1      15.326   5.167  14.998  1.00  0.00     0.274 C
HETATM    6  C5  UNL     1      14.765   4.624  16.303  1.00  0.00     0.037 C
HETATM    7  C6  UNL     1      15.421   3.272  16.501  1.00  0.00     0.014 C
HETATM    8  C7  UNL     1      15.536   2.940  17.961  1.00  0.00     0.012 C
HETATM    9  C8  UNL     1      16.739   3.204  15.812  1.00  0.00     0.150 C
HETATM   10  C9  UNL     1      17.478   4.511  15.767  1.00  0.00     0.305 C
BRANCH   9  11
HETATM   11  O1  UNL     1      17.537   2.324  16.566  1.00  0.00    -0.393 OA
ATOM     12  H1  UNL     1      17.069   1.498  16.601  1.00  0.00     0.210 HD
ENDBRANCH   9  11
ENDBRANCH   3   4
TORSDOF 2
ENDMDL