MODEL 1
REMARK VINA RESULT: -4.629907958      0.000      0.000
REMARK  1 active torsions:
REMARK  status: ('A' for Active; 'I' for Inactive)
REMARK    1  A    between atoms: N1_2  and  C2_4
ROOT
HETATM    1  C2  UNL     1       3.981  -4.180  13.659  1.00  0.00     0.054 C
HETATM    2  C3  UNL     1       5.351  -4.868  13.807  1.00  0.00     0.040 C
HETATM    3  C4  UNL     1       3.128  -5.054  12.819  1.00  0.00     0.304 C
HETATM    4  N2  UNL     1       3.031  -4.406  11.498  1.00  0.00     0.110 N
HETATM    5  C5  UNL     1       4.353  -4.373  10.865  1.00  0.00     0.275 C
HETATM    6  C6  UNL     1       5.202  -3.427  11.659  1.00  0.00     0.041 C
HETATM    7  C7  UNL     1       4.236  -2.999  12.761  1.00  0.00     0.065 C
HETATM    8  C8  UNL     1       2.947  -2.998  11.934  1.00  0.00     0.324 C
HETATM    9 CL1  UNL     1       3.107  -2.014  10.480  1.00  0.00    -0.091 Cl
ENDROOT
BRANCH   1  10
HETATM   10  N1  UNL     1       3.550  -3.896  14.957  1.00  0.00    -0.415 N
HETATM   11  C1  UNL     1       4.154  -2.856  15.691  1.00  0.00     0.140 C
ATOM     12  H1  UNL     1       2.796  -4.442  15.373  1.00  0.00     0.153 HD
ENDBRANCH   1  10
TORSDOF 1
ENDMDL