MODEL 3
REMARK VINA RESULT: -4.668329878      2.219      3.026
REMARK  1 active torsions:
REMARK  status: ('A' for Active; 'I' for Inactive)
REMARK    1  A    between atoms: N1_2  and  C2_5
ROOT
HETATM    1  C2  UNL     1       5.066  -4.947  13.506  1.00  0.00     0.424 C
HETATM    2  C3  UNL     1       6.139  -4.921  14.556  1.00  0.00     0.067 C
HETATM    3  C4  UNL     1       5.975  -6.308  15.170  1.00  0.00     0.040 C
HETATM    4  C5  UNL     1       4.573  -6.726  14.769  1.00  0.00     0.275 C
HETATM    5  N2  UNL     1       3.957  -5.522  14.211  1.00  0.00     0.120 N
HETATM    6  C6  UNL     1       3.475  -4.741  15.311  1.00  0.00     0.276 C
HETATM    7  C7  UNL     1       4.536  -4.306  16.279  1.00  0.00     0.051 C
HETATM    8  C8  UNL     1       5.780  -3.860  15.563  1.00  0.00     0.092 C
HETATM    9 CL1  UNL     1       7.148  -3.653  16.666  1.00  0.00    -0.124 Cl
ENDROOT
BRANCH   1  10
HETATM   10  N1  UNL     1       4.805  -3.687  12.885  1.00  0.00    -0.047 N
HETATM   11  C1  UNL     1       5.143  -3.817  11.476  1.00  0.00     0.269 C
ATOM     12  H12 UNL     1       5.286  -2.911  13.339  1.00  0.00     0.279 HD
ATOM     13  H11 UNL     1       3.851  -3.359  13.036  1.00  0.00     0.279 HD
ENDBRANCH   1  10
TORSDOF 1
ENDMDL