MODEL 4
REMARK VINA RESULT: -4.567760663      3.136      4.758
REMARK  1 active torsions:
REMARK  status: ('A' for Active; 'I' for Inactive)
REMARK    1  A    between atoms: N1_5  and  C4_6
ROOT
HETATM    1  C4  UNL     1       4.931  -5.371  15.020  1.00  0.00     0.250 C
HETATM    2  C5  UNL     1       5.398  -5.116  13.600  1.00  0.00     0.065 C
HETATM    3  C6  UNL     1       4.692  -3.780  13.342  1.00  0.00     0.234 C
HETATM    4  N2  UNL     1       3.353  -4.096  13.806  1.00  0.00    -0.073 N
ATOM      5  H21 UNL     1       2.767  -4.527  13.092  1.00  0.00     0.277 HD
ATOM      6  H22 UNL     1       2.773  -3.272  13.963  1.00  0.00     0.277 HD
HETATM    7  C7  UNL     1       3.519  -4.915  14.985  1.00  0.00     0.268 C
ENDROOT
BRANCH   1   8
HETATM    8  N1  UNL     1       5.737  -4.592  15.895  1.00  0.00     0.096 N
HETATM    9  C3  UNL     1       6.731  -5.307  16.624  1.00  0.00     0.274 C
HETATM   10  C2  UNL     1       6.648  -4.787  18.069  1.00  0.00     0.052 C
HETATM   11  C1  UNL     1       6.138  -3.371  17.786  1.00  0.00     0.112 C
HETATM   12 CL1  UNL     1       7.408  -2.511  16.913  1.00  0.00    -0.123 Cl
HETATM   13  C8  UNL     1       5.036  -3.715  16.772  1.00  0.00     0.293 C
ENDBRANCH   1   8
TORSDOF 1
ENDMDL