MODEL 1
REMARK VINA RESULT: -4.245012580      0.000      0.000
REMARK  2 active torsions:
REMARK  status: ('A' for Active; 'I' for Inactive)
REMARK    1  A    between atoms: O1_1  and  C1_3
REMARK    2  A    between atoms: C1_3  and  C2_4
ROOT
HETATM    1  C2  UNL     1       5.533  -3.194  16.052  1.00  0.00     0.141 C
HETATM    2 BR1  UNL     1       5.874  -4.826  15.080  1.00  0.00    -0.052 Br
HETATM    3  C3  UNL     1       5.423  -3.411  17.545  1.00  0.00     0.078 C
HETATM    4  C4  UNL     1       6.220  -2.133  17.511  1.00  0.00     0.174 C
HETATM    5  O2  UNL     1       6.616  -2.349  16.194  1.00  0.00    -0.366 OA
ENDROOT
BRANCH   1   6
HETATM    6  C1  UNL     1       4.260  -2.544  15.543  1.00  0.00     0.214 C
BRANCH   6   7
HETATM    7  O1  UNL     1       3.224  -3.185  16.226  1.00  0.00    -0.397 OA
ATOM      8  H1  UNL     1       2.808  -2.504  16.742  1.00  0.00     0.209 HD
ENDBRANCH   6   7
ENDBRANCH   1   6
TORSDOF 2
ENDMDL