MODEL 2
REMARK VINA RESULT: -4.970310133      2.537      3.155
REMARK  2 active torsions:
REMARK  status: ('A' for Active; 'I' for Inactive)
REMARK    1  A    between atoms: C4_5  and  O1_6
REMARK    2  A    between atoms: C7_10  and  C8_11
ROOT
HETATM    1  C1  UNL     1       5.152  -7.068  13.843  1.00  0.00     0.310 C
HETATM    2  N1  UNL     1       5.048  -5.682  13.526  1.00  0.00     0.089 N
HETATM    3  C2  UNL     1       5.840  -4.843  14.430  1.00  0.00     0.280 C
HETATM    4  C3  UNL     1       4.954  -3.667  14.796  1.00  0.00     0.050 C
HETATM    5  C4  UNL     1       3.997  -4.169  15.852  1.00  0.00     0.126 C
HETATM    6  C5  UNL     1       3.206  -5.221  15.079  1.00  0.00     0.068 C
HETATM    7  C6  UNL     1       3.716  -5.152  13.640  1.00  0.00     0.230 C
HETATM    8  C7  UNL     1       4.035  -3.645  13.582  1.00  0.00     0.041 C
ENDROOT
BRANCH   5   9
HETATM    9  O1  UNL     1       3.194  -3.095  16.226  1.00  0.00    -0.395 OA
ATOM     10  H1  UNL     1       2.352  -3.212  15.804  1.00  0.00     0.210 HD
ENDBRANCH   5   9
BRANCH   8  11
HETATM   11  C8  UNL     1       4.787  -3.405  12.310  1.00  0.00     0.121 C
HETATM   12 CL1  UNL     1       4.477  -1.823  11.609  1.00  0.00    -0.130 Cl
ENDBRANCH   8  11
TORSDOF 2
ENDMDL