MODEL 1
REMARK VINA RESULT: -4.986424078      0.000      0.000
REMARK  2 active torsions:
REMARK  status: ('A' for Active; 'I' for Inactive)
REMARK    1  A    between atoms: O1_1  and  C1_3
REMARK    2  A    between atoms: C4_6  and  C5_7
ROOT
HETATM    1  C1  UNL     1       5.848  -2.460  17.537  1.00  0.00     0.257 C
HETATM    2  C2  UNL     1       7.169  -3.127  17.252  1.00  0.00     0.063 C
HETATM    3  C3  UNL     1       6.766  -4.255  16.325  1.00  0.00     0.037 C
HETATM    4  C4  UNL     1       5.396  -3.740  15.862  1.00  0.00     0.134 C
HETATM    5  O2  UNL     1       4.860  -3.359  17.089  1.00  0.00    -0.355 OA
ENDROOT
BRANCH   1   6
HETATM    6  O1  UNL     1       5.676  -1.293  16.806  1.00  0.00    -0.371 OA
ATOM      7  H1  UNL     1       5.018  -0.723  17.185  1.00  0.00     0.212 HD
ENDBRANCH   1   6
BRANCH   4   8
HETATM    8  C5  UNL     1       4.677  -4.935  15.275  1.00  0.00     0.117 C
HETATM    9 BR1  UNL     1       5.903  -6.404  15.007  1.00  0.00    -0.094 Br
ENDBRANCH   4   8
TORSDOF 2
ENDMDL