MODEL 3
REMARK VINA RESULT: -4.662057900      3.269      3.557
REMARK  2 active torsions:
REMARK  status: ('A' for Active; 'I' for Inactive)
REMARK    1  A    between atoms: C2_2  and  O1_3
REMARK    2  A    between atoms: C2_2  and  C3_5
ROOT
HETATM    1  C3  UNL     1       4.648  -4.296  15.308  1.00  0.00     0.213 C
HETATM    2  O2  UNL     1       3.363  -4.728  15.486  1.00  0.00    -0.352 OA
HETATM    3  C4  UNL     1       3.074  -5.736  14.595  1.00  0.00     0.228 C
HETATM    4 CL1  UNL     1       3.980  -7.221  14.871  1.00  0.00    -0.095 Cl
HETATM    5  C5  UNL     1       3.246  -5.198  13.192  1.00  0.00     0.124 C
HETATM    6  S1  UNL     1       4.580  -3.968  13.497  1.00  0.00    -0.131 SA
ENDROOT
BRANCH   1   7
HETATM    7  C2  UNL     1       4.834  -2.997  16.054  1.00  0.00     0.153 C
HETATM    8  C1  UNL     1       5.636  -3.160  17.314  1.00  0.00     0.042 C
BRANCH   7   9
HETATM    9  O1  UNL     1       3.573  -2.516  16.407  1.00  0.00    -0.393 OA
ATOM     10  H1  UNL     1       3.249  -1.988  15.687  1.00  0.00     0.210 HD
ENDBRANCH   7   9
ENDBRANCH   1   7
TORSDOF 2
ENDMDL