MODEL 1
REMARK VINA RESULT: -4.880063890      0.000      0.000
REMARK  1 active torsions:
REMARK  status: ('A' for Active; 'I' for Inactive)
REMARK    1  A    between atoms: N1_2  and  C2_5
ROOT
HETATM    1  C2  UNL     1       5.225  -3.964  16.364  1.00  0.00     0.195 C
HETATM    2  C3  UNL     1       6.205  -5.077  16.102  1.00  0.00     0.055 C
HETATM    3  C4  UNL     1       6.261  -5.240  14.601  1.00  0.00     0.118 C
HETATM    4 CL1  UNL     1       6.365  -6.980  14.230  1.00  0.00    -0.123 Cl
HETATM    5  C5  UNL     1       4.936  -4.710  14.069  1.00  0.00     0.248 A
HETATM    6  C6  UNL     1       4.265  -4.007  15.211  1.00  0.00     0.079 A
HETATM    7  C7  UNL     1       3.333  -5.206  15.226  1.00  0.00     0.281 A
HETATM    8  N2  UNL     1       3.967  -5.794  14.078  1.00  0.00     0.091 N
HETATM    9  C8  UNL     1       3.178  -5.908  12.883  1.00  0.00     0.310 C
ENDROOT
BRANCH   1  10
HETATM   10  N1  UNL     1       5.946  -2.718  16.364  1.00  0.00    -0.074 N
HETATM   11  C1  UNL     1       7.191  -2.813  17.091  1.00  0.00     0.267 C
ATOM     12  H12 UNL     1       5.368  -1.956  16.717  1.00  0.00     0.277 HD
ATOM     13  H11 UNL     1       6.097  -2.378  15.414  1.00  0.00     0.277 HD
ENDBRANCH   1  10
TORSDOF 1
ENDMDL