MODEL 3
REMARK VINA RESULT: -4.846921333      3.317      4.304
REMARK  2 active torsions:
REMARK  status: ('A' for Active; 'I' for Inactive)
REMARK    1  A    between atoms: C4_6  and  O2_7
REMARK    2  A    between atoms: C4_6  and  C5_9
ROOT
HETATM    1  C1  UNL     1       5.335  -2.519  16.510  1.00  0.00     0.356 C
HETATM    2  N1  UNL     1       4.379  -3.158  15.658  1.00  0.00     0.012 N
HETATM    3  O1  UNL     1       3.159  -3.121  16.198  1.00  0.00    -0.065 OA
HETATM    4  C2  UNL     1       4.778  -4.562  15.540  1.00  0.00     0.314 C
HETATM    5  C3  UNL     1       3.855  -5.020  14.420  1.00  0.00     0.077 C
HETATM    6  C4  UNL     1       3.995  -3.857  13.446  1.00  0.00     0.104 C
HETATM    7  C6  UNL     1       4.405  -2.676  14.299  1.00  0.00     0.350 C
ENDROOT
BRANCH   6   8
HETATM    8  O2  UNL     1       2.796  -3.614  12.833  1.00  0.00    -0.386 OA
ATOM      9  H2  UNL     1       2.087  -3.984  13.347  1.00  0.00     0.210 HD
ENDBRANCH   6   8
BRANCH   6  10
HETATM   10  C5  UNL     1       5.092  -4.234  12.474  1.00  0.00     0.154 C
HETATM   11 CL1  UNL     1       5.206  -3.062  11.141  1.00  0.00    -0.127 Cl
ENDBRANCH   6  10
TORSDOF 2
ENDMDL