MODEL 3
REMARK VINA RESULT: -4.412223875      2.740      4.223
REMARK  2 active torsions:
REMARK  status: ('A' for Active; 'I' for Inactive)
REMARK    1  A    between atoms: C1_2  and  C2_3
REMARK    2  A    between atoms: C1_2  and  N1_5
ROOT
HETATM    1  N1  UNL     1       4.064  -3.377  12.216  1.00  0.00    -0.351 N
HETATM    2  C3  UNL     1       2.751  -3.729  11.734  1.00  0.00     0.127 C
HETATM    3  C4  UNL     1       2.002  -2.529  11.177  1.00  0.00     0.047 C
HETATM    4  C5  UNL     1       3.010  -1.394  11.159  1.00  0.00     0.236 C
HETATM    5  N2  UNL     1       4.153  -1.902  10.414  1.00  0.00    -0.059 N
ATOM      6  H21 UNL     1       4.681  -1.166   9.946  1.00  0.00     0.279 HD
ATOM      7  H22 UNL     1       3.882  -2.424   9.580  1.00  0.00     0.279 HD
HETATM    8  C6  UNL     1       4.953  -2.674  11.319  1.00  0.00     0.357 C
ENDROOT
BRANCH   1   9
HETATM    9  C1  UNL     1       4.525  -3.692  13.537  1.00  0.00     0.090 C
HETATM   10  S1  UNL     1       5.175  -5.152  13.859  1.00  0.00    -0.064 SA
BRANCH   9  11
HETATM   11  C2  UNL     1       4.419  -2.708  14.630  1.00  0.00     0.184 C
HETATM   12 CL1  UNL     1       3.769  -3.495  16.073  1.00  0.00    -0.123 Cl
ENDBRANCH   9  11
ENDBRANCH   1   9
TORSDOF 2
ENDMDL