MODEL 2
REMARK VINA RESULT: -9.302692787      1.782      2.083
REMARK  7 active torsions:
REMARK  status: ('A' for Active; 'I' for Inactive)
REMARK       I    between atoms: C1_2  and  N1_3
REMARK    1  A    between atoms: C1_2  and  C8_11
REMARK    2  A    between atoms: N1_3  and  C2_5
REMARK    3  A    between atoms: C12_15  and  N2_16
REMARK    4  A    between atoms: C14_21  and  O2_22
REMARK    5  A    between atoms: C16_31  and  N6_32
REMARK    6  A    between atoms: N6_32  and  C17_34
REMARK    7  A    between atoms: C20_37  and  O3_38
ROOT
HETATM    1  N2  UNL     1     -26.561  32.809  -5.342  1.00  0.00    -0.343 N
ATOM      2  H2  UNL     1     -26.044  32.970  -6.206  1.00  0.00     0.167 HD
HETATM    3  C13 UNL     1     -25.939  33.012  -4.221  1.00  0.00     0.125 C
HETATM    4  N3  UNL     1     -26.545  32.822  -2.946  1.00  0.00    -0.334 N
ATOM      5  H3  UNL     1     -27.513  32.538  -2.794  1.00  0.00     0.164 HD
HETATM    6  C14 UNL     1     -25.564  33.099  -1.881  1.00  0.00     0.220 C
HETATM    7  S1  UNL     1     -25.446  34.912  -1.595  1.00  0.00    -0.031 SA
HETATM    8  S2  UNL     1     -24.523  35.247  -3.533  1.00  0.00    -0.049 SA
HETATM    9  C15 UNL     1     -24.573  33.459  -3.981  1.00  0.00     0.188 C
HETATM   10  N4  UNL     1     -23.539  33.064  -4.837  1.00  0.00    -0.291 N
ATOM     11  H4  UNL     1     -23.721  32.680  -5.764  1.00  0.00     0.183 HD
HETATM   12  N5  UNL     1     -22.216  33.229  -4.335  1.00  0.00    -0.135 N
ATOM     13  H5  UNL     1     -21.423  33.207  -4.976  1.00  0.00     0.205 HD
HETATM   14  C16 UNL     1     -22.017  33.411  -3.059  1.00  0.00     0.693 C
HETATM   15  N7  UNL     1     -23.113  33.434  -2.153  1.00  0.00    -0.211 N
ATOM     16  H7  UNL     1     -23.047  33.872  -1.234  1.00  0.00     0.178 HD
HETATM   17  C27 UNL     1     -24.306  32.807  -2.611  1.00  0.00     0.215 C
ENDROOT
BRANCH   1  18
HETATM   18  C12 UNL     1     -27.901  32.381  -5.451  1.00  0.00     0.034 A
HETATM   19  C11 UNL     1     -28.953  33.291  -5.284  1.00  0.00     0.029 A
HETATM   20  C10 UNL     1     -30.261  32.886  -5.383  1.00  0.00     0.003 A
HETATM   21  C9  UNL     1     -30.546  31.555  -5.650  1.00  0.00     0.017 A
HETATM   22  C8  UNL     1     -29.526  30.633  -5.819  1.00  0.00     0.034 A
HETATM   23  C28 UNL     1     -28.226  31.075  -5.714  1.00  0.00     0.046 A
BRANCH  22  24
HETATM   24  C1  UNL     1     -29.806  29.208  -6.129  1.00  0.00     0.256 C
HETATM   25  O1  UNL     1     -29.148  28.785  -7.132  1.00  0.00    -0.267 OA
HETATM   26  N1  UNL     1     -30.705  28.479  -5.361  1.00  0.00    -0.323 N
ATOM     27  H1  UNL     1     -31.135  28.993  -4.592  1.00  0.00     0.169 HD
BRANCH  26  28
HETATM   28  C2  UNL     1     -31.111  27.134  -5.486  1.00  0.00     0.035 A
HETATM   29  C3  UNL     1     -32.433  26.871  -5.877  1.00  0.00     0.029 A
HETATM   30  C4  UNL     1     -32.890  25.586  -6.036  1.00  0.00     0.002 A
HETATM   31  C5  UNL     1     -31.993  24.567  -5.792  1.00  0.00     0.000 A
HETATM   32  C6  UNL     1     -30.698  24.804  -5.409  1.00  0.00     0.002 A
HETATM   33  C7  UNL     1     -30.233  26.118  -5.248  1.00  0.00     0.029 A
ENDBRANCH  26  28
ENDBRANCH  22  24
ENDBRANCH   1  18
BRANCH   6  34
HETATM   34  O2  UNL     1     -25.795  32.398  -0.748  1.00  0.00    -0.360 OA
ATOM     35  H2  UNL     1     -26.713  32.360  -0.511  1.00  0.00     0.213 HD
ENDBRANCH   6  34
BRANCH  14  36
HETATM   36  N6  UNL     1     -20.686  33.583  -2.513  1.00  0.00    -0.190 N
ATOM     37  H6  UNL     1     -20.588  33.829  -1.528  1.00  0.00     0.184 HD
BRANCH  36  38
HETATM   38  C17 UNL     1     -19.528  33.425  -3.286  1.00  0.00     0.060 A
HETATM   39  C18 UNL     1     -19.341  34.238  -4.378  1.00  0.00     0.034 A
HETATM   40  C19 UNL     1     -18.232  34.152  -5.192  1.00  0.00     0.039 A
HETATM   41  C20 UNL     1     -17.271  33.188  -4.870  1.00  0.00     0.076 A
HETATM   42  C21 UNL     1     -17.446  32.375  -3.786  1.00  0.00     0.009 A
HETATM   43  C22 UNL     1     -16.496  31.436  -3.486  1.00  0.00     0.015 A
HETATM   44  C26 UNL     1     -18.572  32.493  -2.997  1.00  0.00     0.004 A
HETATM   45  C23 UNL     1     -16.653  30.602  -2.398  1.00  0.00     0.001 A
HETATM   46  C24 UNL     1     -17.768  30.718  -1.616  1.00  0.00     0.001 A
HETATM   47  C25 UNL     1     -18.732  31.644  -1.888  1.00  0.00     0.014 A
BRANCH  41  48
HETATM   48  O3  UNL     1     -16.177  33.147  -5.723  1.00  0.00    -0.360 OA
ATOM     49  H3  UNL     1     -15.570  32.435  -5.561  1.00  0.00     0.217 HD
ENDBRANCH  41  48
ENDBRANCH  36  38
ENDBRANCH  14  36
TORSDOF 7
ENDMDL