MODEL 2
REMARK VINA RESULT: -7.445827496      0.087      1.033
REMARK  9 active torsions:
REMARK  status: ('A' for Active; 'I' for Inactive)
REMARK    1  A    between atoms: C3_5  and  O3_6
REMARK    2  A    between atoms: C5_9  and  O4_10
REMARK    3  A    between atoms: C10_16  and  O5_17
REMARK    4  A    between atoms: C11_19  and  C12_20
REMARK    5  A    between atoms: C15_23  and  C16_24
REMARK    6  A    between atoms: C16_24  and  O6_25
REMARK    7  A    between atoms: C21_32  and  O8_33
REMARK    8  A    between atoms: C25_38  and  O9_39
REMARK    9  A    between atoms: C26_41  and  C27_42
ROOT
HETATM    1  O1  UNL     1     -22.040  32.790  -5.619  1.00  0.00    -0.259 OA
HETATM    2  C1  UNL     1     -22.759  33.807  -5.888  1.00  0.00     0.300 A
HETATM    3  O2  UNL     1     -22.232  34.934  -6.283  1.00  0.00    -0.271 OA
HETATM    4  C2  UNL     1     -22.995  35.959  -6.552  1.00  0.00     0.125 A
HETATM    5  C3  UNL     1     -22.426  37.174  -6.979  1.00  0.00     0.103 A
HETATM    6  C4  UNL     1     -23.190  38.283  -7.276  1.00  0.00     0.076 A
HETATM    7  C5  UNL     1     -24.561  38.208  -7.152  1.00  0.00     0.069 A
HETATM    8  C6  UNL     1     -25.122  37.017  -6.733  1.00  0.00     0.053 A
HETATM    9  C7  UNL     1     -24.352  35.911  -6.439  1.00  0.00     0.038 A
HETATM   10  C8  UNL     1     -24.920  34.715  -6.018  1.00  0.00     0.098 A
HETATM   11  C9  UNL     1     -24.105  33.629  -5.732  1.00  0.00     0.092 A
HETATM   12  C10 UNL     1     -24.727  32.368  -5.290  1.00  0.00     0.162 C
HETATM   13  C11 UNL     1     -24.683  32.065  -3.863  1.00  0.00     0.205 C
HETATM   14  O7  UNL     1     -25.665  31.124  -3.499  1.00  0.00    -0.337 OA
HETATM   15  C19 UNL     1     -26.388  30.381  -4.416  1.00  0.00     0.082 A
HETATM   16  C20 UNL     1     -26.868  29.154  -4.040  1.00  0.00     0.074 A
HETATM   17  C21 UNL     1     -27.597  28.371  -4.923  1.00  0.00     0.068 A
HETATM   18  C22 UNL     1     -27.820  28.864  -6.178  1.00  0.00     0.037 A
HETATM   19  C23 UNL     1     -27.334  30.106  -6.556  1.00  0.00     0.016 A
HETATM   20  C24 UNL     1     -26.615  30.893  -5.703  1.00  0.00     0.016 A
HETATM   21  C25 UNL     1     -26.062  32.210  -6.007  1.00  0.00     0.156 C
HETATM   22  C26 UNL     1     -26.990  33.358  -5.881  1.00  0.00     0.204 C
HETATM   23  O10 UNL     1     -26.267  34.573  -5.876  1.00  0.00    -0.336 OA
ENDROOT
BRANCH  13  24
HETATM   24  C12 UNL     1     -24.655  33.174  -2.895  1.00  0.00    -0.025 A
HETATM   25  C13 UNL     1     -23.460  33.648  -2.415  1.00  0.00     0.010 A
HETATM   26  C14 UNL     1     -23.377  34.692  -1.508  1.00  0.00     0.010 A
HETATM   27  C15 UNL     1     -24.531  35.290  -1.058  1.00  0.00    -0.035 A
HETATM   28  C17 UNL     1     -25.742  34.829  -1.528  1.00  0.00     0.010 A
HETATM   29  C18 UNL     1     -25.798  33.789  -2.430  1.00  0.00     0.010 A
BRANCH  27  30
HETATM   30  C16 UNL     1     -24.492  36.426  -0.074  1.00  0.00     0.202 C
BRANCH  30  31
HETATM   31  O6  UNL     1     -25.790  36.905   0.071  1.00  0.00    -0.396 OA
ATOM     32  H6  UNL     1     -26.315  36.208   0.445  1.00  0.00     0.209 HD
ENDBRANCH  30  31
ENDBRANCH  27  30
ENDBRANCH  13  24
BRANCH  12  33
HETATM   33  O5  UNL     1     -23.936  31.356  -5.937  1.00  0.00    -0.378 OA
ATOM     34  H5  UNL     1     -24.416  30.555  -5.767  1.00  0.00     0.211 HD
ENDBRANCH  12  33
BRANCH  21  35
HETATM   35  O9  UNL     1     -25.700  32.163  -7.384  1.00  0.00    -0.378 OA
ATOM     36  H9  UNL     1     -24.990  31.532  -7.408  1.00  0.00     0.211 HD
ENDBRANCH  21  35
BRANCH  22  37
HETATM   37  C27 UNL     1     -27.968  33.365  -6.997  1.00  0.00    -0.026 A
HETATM   38  C28 UNL     1     -27.587  33.803  -8.239  1.00  0.00     0.010 A
HETATM   39  C29 UNL     1     -28.471  33.829  -9.299  1.00  0.00     0.001 A
HETATM   40  C30 UNL     1     -29.751  33.412  -9.118  1.00  0.00     0.000 A
HETATM   41  C31 UNL     1     -30.176  32.965  -7.889  1.00  0.00     0.001 A
HETATM   42  C32 UNL     1     -29.269  32.946  -6.829  1.00  0.00     0.010 A
ENDBRANCH  22  37
BRANCH  17  43
HETATM   43  O8  UNL     1     -28.075  27.119  -4.511  1.00  0.00    -0.361 OA
ATOM     44  H8  UNL     1     -29.003  27.001  -4.344  1.00  0.00     0.217 HD
ENDBRANCH  17  43
BRANCH   5  45
HETATM   45  O3  UNL     1     -21.044  37.207  -7.091  1.00  0.00    -0.358 OA
ATOM     46  H3  UNL     1     -20.691  37.567  -7.895  1.00  0.00     0.217 HD
ENDBRANCH   5  45
BRANCH   7  47
HETATM   47  O4  UNL     1     -25.350  39.322  -7.447  1.00  0.00    -0.361 OA
ATOM     48  H4  UNL     1     -26.114  39.515  -6.917  1.00  0.00     0.217 HD
ENDBRANCH   7  47
TORSDOF 9
ENDMDL