MODEL 5
REMARK VINA RESULT: -8.831755862      3.956      8.717
REMARK  6 active torsions:
REMARK  status: ('A' for Active; 'I' for Inactive)
REMARK    1  A    between atoms: C6_10  and  N2_11
REMARK       I    between atoms: N2_11  and  C7_13
REMARK    2  A    between atoms: C7_13  and  C8_15
REMARK    3  A    between atoms: C11_18  and  N3_19
REMARK    4  A    between atoms: N3_19  and  C12_21
REMARK    5  A    between atoms: C17_31  and  N7_32
REMARK       I    between atoms: N7_32  and  C18_34
REMARK       I    between atoms: C18_34  and  N8_36
REMARK    6  A    between atoms: N8_36  and  C19_38
ROOT
HETATM    1  C1  UNL     1     -17.569  32.062  -3.478  1.00  0.00     0.071 C
HETATM    2  C2  UNL     1     -17.545  33.036  -4.587  1.00  0.00     0.040 A
HETATM    3  N1  UNL     1     -16.413  33.290  -5.312  1.00  0.00    -0.261 N
ATOM      4  H1  UNL     1     -15.548  32.798  -5.091  1.00  0.00     0.194 HD
HETATM    5  O1  UNL     1     -16.438  34.155  -6.282  1.00  0.00    -0.195 OA
HETATM    6  C3  UNL     1     -17.498  34.833  -6.637  1.00  0.00     0.316 A
HETATM    7  O2  UNL     1     -17.479  35.649  -7.566  1.00  0.00    -0.257 OA
HETATM    8  C4  UNL     1     -18.677  34.605  -5.921  1.00  0.00     0.056 A
HETATM    9  C5  UNL     1     -19.832  35.277  -6.231  1.00  0.00     0.050 A
HETATM   10  C6  UNL     1     -21.009  35.092  -5.563  1.00  0.00     0.063 A
HETATM   11  C17 UNL     1     -21.047  34.149  -4.488  1.00  0.00     0.064 A
HETATM   12  C26 UNL     1     -19.885  33.495  -4.198  1.00  0.00     0.046 A
HETATM   13  C27 UNL     1     -18.694  33.712  -4.905  1.00  0.00     0.007 A
ENDROOT
BRANCH  10  14
HETATM   14  N2  UNL     1     -22.179  35.835  -5.814  1.00  0.00    -0.321 N
HETATM   15  C7  UNL     1     -23.025  35.657  -6.910  1.00  0.00     0.256 C
HETATM   16  O3  UNL     1     -22.846  34.800  -7.797  1.00  0.00    -0.267 OA
ATOM     17  H2  UNL     1     -22.428  36.560  -5.141  1.00  0.00     0.169 HD
BRANCH  15  18
HETATM   18  C8  UNL     1     -24.229  36.509  -7.085  1.00  0.00     0.034 A
HETATM   19  C9  UNL     1     -24.128  37.864  -7.268  1.00  0.00     0.019 A
HETATM   20  C10 UNL     1     -25.276  38.648  -7.418  1.00  0.00     0.032 A
HETATM   21  C11 UNL     1     -26.531  38.083  -7.386  1.00  0.00     0.059 A
HETATM   22  C15 UNL     1     -26.618  36.715  -7.200  1.00  0.00     0.074 A
HETATM   23  N6  UNL     1     -27.910  36.128  -7.167  1.00  0.00    -0.100 NA
HETATM   24  C16 UNL     1     -25.465  35.928  -7.049  1.00  0.00     0.045 A
BRANCH  21  25
HETATM   25  N3  UNL     1     -27.715  38.853  -7.534  1.00  0.00    -0.327 N
ATOM     26  H3  UNL     1     -28.086  39.035  -8.467  1.00  0.00     0.169 HD
BRANCH  25  27
HETATM   27  C12 UNL     1     -28.393  39.378  -6.390  1.00  0.00     0.175 C
HETATM   28  N4  UNL     1     -28.786  40.593  -6.296  1.00  0.00    -0.361 N
HETATM   29  C13 UNL     1     -29.444  40.874  -5.046  1.00  0.00     0.142 C
ATOM     30  H4  UNL     1     -28.646  41.288  -7.029  1.00  0.00     0.162 HD
HETATM   31  C14 UNL     1     -29.705  39.474  -4.499  1.00  0.00     0.142 C
HETATM   32  N5  UNL     1     -28.738  38.677  -5.209  1.00  0.00    -0.361 N
ATOM     33  H5  UNL     1     -28.368  37.774  -4.915  1.00  0.00     0.162 HD
ENDBRANCH  25  27
ENDBRANCH  21  25
ENDBRANCH  15  18
ENDBRANCH  10  14
BRANCH  11  34
HETATM   34  N7  UNL     1     -22.255  33.864  -3.836  1.00  0.00    -0.306 N
HETATM   35  C18 UNL     1     -23.241  32.948  -4.252  1.00  0.00     0.326 C
HETATM   36  O4  UNL     1     -23.117  32.272  -5.278  1.00  0.00    -0.247 OA
HETATM   37  N8  UNL     1     -24.418  32.776  -3.497  1.00  0.00    -0.288 N
ATOM     38  H8  UNL     1     -24.309  32.762  -2.483  1.00  0.00     0.172 HD
ATOM     39  H7  UNL     1     -22.438  34.371  -2.971  1.00  0.00     0.170 HD
BRANCH  37  40
HETATM   40  C19 UNL     1     -25.624  32.635  -3.949  1.00  0.00     0.153 A
HETATM   41  N9  UNL     1     -26.264  31.548  -4.369  1.00  0.00    -0.335 N
HETATM   42  C20 UNL     1     -27.502  31.650  -4.783  1.00  0.00     0.051 A
ATOM     43  H9  UNL     1     -25.795  30.642  -4.369  1.00  0.00     0.168 HD
HETATM   44  C21 UNL     1     -28.332  30.616  -5.260  1.00  0.00     0.031 A
HETATM   45  C25 UNL     1     -28.082  32.886  -4.764  1.00  0.00     0.035 A
HETATM   46  C22 UNL     1     -29.604  30.826  -5.668  1.00  0.00     0.002 A
HETATM   47  C23 UNL     1     -30.183  32.064  -5.647  1.00  0.00     0.002 A
HETATM   48  C24 UNL     1     -29.404  33.102  -5.188  1.00  0.00     0.021 A
HETATM   49  S1  UNL     1     -26.826  33.863  -4.149  1.00  0.00    -0.052 SA
ENDBRANCH  37  40
ENDBRANCH  11  34
TORSDOF 6
ENDMDL