MODEL 2
REMARK VINA RESULT: -7.667697490      7.353     10.260
REMARK  6 active torsions:
REMARK  status: ('A' for Active; 'I' for Inactive)
REMARK       I    between atoms: N1_1  and  C1_5
REMARK       I    between atoms: C1_5  and  N2_6
REMARK       I    between atoms: C1_5  and  N3_10
REMARK    1  A    between atoms: N3_10  and  C2_12
REMARK    2  A    between atoms: C4_14  and  N4_15
REMARK       I    between atoms: N4_15  and  C5_16
REMARK       I    between atoms: C5_16  and  N5_18
REMARK    3  A    between atoms: C10_26  and  C11_27
REMARK    4  A    between atoms: C12_29  and  C13_30
REMARK    5  A    between atoms: C16_33  and  N7_34
REMARK    6  A    between atoms: C20_40  and  O5_41
ROOT
HETATM    1  N4  UNL     1     -28.438  42.950  -7.664  1.00  0.00    -0.352 NA
HETATM    2  C5  UNL     1     -27.113  42.761  -7.844  1.00  0.00     0.396 C
HETATM    3  O1  UNL     1     -26.162  43.575  -7.604  1.00  0.00    -0.230 OA
HETATM    4  N5  UNL     1     -26.596  41.502  -8.370  1.00  0.00    -0.318 N
HETATM    5  C6  UNL     1     -27.587  40.492  -8.704  1.00  0.00     0.135 C
HETATM    6  C7  UNL     1     -27.353  39.249  -7.886  1.00  0.00     0.077 C
HETATM    7  C8  UNL     1     -25.917  38.929  -7.749  1.00  0.00     0.019 A
HETATM    8  N6  UNL     1     -25.541  37.697  -7.299  1.00  0.00    -0.353 N
ATOM      9  H6  UNL     1     -26.261  37.014  -7.061  1.00  0.00     0.166 HD
HETATM   10  C9  UNL     1     -24.229  37.353  -7.157  1.00  0.00     0.085 A
HETATM   11  S1  UNL     1     -23.427  35.934  -6.632  1.00  0.00    -0.069 SA
HETATM   12  C10 UNL     1     -21.817  36.453  -6.799  1.00  0.00     0.044 A
HETATM   13  C21 UNL     1     -21.950  37.731  -7.265  1.00  0.00     0.036 A
HETATM   14  C22 UNL     1     -23.195  38.192  -7.448  1.00  0.00    -0.000 A
HETATM   15  C23 UNL     1     -23.579  39.459  -7.912  1.00  0.00     0.025 A
HETATM   16  C24 UNL     1     -24.907  39.782  -8.044  1.00  0.00    -0.017 A
HETATM   17  C25 UNL     1     -25.236  41.169  -8.554  1.00  0.00     0.169 C
ENDROOT
BRANCH   1  18
HETATM   18  C4  UNL     1     -29.775  43.143  -7.480  1.00  0.00     0.117 A
HETATM   19  C3  UNL     1     -30.466  42.314  -6.571  1.00  0.00     0.093 A
HETATM   20  C2  UNL     1     -31.783  42.456  -6.281  1.00  0.00     0.106 A
HETATM   21  N8  UNL     1     -32.434  43.476  -6.930  1.00  0.00    -0.352 N
HETATM   22  C27 UNL     1     -31.824  44.286  -7.796  1.00  0.00     0.093 A
ATOM     23  H8  UNL     1     -33.425  43.620  -6.742  1.00  0.00     0.166 HD
HETATM   24  C26 UNL     1     -30.500  44.158  -8.103  1.00  0.00     0.062 A
BRANCH  20  25
HETATM   25  N3  UNL     1     -32.462  41.737  -5.462  1.00  0.00    -0.327 N
HETATM   26  C1  UNL     1     -32.383  41.709  -4.052  1.00  0.00     0.481 C
HETATM   27  N1  UNL     1     -31.183  41.037  -3.559  1.00  0.00    -0.033 N
HETATM   28  N2  UNL     1     -32.520  43.001  -3.463  1.00  0.00    -0.033 N
ATOM     29  H13 UNL     1     -30.348  41.605  -3.699  1.00  0.00     0.278 HD
ATOM     30  H12 UNL     1     -31.170  40.990  -2.540  1.00  0.00     0.278 HD
ATOM     31  H11 UNL     1     -31.085  40.113  -3.980  1.00  0.00     0.278 HD
ATOM     32  H23 UNL     1     -32.507  42.954  -2.444  1.00  0.00     0.278 HD
ATOM     33  H22 UNL     1     -31.685  43.569  -3.603  1.00  0.00     0.278 HD
ATOM     34  H21 UNL     1     -33.358  43.470  -3.806  1.00  0.00     0.278 HD
ATOM     35  H3  UNL     1     -33.144  41.107  -5.883  1.00  0.00     0.164 HD
ENDBRANCH  20  25
ENDBRANCH   1  18
BRANCH  12  36
HETATM   36  C11 UNL     1     -20.553  35.726  -6.516  1.00  0.00     0.126 A
HETATM   37  O2  UNL     1     -20.339  34.862  -5.571  1.00  0.00    -0.306 OA
HETATM   38  C12 UNL     1     -19.122  34.400  -5.587  1.00  0.00     0.089 A
HETATM   39  C19 UNL     1     -18.442  34.999  -6.631  1.00  0.00     0.077 A
HETATM   40  C20 UNL     1     -19.383  35.853  -7.220  1.00  0.00     0.103 A
BRANCH  38  41
HETATM   41  C13 UNL     1     -18.512  33.425  -4.695  1.00  0.00    -0.002 A
HETATM   42  C14 UNL     1     -17.629  32.489  -5.172  1.00  0.00     0.017 A
HETATM   43  C15 UNL     1     -17.047  31.558  -4.351  1.00  0.00     0.037 A
HETATM   44  C16 UNL     1     -17.335  31.536  -3.010  1.00  0.00     0.102 A
HETATM   45  C17 UNL     1     -18.219  32.466  -2.508  1.00  0.00     0.037 A
HETATM   46  C18 UNL     1     -18.807  33.411  -3.351  1.00  0.00     0.017 A
BRANCH  44  47
HETATM   47  N7  UNL     1     -16.737  30.573  -2.126  1.00  0.00    -0.116 N
HETATM   48  O3  UNL     1     -17.507  29.935  -1.358  1.00  0.00    -0.532 OA
HETATM   49  O4  UNL     1     -15.382  30.386  -2.140  1.00  0.00    -0.532 OA
ENDBRANCH  44  47
ENDBRANCH  38  41
BRANCH  40  50
HETATM   50  O5  UNL     1     -19.097  36.631  -8.295  1.00  0.00    -0.358 OA
ATOM     51  H5  UNL     1     -19.285  36.488  -9.215  1.00  0.00     0.217 HD
ENDBRANCH  40  50
ENDBRANCH  12  36
TORSDOF 6
ENDMDL