MODEL 3
REMARK VINA RESULT: -6.971236714      2.849      5.821
REMARK  10 active torsions:
REMARK  status: ('A' for Active; 'I' for Inactive)
REMARK    1  A    between atoms: S1_2  and  C2_3
REMARK    2  A    between atoms: C5_6  and  C6_7
REMARK    3  A    between atoms: C9_12  and  N2_13
REMARK    4  A    between atoms: C13_22  and  O2_23
REMARK    5  A    between atoms: C14_25  and  O3_26
REMARK    6  A    between atoms: N4_30  and  N5_31
REMARK    7  A    between atoms: N6_33  and  C17_35
REMARK    8  A    between atoms: C17_35  and  N7_37
REMARK    9  A    between atoms: N7_37  and  C18_39
REMARK   10  A    between atoms: C25_46  and  N8_47
ROOT
HETATM    1  C6  UNL     1     -22.955  36.461  -4.916  1.00  0.00     0.184 C
HETATM    2  C7  UNL     1     -23.549  36.291  -3.590  1.00  0.00     0.068 A
HETATM    3  C8  UNL     1     -22.975  35.502  -2.628  1.00  0.00     0.076 A
HETATM    4  N1  UNL     1     -23.503  35.410  -1.381  1.00  0.00    -0.190 N
ATOM      5  H1  UNL     1     -23.052  34.816  -0.686  1.00  0.00     0.184 HD
HETATM    6  C9  UNL     1     -24.610  36.089  -1.052  1.00  0.00     0.679 A
HETATM    7  N3  UNL     1     -25.187  36.861  -1.978  1.00  0.00    -0.156 N
ATOM      8  H3  UNL     1     -26.030  37.380  -1.733  1.00  0.00     0.187 HD
HETATM    9  C10 UNL     1     -24.683  36.978  -3.239  1.00  0.00     0.270 A
HETATM   10  O1  UNL     1     -25.339  37.740  -3.985  1.00  0.00    -0.267 OA
HETATM   11  C11 UNL     1     -21.804  34.684  -2.989  1.00  0.00     0.023 A
HETATM   12  C12 UNL     1     -21.152  33.952  -2.016  1.00  0.00     0.055 A
HETATM   13  C13 UNL     1     -19.998  33.237  -2.309  1.00  0.00     0.099 A
HETATM   14  C14 UNL     1     -19.513  33.270  -3.593  1.00  0.00     0.101 A
HETATM   15  C15 UNL     1     -20.167  34.001  -4.561  1.00  0.00     0.071 A
HETATM   16  C16 UNL     1     -21.319  34.717  -4.283  1.00  0.00     0.068 A
HETATM   17  N4  UNL     1     -22.023  35.416  -5.298  1.00  0.00    -0.263 N
ENDROOT
BRANCH  17  18
HETATM   18  N5  UNL     1     -21.830  35.129  -6.608  1.00  0.00    -0.237 N
HETATM   19  N6  UNL     1     -21.098  35.428  -7.504  1.00  0.00    -0.261 N
ATOM     20  H6  UNL     1     -21.369  34.918  -8.345  1.00  0.00     0.191 HD
ATOM     21  H5  UNL     1     -22.521  34.451  -6.927  1.00  0.00     0.208 HD
BRANCH  19  22
HETATM   22  C17 UNL     1     -20.025  36.220  -7.784  1.00  0.00     0.192 C
HETATM   23  S2  UNL     1     -18.480  35.621  -7.574  1.00  0.00    -0.039 SA
BRANCH  22  24
HETATM   24  N7  UNL     1     -20.094  37.540  -8.257  1.00  0.00    -0.332 N
ATOM     25  H7  UNL     1     -19.811  38.288  -7.624  1.00  0.00     0.168 HD
BRANCH  24  26
HETATM   26  C18 UNL     1     -20.530  37.899  -9.547  1.00  0.00     0.034 A
HETATM   27  C19 UNL     1     -21.594  37.382 -10.209  1.00  0.00     0.029 A
HETATM   28  C20 UNL     1     -21.927  37.791 -11.513  1.00  0.00     0.002 A
HETATM   29  C21 UNL     1     -21.176  38.738 -12.161  1.00  0.00     0.000 A
HETATM   30  C22 UNL     1     -20.091  39.279 -11.508  1.00  0.00     0.002 A
HETATM   31  C23 UNL     1     -19.782  38.868 -10.237  1.00  0.00     0.029 A
ENDBRANCH  24  26
ENDBRANCH  22  24
ENDBRANCH  19  22
ENDBRANCH  17  18
BRANCH   1  32
HETATM   32  C5  UNL     1     -23.916  36.755  -6.005  1.00  0.00    -0.026 A
HETATM   33  C4  UNL     1     -24.828  35.830  -6.472  1.00  0.00     0.011 A
HETATM   34  C3  UNL     1     -25.691  36.121  -7.522  1.00  0.00     0.021 A
HETATM   35  C2  UNL     1     -25.666  37.340  -8.128  1.00  0.00     0.033 A
HETATM   36  C25 UNL     1     -24.761  38.308  -7.690  1.00  0.00     0.120 A
HETATM   37  C24 UNL     1     -23.928  37.982  -6.654  1.00  0.00     0.047 A
BRANCH  35  38
HETATM   38  S1  UNL     1     -26.781  37.700  -9.476  1.00  0.00    -0.132 SA
HETATM   39  C1  UNL     1     -25.884  37.343 -11.033  1.00  0.00     0.095 C
ENDBRANCH  35  38
BRANCH  36  40
HETATM   40  N8  UNL     1     -24.740  39.571  -8.324  1.00  0.00    -0.114 N
HETATM   41  O4  UNL     1     -25.512  40.456  -7.916  1.00  0.00    -0.532 OA
HETATM   42  O5  UNL     1     -23.905  39.861  -9.368  1.00  0.00    -0.532 OA
ENDBRANCH  36  40
ENDBRANCH   1  32
BRANCH  14  43
HETATM   43  O3  UNL     1     -18.357  32.549  -3.860  1.00  0.00    -0.358 OA
ATOM     44  H3  UNL     1     -17.529  32.941  -3.610  1.00  0.00     0.217 HD
ENDBRANCH  14  43
BRANCH  13  45
HETATM   45  O2  UNL     1     -19.332  32.490  -1.317  1.00  0.00    -0.358 OA
ATOM     46  H2  UNL     1     -19.784  31.814  -0.827  1.00  0.00     0.217 HD
ENDBRANCH  13  45
BRANCH   6  47
HETATM   47  N2  UNL     1     -25.101  35.984   0.157  1.00  0.00    -0.234 N
ATOM     48  H22 UNL     1     -24.503  35.801   0.963  1.00  0.00     0.174 HD
ATOM     49  H21 UNL     1     -26.105  36.087   0.306  1.00  0.00     0.174 HD
ENDBRANCH   6  47
TORSDOF 10
ENDMDL