MODEL 4
REMARK VINA RESULT: -7.849223578      2.890      5.584
REMARK  10 active torsions:
REMARK  status: ('A' for Active; 'I' for Inactive)
REMARK    1  A    between atoms: C4_4  and  C5_5
REMARK    2  A    between atoms: C7_9  and  N2_10
REMARK    3  A    between atoms: C8_13  and  N3_14
REMARK    4  A    between atoms: N3_14  and  C9_15
REMARK    5  A    between atoms: C9_15  and  O1_16
REMARK    6  A    between atoms: C9_15  and  N4_18
REMARK    7  A    between atoms: N4_18  and  C10_19
REMARK    8  A    between atoms: C12_22  and  O3_23
REMARK    9  A    between atoms: C20_36  and  C21_37
REMARK   10  A    between atoms: C24_40  and  N6_41
ROOT
HETATM    1  C10 UNL     1     -22.310  33.080  -4.554  1.00  0.00     0.350 C
HETATM    2  O2  UNL     1     -23.439  32.202  -4.646  1.00  0.00    -0.304 OA
HETATM    3  C11 UNL     1     -24.793  32.422  -4.803  1.00  0.00     0.146 A
HETATM    4  C12 UNL     1     -25.536  31.314  -5.157  1.00  0.00     0.117 A
HETATM    5  C13 UNL     1     -26.898  31.399  -5.343  1.00  0.00     0.131 A
HETATM    6  N5  UNL     1     -27.504  32.586  -5.173  1.00  0.00    -0.328 N
ATOM      7  H5  UNL     1     -28.512  32.656  -5.308  1.00  0.00     0.168 HD
HETATM    8  C14 UNL     1     -26.809  33.680  -4.830  1.00  0.00     0.282 A
HETATM    9  O4  UNL     1     -27.393  34.806  -4.670  1.00  0.00    -0.265 OA
HETATM   10  C15 UNL     1     -25.452  33.632  -4.638  1.00  0.00     0.180 A
HETATM   11  O5  UNL     1     -24.871  34.876  -4.279  1.00  0.00    -0.301 OA
HETATM   12  C16 UNL     1     -23.740  34.978  -3.433  1.00  0.00     0.089 A
HETATM   13  C17 UNL     1     -23.863  35.954  -2.454  1.00  0.00     0.038 A
HETATM   14  C18 UNL     1     -22.828  36.141  -1.568  1.00  0.00     0.004 A
HETATM   15  C19 UNL     1     -21.730  35.355  -1.700  1.00  0.00     0.013 A
HETATM   16  C20 UNL     1     -21.579  34.361  -2.683  1.00  0.00    -0.011 A
HETATM   17  C27 UNL     1     -22.628  34.174  -3.577  1.00  0.00     0.049 A
ENDROOT
BRANCH   1  18
HETATM   18  N4  UNL     1     -21.800  33.426  -5.788  1.00  0.00    -0.359 NA
BRANCH  18  19
HETATM   19  C9  UNL     1     -21.292  33.771  -7.017  1.00  0.00     0.376 C
BRANCH  19  20
HETATM   20  N3  UNL     1     -21.538  34.938  -7.640  1.00  0.00    -0.331 NA
BRANCH  20  21
HETATM   21  C8  UNL     1     -21.826  35.970  -8.087  1.00  0.00     0.229 A
HETATM   22  C7  UNL     1     -23.083  36.573  -7.809  1.00  0.00     0.158 A
HETATM   23  N1  UNL     1     -23.454  37.752  -8.292  1.00  0.00    -0.346 N
HETATM   24  C6  UNL     1     -22.617  38.438  -9.089  1.00  0.00     0.122 A
ATOM     25  H1  UNL     1     -24.369  38.136  -8.059  1.00  0.00     0.167 HD
HETATM   26  C5  UNL     1     -21.376  37.910  -9.401  1.00  0.00     0.086 A
HETATM   27  N7  UNL     1     -21.024  36.730  -8.910  1.00  0.00    -0.324 N
ATOM     28  H7  UNL     1     -20.104  36.363  -9.157  1.00  0.00     0.169 HD
BRANCH  22  29
HETATM   29  N2  UNL     1     -23.870  35.907  -7.037  1.00  0.00    -0.381 N
ATOM     30  H22 UNL     1     -24.772  36.339  -6.837  1.00  0.00     0.157 HD
ATOM     31  H21 UNL     1     -23.585  35.000  -6.667  1.00  0.00     0.157 HD
ENDBRANCH  22  29
BRANCH  26  32
HETATM   32  C4  UNL     1     -20.484  38.702 -10.265  1.00  0.00     0.128 A
HETATM   33  C3  UNL     1     -20.837  39.253 -11.489  1.00  0.00     0.068 A
HETATM   34  C2  UNL     1     -19.727  39.906 -11.959  1.00  0.00     0.031 A
HETATM   35  C1  UNL     1     -19.542  40.664 -13.211  1.00  0.00     0.070 C
HETATM   36  N8  UNL     1     -18.754  39.723 -11.005  1.00  0.00    -0.265 N
HETATM   37  O8  UNL     1     -19.256  39.010 -10.035  1.00  0.00    -0.235 OA
ATOM     38  H8  UNL     1     -17.802  40.084 -11.048  1.00  0.00     0.194 HD
ENDBRANCH  26  32
ENDBRANCH  20  21
ENDBRANCH  19  20
BRANCH  19  39
HETATM   39  O1  UNL     1     -20.515  32.957  -7.690  1.00  0.00    -0.310 OA
ATOM     40  H1  UNL     1     -20.958  32.479  -8.381  1.00  0.00     0.223 HD
ENDBRANCH  19  39
ENDBRANCH  18  19
ENDBRANCH   1  18
BRANCH  16  41
HETATM   41  C21 UNL     1     -20.346  33.599  -2.744  1.00  0.00    -0.025 A
HETATM   42  C22 UNL     1     -19.905  32.909  -1.631  1.00  0.00     0.014 A
HETATM   43  C23 UNL     1     -18.718  32.160  -1.668  1.00  0.00     0.037 A
HETATM   44  C24 UNL     1     -17.959  32.090  -2.810  1.00  0.00     0.102 A
HETATM   45  C25 UNL     1     -18.399  32.782  -3.923  1.00  0.00     0.037 A
HETATM   46  C26 UNL     1     -19.559  33.508  -3.872  1.00  0.00     0.014 A
BRANCH  44  47
HETATM   47  N6  UNL     1     -16.753  31.312  -2.880  1.00  0.00    -0.116 N
HETATM   48  O6  UNL     1     -15.673  31.832  -2.552  1.00  0.00    -0.532 OA
HETATM   49  O7  UNL     1     -16.749  30.012  -3.299  1.00  0.00    -0.532 OA
ENDBRANCH  44  47
ENDBRANCH  16  41
BRANCH   4  50
HETATM   50  O3  UNL     1     -24.930  30.081  -5.334  1.00  0.00    -0.357 OA
ATOM     51  H3  UNL     1     -24.446  29.887  -6.129  1.00  0.00     0.218 HD
ENDBRANCH   4  50
TORSDOF 10
ENDMDL