MODEL 1
REMARK VINA RESULT: -8.856695211      0.000      0.000
REMARK  7 active torsions:
REMARK  status: ('A' for Active; 'I' for Inactive)
REMARK    1  A    between atoms: C2_2  and  O1_3
REMARK    2  A    between atoms: C5_10  and  C6_11
REMARK    3  A    between atoms: C8_15  and  N3_16
REMARK    4  A    between atoms: C11_25  and  C12_26
REMARK    5  A    between atoms: N7_29  and  C13_30
REMARK    6  A    between atoms: C15_32  and  C16_33
REMARK    7  A    between atoms: C26_46  and  O4_48
ROOT
HETATM    1  C13 UNL     1     -25.013  32.662  -4.771  1.00  0.00     0.097 A
HETATM    2  C14 UNL     1     -25.118  31.294  -4.746  1.00  0.00     0.055 A
HETATM    3  C15 UNL     1     -26.329  30.764  -4.940  1.00  0.00     0.028 A
HETATM    4  C24 UNL     1     -27.368  31.637  -5.151  1.00  0.00     0.100 A
HETATM    5  C25 UNL     1     -28.775  31.335  -5.389  1.00  0.00     0.108 C
HETATM    6  N8  UNL     1     -29.889  31.079  -5.567  1.00  0.00    -0.191 NA
HETATM    7  S1  UNL     1     -26.615  33.161  -5.068  1.00  0.00    -0.059 SA
ENDROOT
BRANCH   3   8
HETATM    8  C16 UNL     1     -26.597  29.301  -4.936  1.00  0.00     0.089 A
HETATM    9  C17 UNL     1     -26.588  28.484  -3.808  1.00  0.00     0.052 A
HETATM   10  C18 UNL     1     -26.879  27.213  -4.215  1.00  0.00     0.000 A
HETATM   11  C19 UNL     1     -27.015  25.986  -3.578  1.00  0.00     0.014 A
HETATM   12  C23 UNL     1     -27.058  27.288  -5.577  1.00  0.00     0.086 A
HETATM   13  C20 UNL     1     -27.326  24.836  -4.274  1.00  0.00     0.001 A
HETATM   14  C21 UNL     1     -27.500  24.933  -5.642  1.00  0.00     0.003 A
HETATM   15  C22 UNL     1     -27.368  26.141  -6.273  1.00  0.00     0.038 A
HETATM   16  O3  UNL     1     -26.883  28.522  -5.948  1.00  0.00    -0.309 OA
ENDBRANCH   3   8
BRANCH   1  17
HETATM   17  N7  UNL     1     -23.798  33.436  -4.583  1.00  0.00    -0.250 N
HETATM   18  N6  UNL     1     -22.747  33.606  -5.458  1.00  0.00    -0.298 N
HETATM   19  C12 UNL     1     -21.759  34.209  -4.930  1.00  0.00     0.045 C
ATOM     20  H6  UNL     1     -22.760  33.282  -6.425  1.00  0.00     0.187 HD
HETATM   21  C28 UNL     1     -22.074  34.522  -3.518  1.00  0.00     0.122 C
HETATM   22  C26 UNL     1     -23.523  34.187  -3.398  1.00  0.00     0.154 C
HETATM   23  C27 UNL     1     -23.826  33.402  -2.132  1.00  0.00     0.073 C
BRANCH  19  24
HETATM   24  C11 UNL     1     -20.503  34.535  -5.609  1.00  0.00     0.040 A
HETATM   25  C6  UNL     1     -20.201  35.578  -6.473  1.00  0.00     0.034 A
HETATM   26  N2  UNL     1     -18.873  35.468  -6.751  1.00  0.00    -0.353 N
HETATM   27  C7  UNL     1     -18.329  34.411  -6.112  1.00  0.00     0.104 A
ATOM     28  H2  UNL     1     -18.356  36.101  -7.361  1.00  0.00     0.166 HD
HETATM   29  C8  UNL     1     -17.037  33.886  -6.073  1.00  0.00     0.129 A
HETATM   30  C10 UNL     1     -19.319  33.831  -5.410  1.00  0.00     0.078 A
HETATM   31  N4  UNL     1     -16.834  32.794  -5.315  1.00  0.00    -0.337 N
HETATM   32  C9  UNL     1     -17.813  32.204  -4.609  1.00  0.00     0.182 A
ATOM     33  H4  UNL     1     -15.896  32.395  -5.275  1.00  0.00     0.168 HD
HETATM   34  N5  UNL     1     -19.029  32.737  -4.674  1.00  0.00    -0.350 N
ATOM     35  H5  UNL     1     -19.781  32.298  -4.141  1.00  0.00     0.166 HD
BRANCH  25  36
HETATM   36  C5  UNL     1     -21.150  36.569  -6.972  1.00  0.00     0.100 C
HETATM   37  C2  UNL     1     -20.715  37.036  -8.373  1.00  0.00     0.139 C
HETATM   38  C1  UNL     1     -20.849  35.917  -9.372  1.00  0.00     0.071 C
HETATM   39  N1  UNL     1     -21.849  37.963  -8.606  1.00  0.00    -0.329 N
HETATM   40  C3  UNL     1     -22.979  37.140  -8.347  1.00  0.00     0.220 C
ATOM     41  H1  UNL     1     -21.825  38.944  -8.883  1.00  0.00     0.165 HD
HETATM   42  O2  UNL     1     -24.129  37.139  -8.804  1.00  0.00    -0.274 OA
HETATM   43  C4  UNL     1     -22.537  36.123  -7.294  1.00  0.00     0.118 C
BRANCH  37  44
HETATM   44  O1  UNL     1     -19.502  37.642  -8.400  1.00  0.00    -0.370 OA
ATOM     45  H1  UNL     1     -19.066  37.655  -7.555  1.00  0.00     0.212 HD
ENDBRANCH  37  44
ENDBRANCH  25  36
BRANCH  29  46
HETATM   46  N3  UNL     1     -16.105  34.449  -6.747  1.00  0.00    -0.384 N
ATOM     47  H32 UNL     1     -16.214  34.724  -7.724  1.00  0.00     0.157 HD
ATOM     48  H31 UNL     1     -15.206  34.640  -6.303  1.00  0.00     0.157 HD
ENDBRANCH  29  46
ENDBRANCH  19  24
BRANCH  22  49
HETATM   49  O4  UNL     1     -24.332  35.336  -3.463  1.00  0.00    -0.369 OA
ATOM     50  H4  UNL     1     -25.171  35.091  -3.092  1.00  0.00     0.212 HD
ENDBRANCH  22  49
ENDBRANCH   1  17
TORSDOF 7
ENDMDL