MODEL 5
REMARK VINA RESULT: -8.906747393      5.241     10.914
REMARK  9 active torsions:
REMARK  status: ('A' for Active; 'I' for Inactive)
REMARK    1  A    between atoms: C4_4  and  N1_5
REMARK    2  A    between atoms: N2_7  and  C5_9
REMARK    3  A    between atoms: C6_10  and  O1_11
REMARK    4  A    between atoms: C7_13  and  C8_14
REMARK    5  A    between atoms: C8_14  and  O2_15
REMARK    6  A    between atoms: C8_14  and  N3_17
REMARK       I    between atoms: N3_17  and  C9_19
REMARK       I    between atoms: C9_19  and  N5_23
REMARK    7  A    between atoms: N5_23  and  C10_25
REMARK    8  A    between atoms: C16_36  and  O3_37
REMARK    9  A    between atoms: C25_47  and  S2_48
ROOT
HETATM    1  C5  UNL     1     -21.201  37.270  -7.262  1.00  0.00     0.093 A
HETATM    2  C6  UNL     1     -22.371  37.686  -6.589  1.00  0.00     0.112 A
HETATM    3  C7  UNL     1     -22.783  36.988  -5.444  1.00  0.00     0.085 A
HETATM    4  C16 UNL     1     -21.999  35.928  -5.053  1.00  0.00     0.094 A
HETATM    5  C17 UNL     1     -20.842  35.512  -5.715  1.00  0.00     0.011 A
HETATM    6  C18 UNL     1     -20.078  34.446  -5.299  1.00  0.00     0.015 A
HETATM    7  C19 UNL     1     -18.941  34.056  -5.968  1.00  0.00     0.001 A
HETATM    8  C20 UNL     1     -18.550  34.753  -7.093  1.00  0.00     0.001 A
HETATM    9  C21 UNL     1     -19.308  35.809  -7.503  1.00  0.00     0.015 A
HETATM   10  C22 UNL     1     -20.456  36.215  -6.841  1.00  0.00     0.008 A
ENDROOT
BRANCH   3  11
HETATM   11  C8  UNL     1     -23.978  37.391  -4.736  1.00  0.00     0.171 C
BRANCH  11  12
HETATM   12  O2  UNL     1     -24.942  37.791  -5.512  1.00  0.00    -0.345 OA
ATOM     13  H2  UNL     1     -25.784  37.865  -5.076  1.00  0.00     0.219 HD
ENDBRANCH  11  12
BRANCH  11  14
HETATM   14  N3  UNL     1     -24.224  37.405  -3.353  1.00  0.00    -0.170 N
HETATM   15  C9  UNL     1     -25.382  36.780  -2.833  1.00  0.00     0.679 C
HETATM   16  N4  UNL     1     -25.590  36.805  -1.564  1.00  0.00    -0.234 N
HETATM   17  N5  UNL     1     -26.299  36.140  -3.655  1.00  0.00    -0.170 N
ATOM     18  H42 UNL     1     -24.917  37.275  -0.959  1.00  0.00     0.174 HD
ATOM     19  H41 UNL     1     -26.425  36.354  -1.189  1.00  0.00     0.174 HD
ATOM     20  H5  UNL     1     -26.907  36.679  -4.272  1.00  0.00     0.186 HD
ATOM     21  H3  UNL     1     -23.567  37.865  -2.723  1.00  0.00     0.186 HD
BRANCH  17  22
HETATM   22  C10 UNL     1     -26.369  34.830  -3.624  1.00  0.00     0.166 A
HETATM   23  N6  UNL     1     -26.160  34.018  -2.595  1.00  0.00    -0.321 N
HETATM   24  C11 UNL     1     -26.284  32.723  -2.781  1.00  0.00     0.124 A
ATOM     25  H6  UNL     1     -25.909  34.391  -1.680  1.00  0.00     0.169 HD
HETATM   26  N7  UNL     1     -26.108  31.738  -1.839  1.00  0.00    -0.351 N
HETATM   27  C15 UNL     1     -26.623  32.289  -4.029  1.00  0.00     0.052 A
HETATM   28  C12 UNL     1     -26.255  30.443  -2.112  1.00  0.00     0.090 A
ATOM     29  H7  UNL     1     -25.853  32.011  -0.889  1.00  0.00     0.166 HD
HETATM   30  C13 UNL     1     -26.594  29.968  -3.355  1.00  0.00     0.018 A
HETATM   31  C14 UNL     1     -26.779  30.921  -4.325  1.00  0.00     0.024 A
HETATM   32  S1  UNL     1     -26.751  33.755  -4.893  1.00  0.00    -0.050 SA
ENDBRANCH  17  22
ENDBRANCH  11  14
ENDBRANCH   3  11
BRANCH   2  33
HETATM   33  O1  UNL     1     -23.029  38.727  -7.078  1.00  0.00    -0.357 OA
ATOM     34  H1  UNL     1     -22.881  39.574  -6.675  1.00  0.00     0.217 HD
ENDBRANCH   2  33
BRANCH   4  35
HETATM   35  O3  UNL     1     -22.337  35.206  -3.953  1.00  0.00    -0.359 OA
ATOM     36  H3  UNL     1     -22.027  34.312  -3.860  1.00  0.00     0.217 HD
ENDBRANCH   4  35
BRANCH   1  37
HETATM   37  N2  UNL     1     -20.796  37.985  -8.416  1.00  0.00    -0.297 N
HETATM   38  N1  UNL     1     -21.326  37.842  -9.566  1.00  0.00    -0.300 N
ATOM     39  H1  UNL     1     -22.092  37.188  -9.728  1.00  0.00     0.187 HD
ATOM     40  H2  UNL     1     -20.033  38.655  -8.321  1.00  0.00     0.187 HD
BRANCH  38  41
HETATM   41  C4  UNL     1     -20.785  38.652 -10.622  1.00  0.00     0.048 A
HETATM   42  C3  UNL     1     -19.489  39.119 -10.560  1.00  0.00     0.039 A
HETATM   43  C2  UNL     1     -18.927  39.910 -11.566  1.00  0.00    -0.035 A
HETATM   44  C1  UNL     1     -17.526  40.381 -11.440  1.00  0.00     0.050 C
HETATM   45  C25 UNL     1     -19.681  40.248 -12.671  1.00  0.00     0.086 A
HETATM   46  C24 UNL     1     -20.978  39.779 -12.726  1.00  0.00     0.029 A
HETATM   47  C23 UNL     1     -21.528  38.997 -11.731  1.00  0.00     0.032 A
BRANCH  45  48
HETATM   48  S2  UNL     1     -19.033  41.237 -13.963  1.00  0.00     0.138 S
HETATM   49  O4  UNL     1     -19.880  41.024 -15.197  1.00  0.00    -0.591 OA
HETATM   50  O5  UNL     1     -17.635  40.838 -14.339  1.00  0.00    -0.591 OA
HETATM   51  O6  UNL     1     -19.023  42.860 -13.542  1.00  0.00    -0.591 OA
ENDBRANCH  45  48
ENDBRANCH  38  41
ENDBRANCH   1  37
TORSDOF 9
ENDMDL