MODEL 1
REMARK VINA RESULT: -8.654167166      0.000      0.000
REMARK  9 active torsions:
REMARK  status: ('A' for Active; 'I' for Inactive)
REMARK    1  A    between atoms: C2_3  and  N2_4
REMARK    2  A    between atoms: N3_6  and  N4_8
REMARK    3  A    between atoms: N4_8  and  C3_10
REMARK    4  A    between atoms: C8_17  and  O1_18
REMARK    5  A    between atoms: C12_23  and  C13_24
REMARK    6  A    between atoms: C14_25  and  O2_26
REMARK    7  A    between atoms: C16_29  and  O3_30
REMARK    8  A    between atoms: C18_33  and  S1_34
REMARK    9  A    between atoms: S1_34  and  N6_35
ROOT
HETATM    1  C3  UNL     1     -20.509  33.527  -6.472  1.00  0.00     0.149 A
HETATM    2  N5  UNL     1     -19.288  33.602  -5.954  1.00  0.00    -0.339 N
ATOM      3  H5  UNL     1     -18.471  33.684  -6.560  1.00  0.00     0.167 HD
HETATM    4  C4  UNL     1     -19.147  33.569  -4.617  1.00  0.00     0.047 A
HETATM    5  C5  UNL     1     -17.863  33.649  -4.111  1.00  0.00     0.030 A
HETATM    6  C6  UNL     1     -17.694  33.617  -2.742  1.00  0.00     0.005 A
HETATM    7  C7  UNL     1     -18.739  33.511  -1.878  1.00  0.00     0.037 A
HETATM    8  C8  UNL     1     -20.045  33.428  -2.385  1.00  0.00     0.079 A
HETATM    9  C9  UNL     1     -20.237  33.458  -3.738  1.00  0.00     0.036 A
HETATM   10  C10 UNL     1     -21.505  33.381  -4.279  1.00  0.00     0.012 A
HETATM   11  C11 UNL     1     -22.765  33.267  -3.722  1.00  0.00     0.045 A
HETATM   12  C12 UNL     1     -23.665  33.234  -4.755  1.00  0.00     0.048 A
HETATM   13  N7  UNL     1     -22.940  33.328  -5.925  1.00  0.00    -0.352 N
ATOM     14  H7  UNL     1     -23.344  33.329  -6.862  1.00  0.00     0.166 HD
HETATM   15  C19 UNL     1     -21.618  33.417  -5.652  1.00  0.00     0.090 A
ENDROOT
BRANCH   1  16
HETATM   16  N4  UNL     1     -20.670  33.557  -7.742  1.00  0.00    -0.269 N
ATOM     17  H4  UNL     1     -20.455  32.707  -8.264  1.00  0.00     0.190 HD
BRANCH  16  18
HETATM   18  N3  UNL     1     -21.111  34.645  -8.457  1.00  0.00    -0.239 N
HETATM   19  N2  UNL     1     -20.720  35.837  -8.256  1.00  0.00    -0.271 N
ATOM     20  H2  UNL     1     -20.034  36.016  -7.522  1.00  0.00     0.190 HD
ATOM     21  H3  UNL     1     -21.795  34.486  -9.196  1.00  0.00     0.208 HD
BRANCH  19  22
HETATM   22  C2  UNL     1     -21.212  36.933  -9.030  1.00  0.00     0.126 A
HETATM   23  N1  UNL     1     -21.719  37.974  -8.342  1.00  0.00    -0.302 N
HETATM   24  C1  UNL     1     -21.747  37.948  -6.897  1.00  0.00     0.161 C
HETATM   25  C25 UNL     1     -22.179  38.999  -9.072  1.00  0.00     0.266 A
HETATM   26  C24 UNL     1     -22.137  38.995 -10.476  1.00  0.00     0.083 A
HETATM   27  O6  UNL     1     -22.662  39.998  -8.518  1.00  0.00    -0.266 OA
HETATM   28  C21 UNL     1     -21.622  37.936 -11.165  1.00  0.00    -0.009 A
HETATM   29  S2  UNL     1     -22.605  40.067 -11.715  1.00  0.00    -0.096 SA
HETATM   30  C20 UNL     1     -21.142  36.865 -10.383  1.00  0.00     0.063 A
HETATM   31  C22 UNL     1     -21.620  38.012 -12.514  1.00  0.00     0.020 A
HETATM   32  C23 UNL     1     -22.138  39.151 -13.074  1.00  0.00     0.051 A
ENDBRANCH  19  22
ENDBRANCH  16  18
ENDBRANCH   1  16
BRANCH  12  33
HETATM   33  C13 UNL     1     -25.101  33.022  -4.798  1.00  0.00     0.047 A
HETATM   34  C14 UNL     1     -25.601  31.763  -5.188  1.00  0.00     0.082 A
HETATM   35  C15 UNL     1     -26.937  31.508  -5.364  1.00  0.00     0.074 A
HETATM   36  C16 UNL     1     -27.864  32.496  -5.161  1.00  0.00     0.069 A
HETATM   37  C17 UNL     1     -27.411  33.721  -4.783  1.00  0.00     0.062 A
HETATM   38  C18 UNL     1     -26.029  33.994  -4.600  1.00  0.00     0.097 A
BRANCH  34  39
HETATM   39  O2  UNL     1     -24.693  30.750  -5.393  1.00  0.00    -0.360 OA
ATOM     40  H2  UNL     1     -24.794  29.956  -4.881  1.00  0.00     0.217 HD
ENDBRANCH  34  39
BRANCH  36  41
HETATM   41  O3  UNL     1     -29.230  32.304  -5.321  1.00  0.00    -0.361 OA
ATOM     42  H3  UNL     1     -29.774  32.857  -5.869  1.00  0.00     0.217 HD
ENDBRANCH  36  41
BRANCH  38  43
HETATM   43  S1  UNL     1     -25.589  35.614  -4.134  1.00  0.00     0.257 S
HETATM   44  O4  UNL     1     -26.937  36.431  -4.110  1.00  0.00    -0.201 OA
HETATM   45  O5  UNL     1     -25.139  35.750  -2.720  1.00  0.00    -0.201 OA
BRANCH  43  46
HETATM   46  N6  UNL     1     -24.673  36.462  -5.291  1.00  0.00    -0.324 N
ATOM     47  H62 UNL     1     -23.972  35.997  -5.867  1.00  0.00     0.169 HD
ATOM     48  H61 UNL     1     -24.885  37.458  -5.354  1.00  0.00     0.169 HD
ENDBRANCH  43  46
ENDBRANCH  38  43
ENDBRANCH  12  33
BRANCH   8  49
HETATM   49  O1  UNL     1     -21.101  33.320  -1.519  1.00  0.00    -0.360 OA
ATOM     50  H1  UNL     1     -21.838  32.766  -1.746  1.00  0.00     0.217 HD
ENDBRANCH   8  49
TORSDOF 9
ENDMDL