MODEL 5
REMARK VINA RESULT: -7.008931647      1.647      1.946
REMARK  1 active torsions:
REMARK  status: ('A' for Active; 'I' for Inactive)
REMARK    1  A    between atoms: N1_2  and  C2_4
ROOT
HETATM    1  C2  UNL     1       5.679  56.289  -2.537  1.00  0.00     0.163 A
HETATM    2  N2  UNL     1       5.067  55.147  -2.736  1.00  0.00    -0.320 N
ATOM      3  H2  UNL     1       5.295  54.342  -2.153  1.00  0.00     0.169 HD
HETATM    4  C3  UNL     1       4.165  55.034  -3.678  1.00  0.00     0.146 A
HETATM    5  C4  UNL     1       3.406  53.894  -4.037  1.00  0.00     0.015 A
HETATM    6  C5  UNL     1       2.491  53.951  -5.061  1.00  0.00     0.055 A
HETATM    7  N3  UNL     1       2.287  55.080  -5.753  1.00  0.00    -0.193 N
ATOM      8  H3  UNL     1       1.606  55.111  -6.512  1.00  0.00     0.184 HD
HETATM    9  C6  UNL     1       3.001  56.169  -5.422  1.00  0.00     0.690 A
HETATM   10  N4  UNL     1       2.860  57.275  -6.036  1.00  0.00    -0.233 N
ATOM     11  H41 UNL     1       3.403  58.102  -5.785  1.00  0.00     0.174 HD
ATOM     12  H42 UNL     1       2.178  57.303  -6.794  1.00  0.00     0.174 HD
HETATM   13  N5  UNL     1       3.916  56.132  -4.406  1.00  0.00    -0.097 N
HETATM   14  S1  UNL     1       4.962  57.274  -3.731  1.00  0.00     0.048 SA
HETATM   15  C7  UNL     1       1.759  52.690  -5.333  1.00  0.00     0.055 C
HETATM   16  C8  UNL     1       0.645  52.778  -6.262  1.00  0.00     0.036 C
HETATM   17  C9  UNL     1       0.869  52.187  -7.589  1.00  0.00    -0.037 C
HETATM   18  C10 UNL     1       0.421  53.180  -8.682  1.00  0.00     0.015 C
HETATM   19  C11 UNL     1      -0.022  50.961  -7.864  1.00  0.00     0.015 C
HETATM   20  C12 UNL     1       2.298  51.895  -7.874  1.00  0.00     0.083 C
HETATM   21  S2  UNL     1       2.974  51.626  -6.213  1.00  0.00    -0.152 SA
HETATM   22  C13 UNL     1       1.347  52.084  -4.035  1.00  0.00     0.070 C
HETATM   23  C14 UNL     1       2.475  51.776  -3.101  1.00  0.00     0.105 C
HETATM   24  C15 UNL     1       2.852  50.305  -3.215  1.00  0.00     0.052 C
HETATM   25  F1  UNL     1       1.987  51.933  -1.814  1.00  0.00    -0.243 F
HETATM   26  C16 UNL     1       3.662  52.653  -3.255  1.00  0.00     0.087 C
ENDROOT
BRANCH   1  27
HETATM   27  N1  UNL     1       6.602  56.583  -1.648  1.00  0.00    -0.374 N
HETATM   28  C1  UNL     1       7.372  57.779  -1.922  1.00  0.00     0.148 C
ATOM     29  H1  UNL     1       6.764  56.009  -0.821  1.00  0.00     0.161 HD
ENDBRANCH   1  27
TORSDOF 1
ENDMDL