MODEL 1
REMARK VINA RESULT: -6.420916755      0.000      0.000
REMARK  1 active torsions:
REMARK  status: ('A' for Active; 'I' for Inactive)
REMARK    1  A    between atoms: N2_21  and  O3_22
ROOT
HETATM    1  O1  UNL     1       5.268  52.049  -5.606  1.00  0.00    -0.270 OA
HETATM    2  C1  UNL     1       4.449  52.948  -5.894  1.00  0.00     0.252 C
HETATM    3  C2  UNL     1       4.143  53.975  -4.888  1.00  0.00     0.179 C
HETATM    4  S1  UNL     1       3.768  53.362  -3.273  1.00  0.00    -0.160 SA
HETATM    5  C3  UNL     1       3.204  51.669  -3.208  1.00  0.00     0.074 C
HETATM    6  C4  UNL     1       2.028  51.581  -2.262  1.00  0.00     0.014 C
HETATM    7  C5  UNL     1       2.004  50.298  -1.488  1.00  0.00     0.054 C
HETATM    8  C6  UNL     1       1.530  49.118  -2.266  1.00  0.00     0.163 A
HETATM    9  N1  UNL     1       2.306  47.907  -2.323  1.00  0.00    -0.332 N
ATOM     10  H1  UNL     1       3.110  47.399  -2.692  1.00  0.00     0.164 HD
HETATM   11  C7  UNL     1       1.124  47.930  -1.482  1.00  0.00     0.258 A
HETATM   12  O2  UNL     1       0.431  47.243  -0.696  1.00  0.00    -0.270 OA
HETATM   13  S2  UNL     1       0.433  49.553  -3.629  1.00  0.00    -0.127 SA
HETATM   14  C8  UNL     1       0.210  48.083  -4.667  1.00  0.00     0.087 C
HETATM   15  C9  UNL     1       1.039  48.183  -5.942  1.00  0.00     0.084 C
HETATM   16  S3  UNL     1       0.248  49.306  -7.087  1.00  0.00    -0.168 SA
HETATM   17  C10 UNL     1       1.407  50.395  -7.936  1.00  0.00     0.074 C
HETATM   18  C11 UNL     1       0.796  51.788  -8.105  1.00  0.00     0.012 C
HETATM   19  C12 UNL     1       1.863  52.738  -8.596  1.00  0.00     0.023 C
HETATM   20  C13 UNL     1       2.526  53.451  -7.429  1.00  0.00     0.159 C
HETATM   21  N2  UNL     1       3.858  52.927  -7.179  1.00  0.00    -0.228 N
ENDROOT
BRANCH  21  22
HETATM   22  O3  UNL     1       4.513  52.408  -8.267  1.00  0.00    -0.285 OA
ATOM     23  H3  UNL     1       4.534  52.861  -9.101  1.00  0.00     0.245 HD
ENDBRANCH  21  22
TORSDOF 1
ENDMDL