MODEL 4
REMARK VINA RESULT: -6.476838153      1.291      2.710
REMARK  1 active torsions:
REMARK  status: ('A' for Active; 'I' for Inactive)
REMARK    1  A    between atoms: C2_7  and  C3_8
ROOT
HETATM    1  N1  UNL     1       4.987  49.453  -1.462  1.00  0.00    -0.380 N
ATOM      2  H11 UNL     1       5.322  48.489  -1.475  1.00  0.00     0.158 HD
ATOM      3  H12 UNL     1       5.248  50.200  -0.819  1.00  0.00     0.158 HD
HETATM    4  C1  UNL     1       4.130  49.810  -2.352  1.00  0.00     0.136 C
HETATM    5  N2  UNL     1       3.655  51.175  -2.333  1.00  0.00    -0.344 N
ATOM      6  H2  UNL     1       3.613  51.646  -1.429  1.00  0.00     0.164 HD
HETATM    7  C2  UNL     1       3.232  51.929  -3.502  1.00  0.00     0.118 C
HETATM    8  C9  UNL     1       1.779  51.498  -3.786  1.00  0.00     0.056 C
HETATM    9  C10 UNL     1       1.587  50.054  -3.992  1.00  0.00     0.026 C
HETATM   10  C11 UNL     1       2.665  49.352  -4.774  1.00  0.00     0.105 C
HETATM   11  S3  UNL     1       3.671  48.493  -3.484  1.00  0.00    -0.084 SA
HETATM   12  C12 UNL     1       3.649  50.387  -5.285  1.00  0.00     0.028 A
HETATM   13  C13 UNL     1       4.409  50.253  -6.430  1.00  0.00     0.028 A
HETATM   14  C14 UNL     1       5.145  51.381  -6.541  1.00  0.00     0.019 A
HETATM   15  C15 UNL     1       4.819  52.174  -5.468  1.00  0.00     0.094 A
HETATM   16  N4  UNL     1       3.907  51.555  -4.711  1.00  0.00    -0.332 N
ENDROOT
BRANCH   7  17
HETATM   17  C3  UNL     1       3.198  53.337  -3.088  1.00  0.00     0.078 C
HETATM   18  C4  UNL     1       2.011  53.800  -2.295  1.00  0.00     0.086 C
HETATM   19  S1  UNL     1       2.619  55.136  -1.211  1.00  0.00    -0.139 SA
HETATM   20  C5  UNL     1       3.646  56.150  -2.308  1.00  0.00     0.347 C
HETATM   21  N3  UNL     1       4.464  55.360  -3.172  1.00  0.00     0.112 N
HETATM   22  C6  UNL     1       5.165  56.237  -4.077  1.00  0.00     0.348 C
HETATM   23  C8  UNL     1       3.694  54.408  -3.973  1.00  0.00     0.243 C
HETATM   24  S2  UNL     1       3.793  56.626  -5.239  1.00  0.00    -0.137 SA
HETATM   25  C7  UNL     1       2.691  55.236  -4.725  1.00  0.00     0.112 C
ENDBRANCH   7  17
TORSDOF 1
ENDMDL