MODEL 5
REMARK VINA RESULT: -6.216343366      2.498      3.487
REMARK  1 active torsions:
REMARK  status: ('A' for Active; 'I' for Inactive)
REMARK    1  A    between atoms: C10_17  and  O3_18
ROOT
HETATM    1  N1  UNL     1       4.910  52.831  -7.114  1.00  0.00    -0.074 NA
HETATM    2  C1  UNL     1       3.553  52.443  -6.981  1.00  0.00     0.165 C
HETATM    3  N2  UNL     1       3.151  51.230  -7.137  1.00  0.00    -0.267 N
ATOM      4  H2  UNL     1       3.849  50.523  -7.367  1.00  0.00     0.180 HD
HETATM    5  S1  UNL     1       1.521  50.724  -6.985  1.00  0.00     0.232 S
HETATM    6  O1  UNL     1       1.475  49.254  -7.370  1.00  0.00    -0.206 OA
HETATM    7  O2  UNL     1       0.586  51.512  -7.855  1.00  0.00    -0.206 OA
HETATM    8  C2  UNL     1       0.931  50.826  -5.313  1.00  0.00     0.173 C
HETATM    9  C3  UNL     1       1.833  50.118  -4.354  1.00  0.00     0.090 C
HETATM   10  S2  UNL     1       2.890  51.258  -3.433  1.00  0.00    -0.168 SA
HETATM   11  C4  UNL     1       2.259  51.489  -1.756  1.00  0.00     0.074 C
HETATM   12  C5  UNL     1       2.641  52.821  -1.174  1.00  0.00     0.010 C
HETATM   13  C6  UNL     1       3.980  53.309  -1.615  1.00  0.00     0.001 C
HETATM   14  C7  UNL     1       4.043  54.763  -1.936  1.00  0.00     0.000 C
HETATM   15  C8  UNL     1       2.880  55.296  -2.683  1.00  0.00     0.002 C
HETATM   16  C9  UNL     1       3.292  56.163  -3.881  1.00  0.00     0.034 C
HETATM   17  C10 UNL     1       3.852  55.297  -4.953  1.00  0.00     0.146 C
HETATM   18  C11 UNL     1       3.079  55.278  -6.224  1.00  0.00     0.179 C
HETATM   19 CL1  UNL     1       1.781  56.487  -6.280  1.00  0.00    -0.111 Cl
HETATM   20  S3  UNL     1       2.337  53.667  -6.582  1.00  0.00    -0.073 SA
ENDROOT
BRANCH  17  21
HETATM   21  O3  UNL     1       5.195  55.690  -5.148  1.00  0.00    -0.393 OA
ATOM     22  H3  UNL     1       5.268  56.594  -4.866  1.00  0.00     0.210 HD
ENDBRANCH  17  21
TORSDOF 1
ENDMDL