MODEL 3
REMARK VINA RESULT: -7.463021805      2.733      4.702
REMARK  0 active torsions:
REMARK  status: ('A' for Active; 'I' for Inactive)
ROOT
HETATM    1  N1  UNL     1       3.703  49.591  -8.266  1.00  0.00    -0.191 NA
HETATM    2  C1  UNL     1       3.036  50.487  -7.977  1.00  0.00     0.100 C
HETATM    3  C2  UNL     1       2.182  51.588  -7.637  1.00  0.00     0.057 A
HETATM    4  C3  UNL     1       1.329  52.002  -8.668  1.00  0.00     0.065 A
HETATM    5  C4  UNL     1       0.487  53.066  -8.434  1.00  0.00     0.118 A
HETATM    6  F1  UNL     1      -0.338  53.459  -9.445  1.00  0.00    -0.206 F
HETATM    7  C5  UNL     1       0.475  53.717  -7.218  1.00  0.00     0.050 A
HETATM    8  C6  UNL     1       1.315  53.295  -6.228  1.00  0.00    -0.044 A
HETATM    9  C7  UNL     1       2.185  52.226  -6.406  1.00  0.00     0.002 A
HETATM   10  C8  UNL     1       2.969  51.995  -5.142  1.00  0.00     0.108 A
HETATM   11  N2  UNL     1       4.352  51.862  -5.521  1.00  0.00    -0.316 N
ATOM     12  H2  UNL     1       4.766  52.629  -6.050  1.00  0.00     0.181 HD
HETATM   13  N3  UNL     1       5.078  50.896  -5.260  1.00  0.00    -0.277 N
ATOM     14  H3  UNL     1       6.051  50.882  -5.564  1.00  0.00     0.189 HD
HETATM   15  C9  UNL     1       4.538  49.814  -4.534  1.00  0.00     0.203 A
HETATM   16  N4  UNL     1       5.356  48.657  -4.208  1.00  0.00    -0.062 NA
HETATM   17  N5  UNL     1       3.352  49.839  -4.165  1.00  0.00    -0.351 N
ATOM     18  H5  UNL     1       3.017  49.027  -3.646  1.00  0.00     0.163 HD
HETATM   19  C10 UNL     1       2.406  50.893  -4.396  1.00  0.00     0.064 A
HETATM   20  C11 UNL     1       1.213  50.178  -5.029  1.00  0.00     0.034 C
HETATM   21  C12 UNL     1       0.394  49.575  -3.897  1.00  0.00     0.003 C
HETATM   22  C13 UNL     1       1.271  49.796  -2.683  1.00  0.00     0.003 C
HETATM   23  C14 UNL     1       1.892  51.188  -3.001  1.00  0.00     0.034 C
HETATM   24  C15 UNL     1       2.885  53.380  -4.556  1.00  0.00     0.001 C
HETATM   25  C16 UNL     1       3.786  54.229  -5.493  1.00  0.00     0.039 C
HETATM   26  C17 UNL     1       3.600  55.696  -5.266  1.00  0.00     0.168 C
HETATM   27  O1  UNL     1       3.459  55.917  -3.898  1.00  0.00    -0.391 OA
HETATM   28  C18 UNL     1       4.144  54.956  -3.194  1.00  0.00     0.168 C
HETATM   29  C19 UNL     1       3.437  53.587  -3.214  1.00  0.00     0.039 C
HETATM   30  C20 UNL     1       1.519  53.848  -4.845  1.00  0.00     0.052 C
ENDROOT
TORSDOF 0
ENDMDL