MODEL 1
REMARK VINA RESULT: -7.367462550      0.000      0.000
REMARK  0 active torsions:
REMARK  status: ('A' for Active; 'I' for Inactive)
ROOT
HETATM    1  F1  UNL     1       0.768  50.158   1.073  1.00  0.00    -0.206 F
HETATM    2  C1  UNL     1       1.716  49.877   0.177  1.00  0.00     0.119 A
HETATM    3  C2  UNL     1       2.695  48.956   0.460  1.00  0.00     0.045 A
HETATM    4  C3  UNL     1       3.681  48.657  -0.463  1.00  0.00     0.042 A
HETATM    5  C4  UNL     1       3.739  49.260  -1.708  1.00  0.00     0.102 A
HETATM    6  C5  UNL     1       2.757  50.195  -2.012  1.00  0.00     0.104 A
HETATM    7  C6  UNL     1       1.794  50.466  -1.072  1.00  0.00     0.081 A
HETATM    8  O1  UNL     1       2.757  50.849  -3.253  1.00  0.00    -0.348 OA
HETATM    9  C7  UNL     1       3.882  51.605  -3.734  1.00  0.00     0.176 C
HETATM   10  C8  UNL     1       3.514  53.070  -3.483  1.00  0.00     0.029 C
HETATM   11  C9  UNL     1       4.143  53.990  -4.481  1.00  0.00     0.028 C
HETATM   12  C10 UNL     1       3.082  54.566  -5.418  1.00  0.00     0.167 C
HETATM   13  O2  UNL     1       2.343  53.564  -6.009  1.00  0.00    -0.389 OA
HETATM   14  C11 UNL     1       1.097  54.016  -6.384  1.00  0.00     0.195 C
HETATM   15  C12 UNL     1       1.066  54.282  -7.891  1.00  0.00     0.258 C
HETATM   16  N1  UNL     1       2.130  53.480  -8.483  1.00  0.00    -0.073 N
ATOM     17  H11 UNL     1       3.010  53.570  -7.973  1.00  0.00     0.277 HD
ATOM     18  H12 UNL     1       2.443  53.855  -9.378  1.00  0.00     0.277 HD
HETATM   19  C13 UNL     1       1.698  52.111  -8.586  1.00  0.00     0.234 C
HETATM   20  C14 UNL     1       2.868  51.179  -8.419  1.00  0.00     0.055 C
HETATM   21  C15 UNL     1       2.331  49.763  -8.644  1.00  0.00     0.234 C
HETATM   22  N2  UNL     1       1.616  49.319  -7.461  1.00  0.00    -0.073 N
ATOM     23  H21 UNL     1       0.676  49.709  -7.399  1.00  0.00     0.277 HD
ATOM     24  H22 UNL     1       1.989  49.721  -6.602  1.00  0.00     0.277 HD
HETATM   25  C16 UNL     1       1.623  47.870  -7.450  1.00  0.00     0.258 C
HETATM   26  C17 UNL     1       2.431  47.293  -6.327  1.00  0.00     0.195 C
HETATM   27  O3  UNL     1       2.835  48.297  -5.476  1.00  0.00    -0.387 OA
HETATM   28  C18 UNL     1       3.303  47.786  -4.250  1.00  0.00     0.194 C
HETATM   29  C19 UNL     1       4.628  48.348  -3.873  1.00  0.00     0.201 C
HETATM   30  O4  UNL     1       4.718  48.961  -2.627  1.00  0.00    -0.346 OA
ENDROOT
TORSDOF 0
ENDMDL