MODEL 5
REMARK VINA RESULT: -6.604443342      2.620      3.353
REMARK  2 active torsions:
REMARK  status: ('A' for Active; 'I' for Inactive)
REMARK    1  A    between atoms: N1_2  and  C2_4
REMARK    2  A    between atoms: C4_10  and  C5_11
ROOT
HETATM    1  C2  UNL     1       1.188  49.052  -1.946  1.00  0.00     0.682 A
HETATM    2  N2  UNL     1       0.709  50.311  -1.661  1.00  0.00    -0.173 N
ATOM      3  H2  UNL     1       0.066  50.569  -0.913  1.00  0.00     0.186 HD
HETATM    4  C3  UNL     1       1.261  51.128  -2.566  1.00  0.00     0.168 A
HETATM    5  N3  UNL     1       1.333  52.399  -2.980  1.00  0.00    -0.323 N
ATOM      6  H3  UNL     1       0.831  53.170  -2.541  1.00  0.00     0.169 HD
HETATM    7  C4  UNL     1       2.152  52.539  -4.050  1.00  0.00     0.138 A
HETATM    8  N6  UNL     1       2.595  51.309  -4.298  1.00  0.00    -0.323 N
ATOM      9  H6  UNL     1       3.239  51.064  -5.050  1.00  0.00     0.169 HD
HETATM   10  C11 UNL     1       2.066  50.417  -3.402  1.00  0.00     0.169 A
HETATM   11  N7  UNL     1       2.003  49.144  -3.001  1.00  0.00    -0.169 N
HETATM   12  C12 UNL     1       2.725  48.081  -3.639  1.00  0.00     0.177 C
ENDROOT
BRANCH   7  13
HETATM   13  C5  UNL     1       2.449  53.799  -4.745  1.00  0.00     0.107 A
HETATM   14  C6  UNL     1       1.756  54.144  -5.913  1.00  0.00     0.038 A
HETATM   15  C7  UNL     1       0.680  53.345  -6.590  1.00  0.00     0.071 C
HETATM   16  N4  UNL     1       2.251  55.327  -6.296  1.00  0.00    -0.338 N
HETATM   17  C8  UNL     1       3.200  55.682  -5.400  1.00  0.00     0.157 A
ATOM     18  H4  UNL     1       1.964  55.864  -7.114  1.00  0.00     0.168 HD
HETATM   19  S1  UNL     1       4.330  56.891  -5.005  1.00  0.00    -0.044 SA
HETATM   20  N5  UNL     1       3.352  54.773  -4.436  1.00  0.00    -0.295 N
HETATM   21  C9  UNL     1       4.971  56.185  -3.596  1.00  0.00     0.070 A
HETATM   22 BR1  UNL     1       6.346  56.853  -2.430  1.00  0.00    -0.041 Br
HETATM   23  C10 UNL     1       4.251  55.017  -3.510  1.00  0.00     0.126 A
ENDBRANCH   7  13
BRANCH   1  24
HETATM   24  N1  UNL     1       0.825  48.044  -1.232  1.00  0.00    -0.230 N
HETATM   25  C1  UNL     1       1.368  47.652   0.016  1.00  0.00     0.165 C
ATOM     26  H1  UNL     1       0.070  47.468  -1.604  1.00  0.00     0.177 HD
ENDBRANCH   1  24
TORSDOF 2
ENDMDL