MODEL 1
REMARK VINA RESULT: -6.809115737      0.000      0.000
REMARK  1 active torsions:
REMARK  status: ('A' for Active; 'I' for Inactive)
REMARK    1  A    between atoms: N1_6  and  O1_7
ROOT
HETATM    1  C1  UNL     1       2.672  55.266  -1.425  1.00  0.00     0.073 C
HETATM    2  C2  UNL     1       3.148  54.988  -2.840  1.00  0.00     0.063 A
HETATM    3  C3  UNL     1       2.902  53.863  -3.522  1.00  0.00     0.051 A
HETATM    4  C4  UNL     1       3.407  53.777  -4.790  1.00  0.00     0.079 A
HETATM    5  S1  UNL     1       4.202  55.285  -4.954  1.00  0.00     0.025 SA
HETATM    6  N1  UNL     1       3.866  55.940  -3.445  1.00  0.00    -0.195 N
HETATM    7  S2  UNL     1       3.201  52.367  -5.882  1.00  0.00    -0.120 SA
HETATM    8  C5  UNL     1       4.643  52.142  -6.950  1.00  0.00     0.082 C
HETATM    9  C6  UNL     1       5.598  51.204  -6.260  1.00  0.00     0.038 C
HETATM   10  C7  UNL     1       5.281  49.769  -6.684  1.00  0.00     0.233 C
HETATM   11  N2  UNL     1       6.066  48.847  -5.891  1.00  0.00    -0.074 N
ATOM     12  H21 UNL     1       6.580  49.331  -5.156  1.00  0.00     0.277 HD
ATOM     13  H22 UNL     1       6.856  48.479  -6.422  1.00  0.00     0.277 HD
HETATM   14  C8  UNL     1       5.254  47.786  -5.354  1.00  0.00     0.251 C
HETATM   15  C9  UNL     1       5.008  47.924  -3.876  1.00  0.00     0.150 C
HETATM   16  N3  UNL     1       3.585  47.741  -3.656  1.00  0.00    -0.359 N
ATOM     17  H3  UNL     1       3.139  46.909  -4.043  1.00  0.00     0.162 HD
HETATM   18  C10 UNL     1       2.782  48.656  -2.933  1.00  0.00     0.217 C
HETATM   19  O2  UNL     1       1.584  48.846  -3.271  1.00  0.00    -0.274 OA
HETATM   20  C11 UNL     1       3.344  49.406  -1.765  1.00  0.00     0.103 C
HETATM   21  C12 UNL     1       2.324  50.340  -1.202  1.00  0.00     0.020 C
HETATM   22  C13 UNL     1       2.642  51.787  -1.421  1.00  0.00     0.080 C
HETATM   23  S3  UNL     1       1.968  52.394  -2.992  1.00  0.00    -0.126 SA
ENDROOT
BRANCH   6  24
HETATM   24  O1  UNL     1       4.276  57.180  -3.015  1.00  0.00    -0.276 OA
ATOM     25  H1  UNL     1       5.138  57.578  -2.977  1.00  0.00     0.246 HD
ENDBRANCH   6  24
TORSDOF 1
ENDMDL