MODEL 4
REMARK VINA RESULT: -6.583060971      1.549      1.879
REMARK  6 active torsions:
REMARK  status: ('A' for Active; 'I' for Inactive)
REMARK       I    between atoms: N2_7  and  C4_9
REMARK    1  A    between atoms: C4_9  and  O3_11
REMARK    2  A    between atoms: O3_11  and  C5_12
REMARK    3  A    between atoms: C9_16  and  C10_17
REMARK    4  A    between atoms: C11_18  and  C12_19
REMARK    5  A    between atoms: C14_22  and  N3_23
REMARK    6  A    between atoms: N4_26  and  C15_27
ROOT
HETATM    1  C1  UNL     1       4.986  48.849  -7.339  1.00  0.00     0.081 C
HETATM    2  C2  UNL     1       4.936  48.753  -5.854  1.00  0.00     0.095 A
HETATM    3  O1  UNL     1       5.305  47.716  -5.129  1.00  0.00    -0.239 OA
HETATM    4  N1  UNL     1       5.129  47.971  -3.858  1.00  0.00    -0.243 N
ATOM      5  H1  UNL     1       5.336  47.336  -3.088  1.00  0.00     0.196 HD
HETATM    6  C3  UNL     1       4.623  49.227  -3.738  1.00  0.00     0.151 A
HETATM    7  N2  UNL     1       4.305  49.867  -2.663  1.00  0.00    -0.286 N
ATOM      8  H2  UNL     1       3.931  50.815  -2.712  1.00  0.00     0.172 HD
HETATM    9  C4  UNL     1       4.487  49.226  -1.417  1.00  0.00     0.367 C
HETATM   10  O2  UNL     1       5.609  48.846  -1.037  1.00  0.00    -0.238 OA
HETATM   11  C9  UNL     1       4.487  49.759  -5.014  1.00  0.00     0.095 A
ENDROOT
BRANCH  11  12
HETATM   12  C10 UNL     1       3.991  51.060  -5.365  1.00  0.00    -0.053 C
HETATM   13  C11 UNL     1       3.554  52.162  -5.651  1.00  0.00    -0.042 C
BRANCH  13  14
HETATM   14  C12 UNL     1       3.002  53.489  -5.985  1.00  0.00     0.099 A
HETATM   15  C13 UNL     1       2.099  53.594  -7.011  1.00  0.00     0.092 A
HETATM   16  S1  UNL     1       1.755  55.265  -7.023  1.00  0.00    -0.063 SA
HETATM   17  C14 UNL     1       2.768  55.735  -5.737  1.00  0.00     0.146 A
HETATM   18  N4  UNL     1       3.327  54.588  -5.352  1.00  0.00    -0.306 N
BRANCH  17  19
HETATM   19  N3  UNL     1       2.963  56.938  -5.229  1.00  0.00    -0.379 N
ATOM     20  H32 UNL     1       3.209  57.793  -5.728  1.00  0.00     0.158 HD
ATOM     21  H31 UNL     1       2.907  57.242  -4.256  1.00  0.00     0.158 HD
ENDBRANCH  17  19
BRANCH  18  22
HETATM   22  C15 UNL     1       4.291  54.605  -4.220  1.00  0.00     0.246 C
HETATM   23 CL1  UNL     1       3.530  54.197  -2.693  1.00  0.00    -0.108 Cl
ENDBRANCH  18  22
ENDBRANCH  13  14
ENDBRANCH  11  12
BRANCH   9  24
HETATM   24  O3  UNL     1       3.392  49.018  -0.606  1.00  0.00    -0.294 OA
BRANCH  24  25
HETATM   25  C5  UNL     1       2.108  49.509  -0.862  1.00  0.00     0.061 C
HETATM   26  C6  UNL     1       1.384  48.643  -1.852  1.00  0.00     0.046 C
HETATM   27  C7  UNL     1       1.345  49.489   0.461  1.00  0.00     0.046 C
HETATM   28  C8  UNL     1       2.174  50.956  -1.306  1.00  0.00     0.046 C
ENDBRANCH  24  25
ENDBRANCH   9  24
TORSDOF 6
ENDMDL