MODEL 5
REMARK VINA RESULT: -6.396719062      2.940      3.787
REMARK  0 active torsions:
REMARK  status: ('A' for Active; 'I' for Inactive)
ROOT
HETATM    1  N1  UNL     1       4.170  52.454  -8.239  1.00  0.00    -0.379 N
ATOM      2  H11 UNL     1       4.259  51.569  -8.738  1.00  0.00     0.158 HD
ATOM      3  H12 UNL     1       4.474  53.267  -8.773  1.00  0.00     0.158 HD
HETATM    4  C1  UNL     1       3.718  52.553  -7.039  1.00  0.00     0.145 C
HETATM    5  N2  UNL     1       3.592  53.785  -6.344  1.00  0.00    -0.362 N
ATOM      6  H2  UNL     1       3.224  54.579  -6.867  1.00  0.00     0.162 HD
HETATM    7  C2  UNL     1       3.936  54.008  -4.977  1.00  0.00     0.137 C
HETATM    8  C3  UNL     1       3.949  55.536  -4.790  1.00  0.00     0.082 C
HETATM    9  C4  UNL     1       4.235  55.967  -3.396  1.00  0.00     0.157 C
HETATM   10 BR1  UNL     1       6.017  56.625  -3.086  1.00  0.00    -0.051 Br
HETATM   11  O1  UNL     1       3.225  56.752  -2.777  1.00  0.00    -0.357 OA
HETATM   12  C5  UNL     1       3.269  55.936  -1.613  1.00  0.00     0.166 C
HETATM   13  C6  UNL     1       1.897  55.428  -1.163  1.00  0.00     0.036 C
HETATM   14  C7  UNL     1       1.701  54.091  -1.910  1.00  0.00     0.014 C
HETATM   15  C8  UNL     1       2.431  54.399  -3.148  1.00  0.00     0.081 C
HETATM   16  C9  UNL     1       3.075  53.339  -3.936  1.00  0.00     0.181 C
HETATM   17  O2  UNL     1       3.969  52.797  -2.971  1.00  0.00    -0.214 OA
HETATM   18  O3  UNL     1       4.379  53.803  -2.228  1.00  0.00    -0.221 OA
HETATM   19  C10 UNL     1       3.745  54.910  -2.501  1.00  0.00     0.171 C
HETATM   20  S1  UNL     1       1.991  52.050  -4.547  1.00  0.00    -0.045 SA
HETATM   21  S2  UNL     1       3.176  51.107  -6.088  1.00  0.00    -0.019 SA
ENDROOT
TORSDOF 0
ENDMDL