MODEL 1
REMARK VINA RESULT: -7.192145469      0.000      0.000
REMARK  5 active torsions:
REMARK  status: ('A' for Active; 'I' for Inactive)
REMARK    1  A    between atoms: O1_2  and  C2_3
REMARK    2  A    between atoms: C2_3  and  O2_4
REMARK    3  A    between atoms: N4_12  and  C5_13
REMARK    4  A    between atoms: C6_16  and  N6_17
REMARK    5  A    between atoms: C7_22  and  N8_23
ROOT
HETATM    1  C5  UNL     1      13.359  -7.139  12.522  1.00  0.00     0.734 A
HETATM    2  N5  UNL     1      13.372  -5.780  12.475  1.00  0.00    -0.020 N
ATOM      3  H5  UNL     1      14.236  -5.295  12.716  1.00  0.00     0.203 HD
HETATM    4  C6  UNL     1      12.306  -5.046  12.128  1.00  0.00     0.705 A
HETATM    5  N7  UNL     1      11.154  -5.663  11.806  1.00  0.00    -0.022 N
ATOM      6  H7  UNL     1      10.332  -5.120  11.541  1.00  0.00     0.203 HD
HETATM    7  C7  UNL     1      11.103  -7.001  11.840  1.00  0.00     0.705 A
HETATM    8  N9  UNL     1      12.189  -7.717  12.192  1.00  0.00    -0.020 N
ATOM      9  H9  UNL     1      12.123  -8.735  12.210  1.00  0.00     0.203 HD
ENDROOT
BRANCH   1  10
HETATM   10  N4  UNL     1      14.514  -7.881  12.897  1.00  0.00    -0.037 N
HETATM   11  C2  UNL     1      15.088  -9.070  12.255  1.00  0.00     0.377 C
HETATM   12  N1  UNL     1      15.926  -9.613  13.294  1.00  0.00    -0.287 N
HETATM   13  C4  UNL     1      16.164  -8.572  14.237  1.00  0.00     0.209 C
ATOM     14  H1  UNL     1      16.282 -10.567  13.344  1.00  0.00     0.169 HD
HETATM   15  N2  UNL     1      17.159  -8.641  15.273  1.00  0.00    -0.062 NA
HETATM   16  N3  UNL     1      15.354  -7.627  13.978  1.00  0.00    -0.251 N
ATOM     17  H3  UNL     1      15.323  -6.760  14.514  1.00  0.00     0.190 HD
BRANCH  11  18
HETATM   18  O1  UNL     1      14.104  -9.983  11.936  1.00  0.00    -0.324 OA
HETATM   19  C1  UNL     1      13.810 -10.838  12.987  1.00  0.00     0.209 C
ENDBRANCH  11  18
BRANCH  11  20
HETATM   20  O2  UNL     1      15.778  -8.726  11.103  1.00  0.00    -0.324 OA
HETATM   21  C3  UNL     1      16.882  -9.519  10.869  1.00  0.00     0.209 C
ENDBRANCH  11  20
ENDBRANCH   1  10
BRANCH   4  22
HETATM   22  N6  UNL     1      12.327  -3.752  12.087  1.00  0.00    -0.234 N
ATOM     23  H62 UNL     1      13.171  -3.302  11.732  1.00  0.00     0.174 HD
ATOM     24  H61 UNL     1      11.542  -3.175  12.390  1.00  0.00     0.174 HD
ENDBRANCH   4  22
BRANCH   7  25
HETATM   25  N8  UNL     1       9.988  -7.566  11.527  1.00  0.00    -0.234 N
ATOM     26  H82 UNL     1       9.237  -7.691  12.207  1.00  0.00     0.174 HD
ATOM     27  H81 UNL     1       9.874  -7.888  10.566  1.00  0.00     0.174 HD
ENDBRANCH   7  25
TORSDOF 5
ENDMDL