MODEL 5
REMARK VINA RESULT: -8.501030401      2.102      3.163
REMARK  4 active torsions:
REMARK  status: ('A' for Active; 'I' for Inactive)
REMARK    1  A    between atoms: N1_1  and  C1_4
REMARK    2  A    between atoms: C2_7  and  N3_8
REMARK    3  A    between atoms: C4_10  and  C5_11
REMARK       I    between atoms: C5_11  and  N4_13
REMARK       I    between atoms: N4_13  and  C6_15
REMARK       I    between atoms: C6_15  and  N5_16
REMARK       I    between atoms: C6_15  and  N6_20
REMARK    4  A    between atoms: C8_29  and  N9_30
ROOT
HETATM    1  N3  UNL     1      11.688  -7.149  12.078  1.00  0.00    -0.096 N
HETATM    2  C3  UNL     1      12.401  -8.202  12.478  1.00  0.00     0.153 A
HETATM    3  C4  UNL     1      13.636  -7.763  12.859  1.00  0.00     0.067 A
HETATM    4  C7  UNL     1      13.660  -6.402  12.681  1.00  0.00     0.126 A
HETATM    5  N7  UNL     1      12.449  -6.081  12.204  1.00  0.00    -0.290 N
ATOM      6  H7  UNL     1      12.156  -5.133  11.970  1.00  0.00     0.187 HD
ENDROOT
BRANCH   1   7
HETATM    7  C2  UNL     1      10.341  -7.207  11.603  1.00  0.00     0.732 A
HETATM    8  N2  UNL     1       9.683  -6.097  11.237  1.00  0.00    -0.020 N
HETATM    9  C1  UNL     1       8.398  -6.156  10.785  1.00  0.00     0.705 A
ATOM     10  H2  UNL     1      10.152  -5.192  11.297  1.00  0.00     0.203 HD
HETATM   11  N10 UNL     1       7.758  -7.341  10.697  1.00  0.00    -0.022 N
HETATM   12  C8  UNL     1       8.414  -8.453  11.062  1.00  0.00     0.705 A
ATOM     13  H10 UNL     1       6.797  -7.390  10.358  1.00  0.00     0.203 HD
HETATM   14  N8  UNL     1       9.680  -8.374  11.506  1.00  0.00    -0.020 N
ATOM     15  H8  UNL     1      10.158  -9.233  11.778  1.00  0.00     0.203 HD
BRANCH   9  16
HETATM   16  N1  UNL     1       7.773  -5.082  10.434  1.00  0.00    -0.234 N
ATOM     17  H12 UNL     1       6.941  -4.803  10.956  1.00  0.00     0.174 HD
ATOM     18  H11 UNL     1       8.102  -4.520   9.649  1.00  0.00     0.174 HD
ENDBRANCH   9  16
BRANCH  12  19
HETATM   19  N9  UNL     1       7.801  -9.579  10.977  1.00  0.00    -0.234 N
ATOM     20  H92 UNL     1       8.244 -10.334  10.454  1.00  0.00     0.174 HD
ATOM     21  H91 UNL     1       6.892  -9.727  11.416  1.00  0.00     0.174 HD
ENDBRANCH  12  19
ENDBRANCH   1   7
BRANCH   3  22
HETATM   22  C5  UNL     1      14.733  -8.600  13.367  1.00  0.00     0.257 C
HETATM   23  O1  UNL     1      14.531  -9.821  13.587  1.00  0.00    -0.267 OA
HETATM   24  N4  UNL     1      16.001  -8.050  13.609  1.00  0.00    -0.307 N
HETATM   25  C6  UNL     1      17.062  -8.884  14.105  1.00  0.00     0.483 C
ATOM     26  H4  UNL     1      16.169  -7.060  13.433  1.00  0.00     0.166 HD
HETATM   27  N5  UNL     1      18.118  -8.889  13.099  1.00  0.00    -0.033 N
HETATM   28  N6  UNL     1      17.533  -8.335  15.359  1.00  0.00    -0.033 N
ATOM     29  H53 UNL     1      17.789  -9.170  12.175  1.00  0.00     0.278 HD
ATOM     30  H52 UNL     1      18.433  -7.951  12.847  1.00  0.00     0.278 HD
ATOM     31  H51 UNL     1      18.871  -9.480  13.451  1.00  0.00     0.278 HD
ATOM     32  H63 UNL     1      17.810  -7.357  15.278  1.00  0.00     0.278 HD
ATOM     33  H62 UNL     1      16.782  -8.212  16.039  1.00  0.00     0.278 HD
ATOM     34  H61 UNL     1      18.286  -8.927  15.711  1.00  0.00     0.278 HD
ENDBRANCH   3  22
TORSDOF 4
ENDMDL