MODEL 4
REMARK VINA RESULT: -7.834501136      1.845      6.350
REMARK  6 active torsions:
REMARK  status: ('A' for Active; 'I' for Inactive)
REMARK    1  A    between atoms: C2_2  and  C5_16
REMARK    2  A    between atoms: N1_3  and  N2_5
REMARK    3  A    between atoms: C3_8  and  N4_9
REMARK    4  A    between atoms: C5_16  and  O2_17
REMARK    5  A    between atoms: C5_16  and  N6_19
REMARK    6  A    between atoms: C6_22  and  N8_23
ROOT
HETATM    1  C5  UNL     1      10.704  -8.320  12.604  1.00  0.00     0.307 C
ENDROOT
BRANCH   1   2
HETATM    2  C2  UNL     1      11.148  -7.162  11.808  1.00  0.00     0.052 C
HETATM    3  C1  UNL     1      10.152  -6.379  10.990  1.00  0.00     0.070 C
HETATM    4  N1  UNL     1      12.351  -6.763  11.757  1.00  0.00    -0.279 N
ATOM      5  H1  UNL     1      12.507  -5.949  11.162  1.00  0.00     0.188 HD
BRANCH   4   6
HETATM    6  N2  UNL     1      13.473  -7.245  12.370  1.00  0.00    -0.127 N
HETATM    7  N3  UNL     1      14.381  -7.973  11.699  1.00  0.00    -0.106 N
HETATM    8  C3  UNL     1      15.380  -8.311  12.531  1.00  0.00     0.696 A
ATOM      9  H3  UNL     1      14.321  -8.229  10.713  1.00  0.00     0.208 HD
HETATM   10  N5  UNL     1      15.082  -7.785  13.721  1.00  0.00    -0.137 N
HETATM   11  C4  UNL     1      13.923  -7.138  13.622  1.00  0.00     0.375 A
ATOM     12  H5  UNL     1      15.648  -7.865  14.565  1.00  0.00     0.189 HD
HETATM   13  O1  UNL     1      13.293  -6.507  14.512  1.00  0.00    -0.243 OA
BRANCH   8  14
HETATM   14  N4  UNL     1      16.436  -9.021  12.213  1.00  0.00    -0.233 N
ATOM     15  H42 UNL     1      16.858  -9.128  11.291  1.00  0.00     0.174 HD
ATOM     16  H41 UNL     1      16.995  -9.580  12.857  1.00  0.00     0.174 HD
ENDBRANCH   8  14
ENDBRANCH   4   6
ENDBRANCH   1   2
BRANCH   1  17
HETATM   17  O2  UNL     1      10.485  -8.030  13.942  1.00  0.00    -0.369 OA
ATOM     18  H2  UNL     1      10.192  -8.775  14.454  1.00  0.00     0.212 HD
ENDBRANCH   1  17
BRANCH   1  19
HETATM   19  N6  UNL     1       9.527  -8.970  12.046  1.00  0.00    -0.074 N
HETATM   20  N7  UNL     1       8.728  -8.476  11.115  1.00  0.00    -0.113 N
HETATM   21  C6  UNL     1       7.744  -9.336  10.835  1.00  0.00     0.705 A
ATOM     22  H7  UNL     1       8.846  -7.565  10.672  1.00  0.00     0.206 HD
HETATM   23  N9  UNL     1       7.923 -10.416  11.617  1.00  0.00    -0.020 N
HETATM   24  C7  UNL     1       9.034 -10.188  12.371  1.00  0.00     0.710 A
ATOM     25  H9  UNL     1       7.336 -11.250  11.640  1.00  0.00     0.203 HD
HETATM   26  N10 UNL     1       9.486 -11.029  13.229  1.00  0.00    -0.233 N
ATOM     27 2H10 UNL     1      10.318 -10.858  13.794  1.00  0.00     0.174 HD
ATOM     28 1H10 UNL     1       9.114 -11.948  13.474  1.00  0.00     0.174 HD
BRANCH  21  29
HETATM   29  N8  UNL     1       6.785  -9.193   9.985  1.00  0.00    -0.233 N
ATOM     30  H82 UNL     1       5.837  -8.900  10.220  1.00  0.00     0.174 HD
ATOM     31  H81 UNL     1       6.816  -9.344   8.976  1.00  0.00     0.174 HD
ENDBRANCH  21  29
ENDBRANCH   1  19
TORSDOF 6
ENDMDL