MODEL 2
REMARK VINA RESULT: -8.400618337      0.765      1.338
REMARK  7 active torsions:
REMARK  status: ('A' for Active; 'I' for Inactive)
REMARK    1  A    between atoms: N1_1  and  C1_4
REMARK    2  A    between atoms: N3_9  and  C3_10
REMARK    3  A    between atoms: C3_10  and  C4_11
REMARK       I    between atoms: C4_11  and  N4_13
REMARK    4  A    between atoms: N4_13  and  C5_15
REMARK    5  A    between atoms: C6_18  and  N6_19
REMARK    6  A    between atoms: N6_19  and  N7_21
REMARK    7  A    between atoms: N10_28  and  N11_29
ROOT
HETATM    1  C4  UNL     1      12.992 -10.367  12.961  1.00  0.00     0.256 C
HETATM    2  O2  UNL     1      13.405 -11.539  12.938  1.00  0.00    -0.271 OA
HETATM    3  N4  UNL     1      11.757 -10.071  13.613  1.00  0.00    -0.156 N
ATOM      4  H4  UNL     1      11.686 -10.159  14.626  1.00  0.00     0.187 HD
ENDROOT
BRANCH   1   5
HETATM    5  C3  UNL     1      13.713  -9.221  12.341  1.00  0.00     0.260 C
BRANCH   5   6
HETATM    6  N3  UNL     1      15.100  -9.189  12.741  1.00  0.00    -0.197 N
HETATM    7  C2  UNL     1      16.085  -9.880  12.142  1.00  0.00     0.357 A
HETATM    8  N2  UNL     1      17.225  -9.594  12.793  1.00  0.00    -0.137 N
HETATM    9  O1  UNL     1      15.986 -10.655  11.157  1.00  0.00    -0.244 OA
HETATM   10  C1  UNL     1      16.950  -8.721  13.802  1.00  0.00     0.716 A
ATOM     11  H2  UNL     1      18.146  -9.968  12.568  1.00  0.00     0.189 HD
HETATM   12  N10 UNL     1      15.609  -8.482  13.750  1.00  0.00    -0.020 N
BRANCH  10  13
HETATM   13  N1  UNL     1      17.763  -8.201  14.658  1.00  0.00    -0.231 N
ATOM     14  H12 UNL     1      17.673  -7.269  15.061  1.00  0.00     0.174 HD
ATOM     15  H11 UNL     1      18.602  -8.613  15.066  1.00  0.00     0.174 HD
ENDBRANCH  10  13
BRANCH  12  16
HETATM   16  N11 UNL     1      14.857  -7.653  14.581  1.00  0.00    -0.309 N
ATOM     17 2H11 UNL     1      14.918  -6.635  14.578  1.00  0.00     0.179 HD
ATOM     18 1H11 UNL     1      14.169  -7.929  15.281  1.00  0.00     0.179 HD
ENDBRANCH  12  16
ENDBRANCH   5   6
ENDBRANCH   1   5
BRANCH   3  19
HETATM   19  C5  UNL     1      10.733  -9.694  12.929  1.00  0.00     0.714 A
HETATM   20  N5  UNL     1      10.549  -8.539  12.274  1.00  0.00    -0.018 N
HETATM   21  C6  UNL     1       9.341  -8.582  11.706  1.00  0.00     0.726 A
ATOM     22  H5  UNL     1      11.212  -7.766  12.218  1.00  0.00     0.203 HD
HETATM   23  N8  UNL     1       8.787  -9.754  12.012  1.00  0.00    -0.116 N
HETATM   24  N9  UNL     1       9.631 -10.431  12.755  1.00  0.00    -0.117 N
ATOM     25  H8  UNL     1       7.863 -10.072  11.718  1.00  0.00     0.206 HD
ATOM     26  H9  UNL     1       9.473 -11.364  13.135  1.00  0.00     0.206 HD
BRANCH  21  27
HETATM   27  N6  UNL     1       8.787  -7.520  10.916  1.00  0.00    -0.137 N
ATOM     28  H6  UNL     1       8.015  -7.678  10.268  1.00  0.00     0.205 HD
BRANCH  27  29
HETATM   29  N7  UNL     1       9.365  -6.257  11.083  1.00  0.00    -0.331 N
ATOM     30  H72 UNL     1       9.670  -5.937  12.002  1.00  0.00     0.177 HD
ATOM     31  H71 UNL     1       9.458  -5.688  10.242  1.00  0.00     0.177 HD
ENDBRANCH  27  29
ENDBRANCH  21  27
ENDBRANCH   3  19
TORSDOF 7
ENDMDL