MODEL 2
REMARK VINA RESULT: -8.018519536      1.064      1.078
REMARK  5 active torsions:
REMARK  status: ('A' for Active; 'I' for Inactive)
REMARK    1  A    between atoms: N1_2  and  O1_3
REMARK    2  A    between atoms: N1_2  and  N2_5
REMARK    3  A    between atoms: N2_5  and  N3_6
REMARK    4  A    between atoms: N3_6  and  C2_8
REMARK       I    between atoms: N4_12  and  C5_13
REMARK       I    between atoms: C5_13  and  N5_14
REMARK    5  A    between atoms: N8_19  and  N9_21
ROOT
HETATM    1  C2  UNL     1      12.504  -7.300  12.092  1.00  0.00     0.139 A
HETATM    2  C3  UNL     1      12.255  -8.658  12.266  1.00  0.00     0.127 A
HETATM    3  C4  UNL     1      13.381  -9.268  12.779  1.00  0.00     0.286 A
HETATM    4  O2  UNL     1      13.518 -10.486  13.062  1.00  0.00    -0.266 OA
HETATM    5  N4  UNL     1      14.290  -8.292  12.913  1.00  0.00    -0.045 N
HETATM    6  C5  UNL     1      15.610  -8.444  13.409  1.00  0.00     0.723 C
HETATM    7  N5  UNL     1      16.671  -8.960  12.658  1.00  0.00    -0.163 N
ATOM      8  H5  UNL     1      17.517  -9.159  13.192  1.00  0.00     0.186 HD
HETATM    9  C6  UNL     1      16.748  -9.217  11.431  1.00  0.00     0.215 C
HETATM   10  N6  UNL     1      17.963  -9.744  10.911  1.00  0.00    -0.066 NA
HETATM   11  N7  UNL     1      15.684  -9.006  10.527  1.00  0.00    -0.066 NA
HETATM   12  N8  UNL     1      15.843  -8.084  14.632  1.00  0.00    -0.137 N
ATOM     13  H8  UNL     1      15.068  -7.708  15.180  1.00  0.00     0.205 HD
HETATM   14  N10 UNL     1      13.778  -7.135  12.510  1.00  0.00    -0.260 N
ATOM     15  H10 UNL     1      14.277  -6.244  12.515  1.00  0.00     0.190 HD
ENDROOT
BRANCH  12  16
HETATM   16  N9  UNL     1      17.090  -8.181  15.237  1.00  0.00    -0.331 N
ATOM     17  H92 UNL     1      17.804  -7.517  14.941  1.00  0.00     0.177 HD
ATOM     18  H91 UNL     1      17.318  -8.874  15.951  1.00  0.00     0.177 HD
ENDBRANCH  12  16
BRANCH   1  19
HETATM   19  N3  UNL     1      11.635  -6.291  11.590  1.00  0.00    -0.271 N
ATOM     20  H3  UNL     1      12.011  -5.555  10.994  1.00  0.00     0.185 HD
BRANCH  19  21
HETATM   21  N2  UNL     1      10.294  -6.295  11.899  1.00  0.00    -0.021 NA
BRANCH  21  22
HETATM   22  N1  UNL     1       9.743  -5.003  11.880  1.00  0.00    -0.096 NA
HETATM   23  C1  UNL     1      10.807  -4.039  11.864  1.00  0.00     0.168 C
BRANCH  22  24
HETATM   24  O1  UNL     1       8.864  -4.834  10.872  1.00  0.00    -0.296 OA
ATOM     25  H1  UNL     1       9.222  -5.066  10.024  1.00  0.00     0.238 HD
ENDBRANCH  22  24
ENDBRANCH  21  22
ENDBRANCH  19  21
ENDBRANCH   1  19
TORSDOF 5
ENDMDL