MODEL 3
REMARK VINA RESULT: -9.002420380      2.065      3.178
REMARK  5 active torsions:
REMARK  status: ('A' for Active; 'I' for Inactive)
REMARK    1  A    between atoms: N1_1  and  C1_4
REMARK    2  A    between atoms: C4_12  and  N4_13
REMARK    3  A    between atoms: N4_13  and  N5_15
REMARK    4  A    between atoms: N5_15  and  C5_17
REMARK    5  A    between atoms: N8_26  and  N9_27
ROOT
HETATM    1  N5  UNL     1      12.140  -8.547  12.977  1.00  0.00    -0.129 N
ATOM      2  H5  UNL     1      12.514  -7.612  13.135  1.00  0.00     0.205 HD
ENDROOT
BRANCH   1   3
HETATM    3  N4  UNL     1      12.959  -9.585  13.369  1.00  0.00    -0.281 N
ATOM      4  H4  UNL     1      12.583 -10.451  13.755  1.00  0.00     0.187 HD
BRANCH   3   5
HETATM    5  C4  UNL     1      14.367  -9.378  13.202  1.00  0.00     0.107 A
HETATM    6  C1  UNL     1      15.060  -8.334  13.738  1.00  0.00     0.132 A
HETATM    7  N2  UNL     1      16.366  -8.224  13.479  1.00  0.00    -0.293 N
HETATM    8  C2  UNL     1      16.988  -9.142  12.693  1.00  0.00     0.325 A
ATOM      9  H2  UNL     1      16.899  -7.448  13.874  1.00  0.00     0.172 HD
HETATM   10  O1  UNL     1      18.224  -9.000  12.471  1.00  0.00    -0.247 OA
HETATM   11  N3  UNL     1      16.342 -10.178  12.149  1.00  0.00    -0.316 N
HETATM   12  C3  UNL     1      15.034 -10.292  12.408  1.00  0.00     0.127 A
ATOM     13  H3  UNL     1      16.826 -10.856  11.560  1.00  0.00     0.170 HD
BRANCH   6  14
HETATM   14  N1  UNL     1      14.468  -7.476  14.471  1.00  0.00    -0.383 N
ATOM     15  H12 UNL     1      13.599  -7.044  14.158  1.00  0.00     0.157 HD
ATOM     16  H11 UNL     1      14.854  -7.210  15.376  1.00  0.00     0.157 HD
ENDBRANCH   6  14
ENDBRANCH   3   5
ENDBRANCH   1   3
BRANCH   1  17
HETATM   17  C5  UNL     1      10.862  -8.593  12.391  1.00  0.00     0.726 A
HETATM   18  N6  UNL     1      10.095  -9.712  12.486  1.00  0.00    -0.138 N
HETATM   19  C6  UNL     1       8.883  -9.829  11.930  1.00  0.00     0.342 A
ATOM     20  H6  UNL     1      10.463 -10.507  13.010  1.00  0.00     0.189 HD
HETATM   21  O2  UNL     1       8.222 -10.912  12.064  1.00  0.00    -0.246 OA
HETATM   22  N7  UNL     1       8.411  -8.784  11.242  1.00  0.00    -0.258 N
HETATM   23  C7  UNL     1       9.134  -7.660  11.120  1.00  0.00     0.363 A
ATOM     24  H7  UNL     1       7.491  -8.843  10.805  1.00  0.00     0.175 HD
HETATM   25  O3  UNL     1       8.702  -6.658  10.469  1.00  0.00    -0.244 OA
HETATM   26  N8  UNL     1      10.379  -7.559  11.702  1.00  0.00    -0.036 N
BRANCH  26  27
HETATM   27  N9  UNL     1      11.112  -6.395  11.573  1.00  0.00    -0.320 N
ATOM     28  H92 UNL     1      11.792  -6.299  10.819  1.00  0.00     0.178 HD
ATOM     29  H91 UNL     1      10.979  -5.623  12.227  1.00  0.00     0.178 HD
ENDBRANCH  26  27
ENDBRANCH   1  17
TORSDOF 5
ENDMDL