MODEL 5
REMARK VINA RESULT: -7.257187648      2.244      4.856
REMARK  4 active torsions:
REMARK  status: ('A' for Active; 'I' for Inactive)
REMARK    1  A    between atoms: C2_2  and  N8_21
REMARK    2  A    between atoms: N1_3  and  N2_5
REMARK    3  A    between atoms: C3_6  and  N3_7
REMARK    4  A    between atoms: N8_21  and  N9_23
REMARK       I    between atoms: N9_23  and  C7_25
REMARK       I    between atoms: C7_25  and  N10_26
REMARK       I    between atoms: C7_25  and  N11_30
ROOT
HETATM    1  C1  UNL     1      11.816  -3.882  13.205  1.00  0.00     0.092 C
HETATM    2  C2  UNL     1      11.898  -5.285  12.773  1.00  0.00     0.107 C
HETATM    3  N1  UNL     1      12.505  -6.144  13.481  1.00  0.00    -0.265 N
ATOM      4  H1  UNL     1      12.930  -5.827  14.352  1.00  0.00     0.189 HD
ENDROOT
BRANCH   3   5
HETATM    5  N2  UNL     1      12.633  -7.495  13.149  1.00  0.00    -0.065 N
HETATM    6  C3  UNL     1      13.867  -8.025  13.086  1.00  0.00     0.702 A
HETATM    7  N4  UNL     1      14.038  -9.339  12.767  1.00  0.00    -0.152 N
HETATM    8  C4  UNL     1      12.994 -10.150  12.506  1.00  0.00     0.291 A
ATOM      9  H4  UNL     1      14.984  -9.720  12.724  1.00  0.00     0.187 HD
HETATM   10  O1  UNL     1      13.162 -11.366  12.211  1.00  0.00    -0.265 OA
HETATM   11  C5  UNL     1      11.722  -9.633  12.564  1.00  0.00     0.162 A
HETATM   12  N5  UNL     1      10.505 -10.171  12.361  1.00  0.00    -0.276 N
HETATM   13  C6  UNL     1      11.591  -8.293  12.892  1.00  0.00     0.192 A
HETATM   14  N6  UNL     1       9.644  -9.189  12.559  1.00  0.00    -0.020 NA
ATOM     15  H5  UNL     1      10.293 -11.136  12.108  1.00  0.00     0.184 HD
HETATM   16  N7  UNL     1      10.265  -8.065  12.875  1.00  0.00    -0.265 N
ATOM     17  H7  UNL     1       9.813  -7.171  13.073  1.00  0.00     0.186 HD
BRANCH   6  18
HETATM   18  N3  UNL     1      14.886  -7.260  13.334  1.00  0.00    -0.233 N
ATOM     19  H32 UNL     1      15.045  -6.407  12.798  1.00  0.00     0.174 HD
ATOM     20  H31 UNL     1      15.528  -7.528  14.080  1.00  0.00     0.174 HD
ENDBRANCH   6  18
ENDBRANCH   3   5
BRANCH   2  21
HETATM   21  N8  UNL     1      11.290  -5.672  11.557  1.00  0.00    -0.289 N
ATOM     22  H8  UNL     1      11.676  -6.439  11.006  1.00  0.00     0.188 HD
BRANCH  21  23
HETATM   23  N9  UNL     1      10.168  -4.996  11.132  1.00  0.00    -0.283 N
HETATM   24  C7  UNL     1       8.966  -5.768  11.134  1.00  0.00     0.494 C
HETATM   25  N10 UNL     1       7.886  -4.917  10.664  1.00  0.00    -0.032 N
HETATM   26  N11 UNL     1       9.110  -6.881  10.230  1.00  0.00    -0.032 N
ATOM     27 3H10 UNL     1       7.802  -4.053  11.200  1.00  0.00     0.279 HD
ATOM     28 2H10 UNL     1       8.083  -4.495   9.756  1.00  0.00     0.279 HD
ATOM     29 1H10 UNL     1       7.028  -5.468  10.666  1.00  0.00     0.279 HD
ATOM     30 3H11 UNL     1       9.377  -6.584   9.291  1.00  0.00     0.279 HD
ATOM     31 2H11 UNL     1       9.932  -7.447  10.442  1.00  0.00     0.279 HD
ATOM     32 1H11 UNL     1       8.252  -7.433  10.232  1.00  0.00     0.279 HD
ATOM     33  H9  UNL     1      10.193  -4.019  10.839  1.00  0.00     0.184 HD
ENDBRANCH  21  23
ENDBRANCH   2  21
TORSDOF 4
ENDMDL