MODEL 4
REMARK VINA RESULT: -9.053310234      2.386      6.322
REMARK  4 active torsions:
REMARK  status: ('A' for Active; 'I' for Inactive)
REMARK    1  A    between atoms: N1_1  and  C1_4
REMARK    2  A    between atoms: C2_7  and  C3_8
REMARK       I    between atoms: C3_8  and  N3_10
REMARK       I    between atoms: N3_10  and  C4_12
REMARK       I    between atoms: C4_12  and  N4_13
REMARK       I    between atoms: C4_12  and  N5_17
REMARK    3  A    between atoms: C6_22  and  C7_23
REMARK       I    between atoms: C7_23  and  N6_25
REMARK    4  A    between atoms: N6_25  and  N7_27
ROOT
HETATM    1  C1  UNL     1      11.593  -5.098  11.968  1.00  0.00     0.677 A
HETATM    2  N2  UNL     1      12.738  -5.689  12.352  1.00  0.00    -0.186 N
ATOM      3  H2  UNL     1      13.537  -5.094  12.571  1.00  0.00     0.184 HD
HETATM    4  C2  UNL     1      12.890  -7.021  12.465  1.00  0.00     0.119 A
HETATM    5  C5  UNL     1      11.763  -7.787  12.149  1.00  0.00     0.071 A
HETATM    6  C6  UNL     1      10.568  -7.236  11.748  1.00  0.00     0.120 A
HETATM    7  N8  UNL     1      10.517  -5.883  11.669  1.00  0.00    -0.186 N
ATOM      8  H8  UNL     1       9.647  -5.438  11.377  1.00  0.00     0.184 HD
ENDROOT
BRANCH   4   9
HETATM    9  C3  UNL     1      14.132  -7.660  12.845  1.00  0.00     0.271 C
HETATM   10  O1  UNL     1      14.533  -7.552  14.020  1.00  0.00    -0.266 OA
HETATM   11  N3  UNL     1      14.860  -8.399  11.875  1.00  0.00    -0.306 N
HETATM   12  C4  UNL     1      16.104  -9.051  12.218  1.00  0.00     0.483 C
ATOM     13  H3  UNL     1      14.501  -8.471  10.923  1.00  0.00     0.166 HD
HETATM   14  N4  UNL     1      15.868 -10.465  12.551  1.00  0.00    -0.033 N
HETATM   15  N5  UNL     1      17.039  -8.881  11.140  1.00  0.00    -0.033 N
ATOM     16  H43 UNL     1      15.169 -10.570  13.286  1.00  0.00     0.278 HD
ATOM     17  H42 UNL     1      15.376 -10.954  11.804  1.00  0.00     0.278 HD
ATOM     18  H41 UNL     1      16.745 -10.924  12.794  1.00  0.00     0.278 HD
ATOM     19  H53 UNL     1      16.666  -9.204  10.248  1.00  0.00     0.278 HD
ATOM     20  H52 UNL     1      17.172  -7.900  10.894  1.00  0.00     0.278 HD
ATOM     21  H51 UNL     1      17.917  -9.341  11.383  1.00  0.00     0.278 HD
ENDBRANCH   4   9
BRANCH   1  22
HETATM   22  N1  UNL     1      11.508  -3.802  11.890  1.00  0.00    -0.234 N
ATOM     23  H12 UNL     1      12.324  -3.216  12.069  1.00  0.00     0.174 HD
ATOM     24  H11 UNL     1      10.627  -3.351  11.642  1.00  0.00     0.174 HD
ENDBRANCH   1  22
BRANCH   6  25
HETATM   25  C7  UNL     1       9.444  -8.089  11.380  1.00  0.00     0.291 C
HETATM   26  O2  UNL     1       8.728  -7.759  10.379  1.00  0.00    -0.264 OA
HETATM   27  N6  UNL     1       9.107  -9.264  12.077  1.00  0.00    -0.204 N
ATOM     28  H6  UNL     1       9.672  -9.556  12.874  1.00  0.00     0.196 HD
BRANCH  27  29
HETATM   29  N7  UNL     1       8.014 -10.031  11.694  1.00  0.00    -0.036 N
HETATM   30  O3  UNL     1       6.854  -9.676  11.915  1.00  0.00    -0.516 OA
HETATM   31  O4  UNL     1       8.238 -11.227  11.051  1.00  0.00    -0.516 OA
ENDBRANCH  27  29
ENDBRANCH   6  25
TORSDOF 4
ENDMDL