MODEL 3
REMARK VINA RESULT: -9.042862444      1.273      1.383
REMARK  7 active torsions:
REMARK  status: ('A' for Active; 'I' for Inactive)
REMARK    1  A    between atoms: C1_2  and  C2_3
REMARK    2  A    between atoms: C2_3  and  O1_4
REMARK    3  A    between atoms: C2_3  and  N2_6
REMARK    4  A    between atoms: N2_6  and  C3_8
REMARK    5  A    between atoms: C6_13  and  C7_14
REMARK       I    between atoms: C7_14  and  N5_16
REMARK    6  A    between atoms: N5_16  and  N6_17
REMARK    7  A    between atoms: N7_22  and  N8_23
ROOT
HETATM    1  C3  UNL     1      11.008  -8.144  12.319  1.00  0.00     0.158 A
HETATM    2  C4  UNL     1      11.573  -9.440  12.465  1.00  0.00     0.117 A
HETATM    3  N3  UNL     1      10.664 -10.539  12.418  1.00  0.00    -0.096 NA
HETATM    4  C5  UNL     1      12.914  -9.626  12.652  1.00  0.00     0.097 A
HETATM    5  N4  UNL     1      13.469 -10.933  12.786  1.00  0.00    -0.099 NA
HETATM    6  C6  UNL     1      13.774  -8.554  12.706  1.00  0.00     0.144 A
HETATM    7  C8  UNL     1      13.232  -7.315  12.563  1.00  0.00     0.286 A
HETATM    8  O3  UNL     1      13.944  -6.284  12.599  1.00  0.00    -0.265 OA
HETATM    9  N7  UNL     1      11.878  -7.152  12.375  1.00  0.00    -0.207 N
ENDROOT
BRANCH   1  10
HETATM   10  N2  UNL     1       9.636  -8.048  12.002  1.00  0.00    -0.319 N
ATOM     11  H2  UNL     1       9.077  -8.100  12.854  1.00  0.00     0.169 HD
BRANCH  10  12
HETATM   12  C2  UNL     1       8.838  -7.909  10.941  1.00  0.00     0.155 C
BRANCH  12  13
HETATM   13  C1  UNL     1       7.717  -8.639  10.392  1.00  0.00     0.155 C
HETATM   14  N1  UNL     1       7.373  -9.934  10.827  1.00  0.00    -0.111 NA
ENDBRANCH  12  13
BRANCH  12  15
HETATM   15  O1  UNL     1       9.123  -6.856  10.163  1.00  0.00    -0.345 OA
ATOM     16  H1  UNL     1       9.951  -6.473  10.427  1.00  0.00     0.219 HD
ENDBRANCH  12  15
ENDBRANCH  10  12
ENDBRANCH   1  10
BRANCH   9  17
HETATM   17  N8  UNL     1      11.444  -5.829  12.087  1.00  0.00    -0.334 N
ATOM     18  H82 UNL     1      11.317  -5.215  12.892  1.00  0.00     0.177 HD
ATOM     19  H81 UNL     1      11.377  -5.526  11.116  1.00  0.00     0.177 HD
ENDBRANCH   9  17
BRANCH   6  20
HETATM   20  C7  UNL     1      15.239  -8.755  12.923  1.00  0.00     0.352 C
HETATM   21  O2  UNL     1      15.560  -8.766  14.166  1.00  0.00    -0.249 OA
HETATM   22  N5  UNL     1      16.058  -8.907  11.875  1.00  0.00    -0.288 NA
BRANCH  22  23
HETATM   23  N6  UNL     1      16.874  -9.059  10.831  1.00  0.00    -0.276 N
ATOM     24  H62 UNL     1      16.259  -8.902  11.630  1.00  0.00     0.191 HD
ATOM     25  H61 UNL     1      17.497  -9.176  10.033  1.00  0.00     0.191 HD
ENDBRANCH  22  23
ENDBRANCH   6  20
TORSDOF 7
ENDMDL