MODEL 2
REMARK VINA RESULT: -8.156153763      2.147      4.667
REMARK  8 active torsions:
REMARK  status: ('A' for Active; 'I' for Inactive)
REMARK    1  A    between atoms: C2_2  and  O2_4
REMARK    2  A    between atoms: O2_4  and  N1_5
REMARK    3  A    between atoms: N1_5  and  N2_7
REMARK    4  A    between atoms: C3_8  and  C4_9
REMARK    5  A    between atoms: C6_16  and  N6_17
REMARK    6  A    between atoms: C7_20  and  N7_21
REMARK    7  A    between atoms: N7_21  and  N8_23
REMARK    8  A    between atoms: N8_23  and  N9_25
ROOT
HETATM    1  N2  UNL     1      13.459  -8.236  12.453  1.00  0.00    -0.207 N
HETATM    2  C3  UNL     1      12.835  -9.416  12.654  1.00  0.00     0.166 A
HETATM    3  C5  UNL     1      11.442  -9.452  12.434  1.00  0.00     0.152 A
HETATM    4  N4  UNL     1      10.718 -10.657  12.626  1.00  0.00    -0.080 NA
HETATM    5  N5  UNL     1      10.780  -8.353  12.043  1.00  0.00    -0.326 N
ATOM      6  H5  UNL     1       9.772  -8.406  11.892  1.00  0.00     0.168 HD
HETATM    7  C6  UNL     1      11.413  -7.182  11.846  1.00  0.00     0.148 A
HETATM    8  C7  UNL     1      12.771  -7.123  12.053  1.00  0.00     0.189 A
ENDROOT
BRANCH   8   9
HETATM    9  N7  UNL     1      13.430  -6.044  11.884  1.00  0.00    -0.267 N
ATOM     10  H7  UNL     1      14.253  -6.093  11.284  1.00  0.00     0.190 HD
BRANCH   9  11
HETATM   11  N8  UNL     1      13.126  -4.806  12.444  1.00  0.00    -0.248 N
ATOM     12  H8  UNL     1      12.972  -4.779  13.452  1.00  0.00     0.207 HD
BRANCH  11  13
HETATM   13  N9  UNL     1      13.017  -3.627  11.771  1.00  0.00    -0.331 N
ATOM     14  H92 UNL     1      12.082  -3.389  11.439  1.00  0.00     0.178 HD
ATOM     15  H91 UNL     1      13.776  -2.976  11.574  1.00  0.00     0.178 HD
ENDBRANCH  11  13
ENDBRANCH   9  11
ENDBRANCH   8   9
BRANCH   1  16
HETATM   16  N1  UNL     1      14.801  -8.076  12.635  1.00  0.00    -0.189 N
ATOM     17  H1  UNL     1      15.140  -7.708  13.524  1.00  0.00     0.217 HD
BRANCH  16  18
HETATM   18  O2  UNL     1      15.728  -8.401  11.636  1.00  0.00    -0.184 OA
BRANCH  18  19
HETATM   19  C2  UNL     1      16.986  -8.798  12.011  1.00  0.00     0.279 C
HETATM   20  C1  UNL     1      17.342  -9.122  13.430  1.00  0.00     0.128 C
HETATM   21  O1  UNL     1      17.882  -8.895  11.135  1.00  0.00    -0.264 OA
ENDBRANCH  18  19
ENDBRANCH  16  18
ENDBRANCH   1  16
BRANCH   7  22
HETATM   22  N6  UNL     1      10.769  -6.129  11.469  1.00  0.00    -0.382 N
ATOM     23  H62 UNL     1       9.848  -6.218  11.038  1.00  0.00     0.157 HD
ATOM     24  H61 UNL     1      11.162  -5.196  11.592  1.00  0.00     0.157 HD
ENDBRANCH   7  22
BRANCH   2  25
HETATM   25  C4  UNL     1      13.442 -10.642  13.066  1.00  0.00     0.287 C
HETATM   26  N3  UNL     1      14.520 -11.308  12.440  1.00  0.00    -0.056 NA
HETATM   27  O3  UNL     1      12.961 -11.201  14.117  1.00  0.00    -0.269 OA
ENDBRANCH   2  25
TORSDOF 8
ENDMDL