MODEL 2
REMARK VINA RESULT: -9.455343611      1.610      2.677
REMARK  6 active torsions:
REMARK  status: ('A' for Active; 'I' for Inactive)
REMARK    1  A    between atoms: C2_5  and  C3_6
REMARK       I    between atoms: C3_6  and  N3_8
REMARK    2  A    between atoms: N3_8  and  C4_10
REMARK    3  A    between atoms: C7_16  and  C8_17
REMARK    4  A    between atoms: C8_17  and  C9_18
REMARK    5  A    between atoms: C14_23  and  C15_24
REMARK    6  A    between atoms: C18_30  and  C19_31
ROOT
HETATM    1  C4  UNL     1      18.592  81.904   2.178  1.00  0.00     0.111 C
HETATM    2  C5  UNL     1      18.066  80.716   2.889  1.00  0.00     0.257 C
HETATM    3  N4  UNL     1      17.515  81.053   4.197  1.00  0.00    -0.073 N
ATOM      4  H41 UNL     1      17.164  80.243   4.709  1.00  0.00     0.277 HD
ATOM      5  H42 UNL     1      16.633  81.561   4.147  1.00  0.00     0.277 HD
HETATM    6  C6  UNL     1      18.540  81.763   4.890  1.00  0.00     0.237 C
HETATM    7  C7  UNL     1      18.703  83.193   4.336  1.00  0.00     0.014 C
HETATM    8  C16 UNL     1      18.398  83.229   2.897  1.00  0.00     0.033 C
ENDROOT
BRANCH   1   9
HETATM    9  N3  UNL     1      19.984  81.704   1.883  1.00  0.00    -0.349 N
HETATM   10  C3  UNL     1      20.491  81.898   0.590  1.00  0.00     0.270 C
HETATM   11  O1  UNL     1      19.677  82.258  -0.317  1.00  0.00    -0.266 OA
ATOM     12  H3  UNL     1      20.616  81.415   2.629  1.00  0.00     0.163 HD
BRANCH  10  13
HETATM   13  C2  UNL     1      21.915  81.698   0.261  1.00  0.00     0.117 A
HETATM   14  N2  UNL     1      22.986  82.378   0.676  1.00  0.00    -0.294 N
HETATM   15  N1  UNL     1      24.108  81.865   0.135  1.00  0.00    -0.300 N
ATOM     16  H2  UNL     1      22.958  83.175   1.313  1.00  0.00     0.187 HD
HETATM   17  C1  UNL     1      25.416  82.412   0.422  1.00  0.00     0.177 C
HETATM   18  C18 UNL     1      23.788  80.844  -0.639  1.00  0.00     0.034 A
HETATM   19  C17 UNL     1      22.401  80.718  -0.575  1.00  0.00     0.063 A
BRANCH  18  20
HETATM   20  C19 UNL     1      24.690  79.982  -1.437  1.00  0.00     0.041 C
HETATM   21  C20 UNL     1      25.440  78.980  -0.596  1.00  0.00     0.037 C
HETATM   22  C21 UNL     1      25.440  77.622  -1.288  1.00  0.00     0.168 C
HETATM   23  O2  UNL     1      25.797  77.733  -2.609  1.00  0.00    -0.391 OA
HETATM   24  C22 UNL     1      25.001  78.545  -3.376  1.00  0.00     0.168 C
HETATM   25  C23 UNL     1      23.970  79.240  -2.515  1.00  0.00     0.037 C
ENDBRANCH  18  20
ENDBRANCH  10  13
ENDBRANCH   1   9
BRANCH   7  26
HETATM   26  C8  UNL     1      17.934  84.075   5.246  1.00  0.00     0.011 C
BRANCH  26  27
HETATM   27  C9  UNL     1      18.596  84.992   6.191  1.00  0.00    -0.002 C
HETATM   28  C10 UNL     1      17.822  85.575   7.296  1.00  0.00     0.005 C
HETATM   29  C11 UNL     1      17.529  84.538   8.380  1.00  0.00     0.000 C
HETATM   30  C12 UNL     1      18.883  84.214   8.985  1.00  0.00     0.001 C
HETATM   31  C13 UNL     1      19.808  83.655   7.965  1.00  0.00     0.014 C
HETATM   32  C14 UNL     1      19.920  84.391   6.683  1.00  0.00     0.097 C
BRANCH  32  33
HETATM   33  C15 UNL     1      21.046  85.383   6.678  1.00  0.00     0.391 C
HETATM   34  F1  UNL     1      20.970  86.366   7.612  1.00  0.00    -0.171 F
HETATM   35  F2  UNL     1      21.057  85.968   5.419  1.00  0.00    -0.171 F
HETATM   36  F3  UNL     1      22.232  84.678   6.851  1.00  0.00    -0.171 F
ENDBRANCH  32  33
ENDBRANCH  26  27
ENDBRANCH   7  26
TORSDOF 6
ENDMDL