MODEL 4
REMARK VINA RESULT: -6.661656155      4.587      7.835
REMARK  8 active torsions:
REMARK  status: ('A' for Active; 'I' for Inactive)
REMARK    1  A    between atoms: C2_2  and  C3_4
REMARK    2  A    between atoms: C12_13  and  O1_14
REMARK    3  A    between atoms: C13_16  and  O2_17
REMARK    4  A    between atoms: O2_17  and  C14_18
REMARK    5  A    between atoms: C17_22  and  C18_23
REMARK    6  A    between atoms: C18_23  and  N1_24
REMARK    7  A    between atoms: N1_24  and  C19_27
REMARK    8  A    between atoms: C19_27  and  C20_28
ROOT
HETATM    1  C3  UNL     1      19.706  83.686   6.861  1.00  0.00     0.038 C
HETATM    2  C4  UNL     1      18.353  83.017   7.166  1.00  0.00     0.011 C
HETATM    3  C5  UNL     1      17.853  82.838   5.746  1.00  0.00     0.007 C
HETATM    4  C6  UNL     1      18.213  84.178   5.121  1.00  0.00     0.003 C
HETATM    5  C7  UNL     1      19.278  84.798   5.978  1.00  0.00    -0.031 C
HETATM    6  C8  UNL     1      18.726  85.920   6.832  1.00  0.00     0.016 C
HETATM    7  C9  UNL     1      20.431  85.304   5.155  1.00  0.00     0.011 C
HETATM    8  C10 UNL     1      20.903  84.287   4.197  1.00  0.00     0.009 C
HETATM    9  C11 UNL     1      19.833  84.030   3.153  1.00  0.00     0.026 C
HETATM   10  C12 UNL     1      20.198  82.744   2.516  1.00  0.00     0.156 C
HETATM   11  C13 UNL     1      19.275  82.427   1.355  1.00  0.00     0.190 C
HETATM   12  C16 UNL     1      17.937  82.948   1.598  1.00  0.00    -0.050 C
HETATM   13  C17 UNL     1      17.086  83.306   0.663  1.00  0.00     0.006 C
HETATM   14  C21 UNL     1      17.518  83.115   3.038  1.00  0.00     0.046 C
HETATM   15  C22 UNL     1      18.440  84.177   3.674  1.00  0.00    -0.030 C
HETATM   16  C23 UNL     1      17.879  85.485   3.103  1.00  0.00     0.016 C
ENDROOT
BRANCH  11  17
HETATM   17  O2  UNL     1      19.313  81.038   1.081  1.00  0.00    -0.309 OA
BRANCH  17  18
HETATM   18  C14 UNL     1      18.246  80.263   0.802  1.00  0.00     0.255 C
HETATM   19  C15 UNL     1      17.372  79.730   1.884  1.00  0.00     0.126 C
HETATM   20  O3  UNL     1      17.969  79.975  -0.370  1.00  0.00    -0.266 OA
ENDBRANCH  17  18
ENDBRANCH  11  17
BRANCH  13  21
HETATM   21  C18 UNL     1      17.289  83.262  -0.792  1.00  0.00     0.260 C
BRANCH  21  22
HETATM   22  N1  UNL     1      16.224  82.432  -1.349  1.00  0.00    -0.064 N
ATOM     23  H12 UNL     1      16.360  81.442  -1.141  1.00  0.00     0.277 HD
ATOM     24  H11 UNL     1      15.338  82.565  -0.861  1.00  0.00     0.277 HD
BRANCH  22  25
HETATM   25  C19 UNL     1      16.105  82.682  -2.791  1.00  0.00     0.349 C
BRANCH  25  26
HETATM   26  C20 UNL     1      14.765  83.375  -2.988  1.00  0.00     0.411 C
HETATM   27  F1  UNL     1      14.394  84.094  -1.871  1.00  0.00    -0.169 F
HETATM   28  F2  UNL     1      14.926  84.196  -4.103  1.00  0.00    -0.169 F
HETATM   29  F3  UNL     1      13.847  82.403  -3.312  1.00  0.00    -0.169 F
ENDBRANCH  25  26
ENDBRANCH  22  25
ENDBRANCH  21  22
ENDBRANCH  13  21
BRANCH  10  30
HETATM   30  O1  UNL     1      20.441  81.673   3.336  1.00  0.00    -0.392 OA
ATOM     31  H1  UNL     1      20.515  81.839   4.268  1.00  0.00     0.210 HD
ENDBRANCH  10  30
BRANCH   1  32
HETATM   32  C2  UNL     1      20.445  84.007   8.065  1.00  0.00     0.007 C
HETATM   33  C1  UNL     1      19.944  83.681   9.245  1.00  0.00     0.032 C
HETATM   34 CL1  UNL     1      21.999  84.827   8.117  1.00  0.00    -0.089 Cl
ENDBRANCH   1  32
TORSDOF 8
ENDMDL