MODEL 4
REMARK VINA RESULT: -8.601135472      3.166      4.747
REMARK  7 active torsions:
REMARK  status: ('A' for Active; 'I' for Inactive)
REMARK       I    between atoms: N1_2  and  C2_4
REMARK    1  A    between atoms: C2_4  and  C3_6
REMARK    2  A    between atoms: N2_8  and  C5_9
REMARK    3  A    between atoms: C8_12  and  N3_13
REMARK    4  A    between atoms: C11_18  and  O2_19
REMARK    5  A    between atoms: C12_21  and  C13_22
REMARK    6  A    between atoms: C13_22  and  C14_23
REMARK    7  A    between atoms: C14_23  and  C15_24
ROOT
HETATM    1  C5  UNL     1      18.481  82.871   2.365  1.00  0.00     0.224 C
HETATM    2  C6  UNL     1      18.642  81.921   3.486  1.00  0.00     0.041 C
HETATM    3  C7  UNL     1      19.116  82.495   4.801  1.00  0.00     0.055 C
HETATM    4  C8  UNL     1      18.247  83.736   5.059  1.00  0.00     0.002 C
HETATM    5  C12 UNL     1      18.492  84.763   4.040  1.00  0.00     0.034 C
HETATM    6  C16 UNL     1      17.850  84.187   2.732  1.00  0.00     0.046 C
ENDROOT
BRANCH   1   7
HETATM    7  N2  UNL     1      17.607  82.247   1.377  1.00  0.00     0.094 N
HETATM    8  C4  UNL     1      17.780  80.814   1.297  1.00  0.00     0.287 C
HETATM    9  C3  UNL     1      16.602  80.313   0.445  1.00  0.00     0.110 C
HETATM   10  C23 UNL     1      17.023  80.703  -0.981  1.00  0.00     0.006 C
HETATM   11  C18 UNL     1      16.945  82.211  -0.976  1.00  0.00     0.019 C
HETATM   12  C22 UNL     1      16.073  80.184  -2.024  1.00  0.00     0.006 C
HETATM   13  C17 UNL     1      17.744  82.869   0.103  1.00  0.00     0.278 C
HETATM   14  C19 UNL     1      17.310  82.782  -2.323  1.00  0.00     0.007 C
HETATM   15  C20 UNL     1      17.664  81.668  -3.279  1.00  0.00     0.000 C
HETATM   16  C21 UNL     1      16.570  80.650  -3.387  1.00  0.00     0.000 C
BRANCH   9  17
HETATM   17  C2  UNL     1      16.371  78.892   0.640  1.00  0.00     0.223 C
HETATM   18  N1  UNL     1      17.098  77.934  -0.107  1.00  0.00    -0.365 N
HETATM   19  C1  UNL     1      16.880  76.503   0.073  1.00  0.00     0.149 C
ATOM     20  H1  UNL     1      17.790  78.251  -0.786  1.00  0.00     0.161 HD
HETATM   21  O1  UNL     1      15.525  78.490   1.469  1.00  0.00    -0.273 OA
ENDBRANCH   9  17
ENDBRANCH   1   7
BRANCH   5  22
HETATM   22  C13 UNL     1      19.856  85.137   3.654  1.00  0.00     0.019 C
BRANCH  22  23
HETATM   23  C14 UNL     1      20.691  85.855   4.648  1.00  0.00     0.118 C
BRANCH  23  24
HETATM   24  C15 UNL     1      21.993  85.214   5.009  1.00  0.00     0.387 C
HETATM   25  F1  UNL     1      22.071  84.741   6.252  1.00  0.00    -0.171 F
HETATM   26  F2  UNL     1      22.231  84.175   4.109  1.00  0.00    -0.171 F
HETATM   27  F3  UNL     1      23.067  86.086   4.822  1.00  0.00    -0.171 F
ENDBRANCH  23  24
ENDBRANCH  22  23
ENDBRANCH   5  22
BRANCH   4  28
HETATM   28  N3  UNL     1      18.052  84.030   6.424  1.00  0.00    -0.295 N
HETATM   29  C9  UNL     1      18.169  85.259   7.019  1.00  0.00     0.190 A
HETATM   30  N4  UNL     1      17.886  85.183   8.325  1.00  0.00    -0.358 N
HETATM   31  C10 UNL     1      17.579  83.876   8.580  1.00  0.00     0.145 A
ATOM     32  H4  UNL     1      17.897  85.950   8.996  1.00  0.00     0.166 HD
HETATM   33  C11 UNL     1      17.685  83.178   7.401  1.00  0.00     0.163 A
BRANCH  33  34
HETATM   34  O2  UNL     1      17.452  81.833   7.255  1.00  0.00    -0.345 OA
ATOM     35  H2  UNL     1      17.099  81.251   7.918  1.00  0.00     0.219 HD
ENDBRANCH  33  34
ENDBRANCH   4  28
TORSDOF 7
ENDMDL