MODEL 4
REMARK VINA RESULT: -8.136857411      3.984      7.709
REMARK  7 active torsions:
REMARK  status: ('A' for Active; 'I' for Inactive)
REMARK    1  A    between atoms: C4_7  and  O1_8
REMARK    2  A    between atoms: O1_8  and  C5_9
REMARK       I    between atoms: C5_9  and  N2_11
REMARK    3  A    between atoms: N2_11  and  C6_13
REMARK    4  A    between atoms: C6_13  and  C9_16
REMARK    5  A    between atoms: C9_16  and  C10_17
REMARK       I    between atoms: C10_17  and  N3_19
REMARK    6  A    between atoms: N5_25  and  C14_27
REMARK    7  A    between atoms: C14_27  and  C16_29
ROOT
HETATM    1  C1  UNL     1      24.238  84.531   2.788  1.00  0.00     0.057 C
HETATM    2  C2  UNL     1      22.870  83.910   2.699  1.00  0.00    -0.012 A
HETATM    3  S1  UNL     1      22.282  82.822   1.540  1.00  0.00    -0.076 SA
HETATM    4  C3  UNL     1      20.698  82.615   2.139  1.00  0.00     0.092 A
HETATM    5  N1  UNL     1      19.636  81.864   1.705  1.00  0.00    -0.315 N
ATOM      6  H1  UNL     1      19.726  81.288   0.868  1.00  0.00     0.170 HD
HETATM    7  C4  UNL     1      18.473  81.889   2.386  1.00  0.00     0.235 A
HETATM    8  N4  UNL     1      18.422  82.654   3.460  1.00  0.00    -0.307 N
ATOM      9  H4  UNL     1      17.542  82.673   3.975  1.00  0.00     0.171 HD
HETATM   10  C13 UNL     1      19.427  83.414   3.938  1.00  0.00     0.118 A
HETATM   11  N5  UNL     1      19.295  84.121   4.976  1.00  0.00    -0.362 N
ATOM     12  H5  UNL     1      20.120  84.655   5.246  1.00  0.00     0.161 HD
HETATM   13  C17 UNL     1      20.662  83.414   3.250  1.00  0.00     0.049 A
HETATM   14  C18 UNL     1      21.805  84.090   3.537  1.00  0.00    -0.032 A
HETATM   15  C19 UNL     1      21.949  85.023   4.732  1.00  0.00     0.050 C
ENDROOT
BRANCH   7  16
HETATM   16  O1  UNL     1      17.413  81.119   1.924  1.00  0.00    -0.228 OA
BRANCH  16  17
HETATM   17  C5  UNL     1      17.316  80.696   0.619  1.00  0.00     0.368 C
HETATM   18  O2  UNL     1      17.756  79.545   0.351  1.00  0.00    -0.238 OA
HETATM   19  N2  UNL     1      16.750  81.482  -0.424  1.00  0.00    -0.328 N
ATOM     20  H2  UNL     1      16.392  82.413  -0.215  1.00  0.00     0.165 HD
BRANCH  19  21
HETATM   21  C6  UNL     1      16.678  80.979  -1.769  1.00  0.00     0.036 C
HETATM   22  C7  UNL     1      16.012  79.634  -1.751  1.00  0.00     0.038 C
HETATM   23  C8  UNL     1      15.858  81.964  -2.566  1.00  0.00     0.038 C
BRANCH  21  24
HETATM   24  C9  UNL     1      18.061  80.817  -2.369  1.00  0.00     0.133 C
BRANCH  24  25
HETATM   25  C10 UNL     1      18.743  82.123  -2.415  1.00  0.00     0.221 C
HETATM   26  O3  UNL     1      19.088  82.695  -1.368  1.00  0.00    -0.273 OA
HETATM   27  N3  UNL     1      19.006  82.723  -3.667  1.00  0.00    -0.361 N
HETATM   28  C11 UNL     1      18.607  82.063  -4.920  1.00  0.00     0.152 C
HETATM   29  C12 UNL     1      19.666  83.989  -3.730  1.00  0.00     0.152 C
ENDBRANCH  24  25
ENDBRANCH  21  24
ENDBRANCH  19  21
ENDBRANCH  16  17
ENDBRANCH   7  16
BRANCH  11  30
HETATM   30  C14 UNL     1      18.172  84.279   5.816  1.00  0.00     0.186 C
HETATM   31  C15 UNL     1      18.049  85.638   6.458  1.00  0.00     0.041 C
BRANCH  30  32
HETATM   32  C16 UNL     1      18.172  83.252   6.922  1.00  0.00     0.407 C
HETATM   33  F1  UNL     1      17.816  81.999   6.495  1.00  0.00    -0.169 F
HETATM   34  F2  UNL     1      17.301  83.619   7.933  1.00  0.00    -0.169 F
HETATM   35  F3  UNL     1      19.424  83.122   7.507  1.00  0.00    -0.169 F
ENDBRANCH  30  32
ENDBRANCH  11  30
TORSDOF 7
ENDMDL