MODEL 5
REMARK VINA RESULT: -8.064186693      1.010      1.473
REMARK  8 active torsions:
REMARK  status: ('A' for Active; 'I' for Inactive)
REMARK    1  A    between atoms: C2_2  and  C5_5
REMARK    2  A    between atoms: C5_5  and  O1_6
REMARK    3  A    between atoms: O1_6  and  C6_7
REMARK       I    between atoms: C6_7  and  N1_9
REMARK    4  A    between atoms: N1_9  and  S1_11
REMARK    5  A    between atoms: S1_11  and  C7_14
REMARK    6  A    between atoms: C10_17  and  C11_18
REMARK       I    between atoms: C11_18  and  N2_20
REMARK    7  A    between atoms: N2_20  and  C12_22
REMARK    8  A    between atoms: C15_25  and  C16_26
ROOT
HETATM    1  C7  UNL     1      24.792  83.596  -0.040  1.00  0.00     0.080 A
HETATM    2  C8  UNL     1      23.486  83.114  -0.213  1.00  0.00     0.026 A
HETATM    3  C9  UNL     1      22.572  83.193   0.833  1.00  0.00     0.018 A
HETATM    4  C10 UNL     1      22.873  83.728   2.051  1.00  0.00     0.032 A
HETATM    5  C19 UNL     1      24.184  84.206   2.222  1.00  0.00     0.018 A
HETATM    6  C20 UNL     1      25.090  84.134   1.209  1.00  0.00     0.026 A
ENDROOT
BRANCH   4   7
HETATM    7  C11 UNL     1      21.903  83.881   3.136  1.00  0.00     0.256 C
HETATM    8  O5  UNL     1      21.141  82.845   3.284  1.00  0.00    -0.267 OA
HETATM    9  N2  UNL     1      21.737  84.971   3.967  1.00  0.00    -0.323 N
ATOM     10  H2  UNL     1      22.356  85.770   3.833  1.00  0.00     0.169 HD
BRANCH   9  11
HETATM   11  C12 UNL     1      20.777  85.055   4.983  1.00  0.00     0.035 A
HETATM   12  C13 UNL     1      19.413  84.958   4.775  1.00  0.00     0.030 A
HETATM   13  C14 UNL     1      18.477  84.985   5.822  1.00  0.00     0.018 A
HETATM   14  C15 UNL     1      18.881  85.118   7.138  1.00  0.00     0.048 A
HETATM   15  C17 UNL     1      20.255  85.221   7.359  1.00  0.00     0.018 A
HETATM   16  C18 UNL     1      21.138  85.191   6.334  1.00  0.00     0.030 A
BRANCH  14  17
HETATM   17  C16 UNL     1      17.893  85.144   8.254  1.00  0.00     0.417 C
HETATM   18  F1  UNL     1      16.887  84.218   8.077  1.00  0.00    -0.166 F
HETATM   19  F2  UNL     1      17.393  86.429   8.353  1.00  0.00    -0.166 F
HETATM   20  F3  UNL     1      18.623  84.793   9.393  1.00  0.00    -0.166 F
ENDBRANCH  14  17
ENDBRANCH   9  11
ENDBRANCH   4   7
BRANCH   1  21
HETATM   21  S1  UNL     1      25.940  83.704  -1.337  1.00  0.00     0.267 S
HETATM   22  O3  UNL     1      25.346  84.525  -2.495  1.00  0.00    -0.200 OA
HETATM   23  O4  UNL     1      27.110  84.539  -0.811  1.00  0.00    -0.200 OA
BRANCH  21  24
HETATM   24  N1  UNL     1      26.502  82.248  -1.987  1.00  0.00    -0.226 N
HETATM   25  C6  UNL     1      26.947  81.241  -1.108  1.00  0.00     0.374 C
HETATM   26  O2  UNL     1      26.882  81.416   0.128  1.00  0.00    -0.237 OA
ATOM     27  H1  UNL     1      26.517  82.101  -2.996  1.00  0.00     0.184 HD
BRANCH  25  28
HETATM   28  O1  UNL     1      27.472  80.066  -1.593  1.00  0.00    -0.303 OA
BRANCH  28  29
HETATM   29  C5  UNL     1      26.549  79.146  -2.190  1.00  0.00     0.189 C
BRANCH  29  30
HETATM   30  C2  UNL     1      26.531  77.891  -1.356  1.00  0.00    -0.029 C
HETATM   31  C1  UNL     1      26.412  76.656  -2.220  1.00  0.00     0.016 C
HETATM   32  C3  UNL     1      25.298  77.946  -0.459  1.00  0.00     0.016 C
HETATM   33  C4  UNL     1      27.742  77.741  -0.474  1.00  0.00     0.016 C
ENDBRANCH  29  30
ENDBRANCH  28  29
ENDBRANCH  25  28
ENDBRANCH  21  24
ENDBRANCH   1  21
TORSDOF 8
ENDMDL