MODEL 5
REMARK VINA RESULT: -8.319728895      3.272      4.606
REMARK  7 active torsions:
REMARK  status: ('A' for Active; 'I' for Inactive)
REMARK       I    between atoms: C1_2  and  N1_3
REMARK    1  A    between atoms: C1_2  and  C11_22
REMARK    2  A    between atoms: N1_3  and  C2_5
REMARK    3  A    between atoms: C7_10  and  S1_11
REMARK    4  A    between atoms: S1_11  and  N2_14
REMARK    5  A    between atoms: N2_14  and  C8_16
REMARK    6  A    between atoms: C14_25  and  O4_26
REMARK    7  A    between atoms: O4_26  and  C15_27
ROOT
HETATM    1  C2  UNL     1      16.982  80.254   0.982  1.00  0.00     0.058 A
HETATM    2  C3  UNL     1      16.627  78.963   1.319  1.00  0.00     0.031 A
HETATM    3  C4  UNL     1      16.467  78.010   0.302  1.00  0.00     0.002 A
HETATM    4  C5  UNL     1      16.652  78.323  -1.012  1.00  0.00     0.002 A
HETATM    5  C6  UNL     1      17.005  79.622  -1.308  1.00  0.00     0.027 A
HETATM    6  C7  UNL     1      17.176  80.593  -0.362  1.00  0.00     0.106 A
ENDROOT
BRANCH   1   7
HETATM    7  N1  UNL     1      17.142  81.261   1.930  1.00  0.00    -0.322 N
HETATM    8  C1  UNL     1      18.221  81.520   2.783  1.00  0.00     0.256 C
HETATM    9  O1  UNL     1      19.246  80.792   2.761  1.00  0.00    -0.267 OA
ATOM     10  H1  UNL     1      16.357  81.906   2.015  1.00  0.00     0.169 HD
BRANCH   8  11
HETATM   11  C11 UNL     1      18.206  82.649   3.739  1.00  0.00     0.032 A
HETATM   12  C12 UNL     1      18.171  82.356   5.081  1.00  0.00     0.020 A
HETATM   13  C13 UNL     1      18.150  83.338   6.057  1.00  0.00     0.038 A
HETATM   14  C14 UNL     1      18.165  84.669   5.679  1.00  0.00     0.078 A
HETATM   15  C16 UNL     1      18.201  84.959   4.334  1.00  0.00     0.038 A
HETATM   16  C17 UNL     1      18.221  83.955   3.363  1.00  0.00     0.020 A
BRANCH  14  17
HETATM   17  O4  UNL     1      18.146  85.701   6.615  1.00  0.00    -0.255 OA
BRANCH  17  18
HETATM   18  C15 UNL     1      19.377  86.104   7.214  1.00  0.00     0.530 C
HETATM   19  F1  UNL     1      20.422  86.032   6.348  1.00  0.00    -0.144 F
HETATM   20  F2  UNL     1      19.658  85.311   8.333  1.00  0.00    -0.144 F
HETATM   21  F3  UNL     1      19.217  87.397   7.654  1.00  0.00    -0.144 F
ENDBRANCH  17  18
ENDBRANCH  14  17
ENDBRANCH   8  11
ENDBRANCH   1   7
BRANCH   6  22
HETATM   22  S1  UNL     1      17.635  82.185  -0.808  1.00  0.00     0.266 S
HETATM   23  O2  UNL     1      19.009  82.564  -0.325  1.00  0.00    -0.200 OA
HETATM   24  O3  UNL     1      16.695  83.162  -0.098  1.00  0.00    -0.200 OA
BRANCH  22  25
HETATM   25  N2  UNL     1      17.458  82.503  -2.480  1.00  0.00    -0.260 N
ATOM     26  H2  UNL     1      17.144  81.776  -3.124  1.00  0.00     0.181 HD
BRANCH  25  27
HETATM   27  C8  UNL     1      17.739  83.707  -2.907  1.00  0.00     0.158 A
HETATM   28  N3  UNL     1      18.470  84.667  -2.354  1.00  0.00    -0.345 N
HETATM   29  C9  UNL     1      18.611  85.800  -2.975  1.00  0.00     0.097 A
ATOM     30  H3  UNL     1      18.917  84.517  -1.450  1.00  0.00     0.167 HD
HETATM   31  C10 UNL     1      17.986  85.947  -4.188  1.00  0.00     0.070 A
HETATM   32  S2  UNL     1      17.223  84.434  -4.376  1.00  0.00    -0.064 SA
ENDBRANCH  25  27
ENDBRANCH  22  25
ENDBRANCH   6  22
TORSDOF 7
ENDMDL