MODEL 3
REMARK VINA RESULT: -7.874711708      2.658      5.439
REMARK  8 active torsions:
REMARK  status: ('A' for Active; 'I' for Inactive)
REMARK    1  A    between atoms: C2_2  and  C3_3
REMARK    2  A    between atoms: C3_3  and  C4_4
REMARK    3  A    between atoms: C4_4  and  C5_5
REMARK    4  A    between atoms: C11_17  and  C12_18
REMARK    5  A    between atoms: C12_18  and  C13_19
REMARK    6  A    between atoms: C13_19  and  C14_20
REMARK    7  A    between atoms: C14_20  and  O3_21
REMARK    8  A    between atoms: N2_23  and  O4_25
ROOT
HETATM    1  C4  UNL     1      22.249  83.195   2.441  1.00  0.00     0.051 C
HETATM    2  C9  UNL     1      21.445  81.851   2.377  1.00  0.00     0.191 C
HETATM    3  F3  UNL     1      21.216  81.346   3.634  1.00  0.00    -0.248 F
HETATM    4  C10 UNL     1      20.259  82.646   1.914  1.00  0.00     0.035 C
HETATM    5  C11 UNL     1      18.969  82.322   2.693  1.00  0.00     0.006 C
HETATM    6  C15 UNL     1      18.822  83.438   3.633  1.00  0.00    -0.015 C
HETATM    7  C16 UNL     1      17.932  84.508   3.039  1.00  0.00     0.020 C
HETATM    8  C17 UNL     1      18.350  82.996   5.012  1.00  0.00     0.022 C
HETATM    9  C18 UNL     1      18.145  84.237   5.849  1.00  0.00     0.084 C
HETATM   10  C19 UNL     1      19.487  84.858   5.988  1.00  0.00     0.149 C
HETATM   11  O5  UNL     1      19.800  85.479   7.037  1.00  0.00    -0.293 OA
HETATM   12  C20 UNL     1      20.406  84.712   4.869  1.00  0.00     0.054 C
HETATM   13  C21 UNL     1      20.169  84.069   3.745  1.00  0.00    -0.062 C
HETATM   14  C22 UNL     1      20.868  83.849   2.538  1.00  0.00     0.040 C
ENDROOT
BRANCH   1  15
HETATM   15  C3  UNL     1      22.961  83.211   3.709  1.00  0.00    -0.011 C
BRANCH  15  16
HETATM   16  C2  UNL     1      23.680  84.348   4.232  1.00  0.00    -0.013 C
HETATM   17  C1  UNL     1      23.904  84.789   5.431  1.00  0.00     0.011 C
ENDBRANCH  15  16
ENDBRANCH   1  15
BRANCH   1  18
HETATM   18  C5  UNL     1      22.789  83.590   1.154  1.00  0.00     0.244 C
HETATM   19  O1  UNL     1      24.241  83.666   1.296  1.00  0.00    -0.289 OA
HETATM   20  C6  UNL     1      24.606  84.223   0.046  1.00  0.00     0.367 C
HETATM   21  O2  UNL     1      25.703  84.782  -0.231  1.00  0.00    -0.238 OA
HETATM   22  N1  UNL     1      23.517  84.052  -0.870  1.00  0.00    -0.267 N
HETATM   23  C7  UNL     1      23.284  84.689  -2.109  1.00  0.00     0.161 C
HETATM   24  C8  UNL     1      22.694  83.008  -0.149  1.00  0.00     0.355 C
HETATM   25  F1  UNL     1      23.493  81.902  -0.439  1.00  0.00    -0.179 F
HETATM   26  F2  UNL     1      21.513  83.026  -0.825  1.00  0.00    -0.179 F
ENDBRANCH   1  18
BRANCH   5  27
HETATM   27  C12 UNL     1      17.884  81.992   1.739  1.00  0.00     0.014 C
BRANCH  27  28
HETATM   28  C13 UNL     1      17.223  80.684   1.971  1.00  0.00     0.086 C
BRANCH  28  29
HETATM   29  C14 UNL     1      17.693  79.638   1.017  1.00  0.00     0.135 C
HETATM   30  N2  UNL     1      17.343  78.426   1.203  1.00  0.00    -0.251 N
ATOM     31  H2  UNL     1      16.749  78.200   2.001  1.00  0.00     0.196 HD
BRANCH  29  32
HETATM   32  O3  UNL     1      18.492  80.014  -0.034  1.00  0.00    -0.348 OA
ATOM     33  H3  UNL     1      19.115  80.720   0.096  1.00  0.00     0.219 HD
ENDBRANCH  29  32
BRANCH  30  34
HETATM   34  O4  UNL     1      17.739  77.419   0.367  1.00  0.00    -0.288 OA
ATOM     35  H4  UNL     1      17.739  76.509   0.638  1.00  0.00     0.244 HD
ENDBRANCH  30  34
ENDBRANCH  28  29
ENDBRANCH  27  28
ENDBRANCH   5  27
TORSDOF 8
ENDMDL