MODEL 4
REMARK VINA RESULT: -8.722308724      1.879      2.665
REMARK  7 active torsions:
REMARK  status: ('A' for Active; 'I' for Inactive)
REMARK    1  A    between atoms: C6_7  and  S2_8
REMARK    2  A    between atoms: S2_8  and  N1_11
REMARK       I    between atoms: N1_11  and  C7_13
REMARK    3  A    between atoms: C7_13  and  C8_15
REMARK    4  A    between atoms: C8_15  and  C11_18
REMARK    5  A    between atoms: C14_21  and  C15_22
REMARK    6  A    between atoms: C15_22  and  O4_24
REMARK    7  A    between atoms: C15_22  and  C17_26
ROOT
HETATM    1  C8  UNL     1      17.672  81.995   1.198  1.00  0.00     0.061 C
HETATM    2  C9  UNL     1      16.733  80.812   1.308  1.00  0.00     0.030 C
HETATM    3  C10 UNL     1      17.004  82.994   0.218  1.00  0.00     0.030 C
ENDROOT
BRANCH   1   4
HETATM    4  C7  UNL     1      18.858  81.506   0.432  1.00  0.00     0.243 C
HETATM    5  N1  UNL     1      19.968  82.381   0.490  1.00  0.00    -0.249 N
ATOM      6  H1  UNL     1      19.829  83.227   1.043  1.00  0.00     0.182 HD
HETATM    7  O3  UNL     1      18.868  80.467  -0.177  1.00  0.00    -0.271 OA
BRANCH   5   8
HETATM    8  S2  UNL     1      21.496  82.225  -0.226  1.00  0.00     0.266 S
HETATM    9  O1  UNL     1      21.487  82.764  -1.638  1.00  0.00    -0.200 OA
HETATM   10  O2  UNL     1      21.963  80.805  -0.303  1.00  0.00    -0.200 OA
BRANCH   8  11
HETATM   11  C6  UNL     1      22.700  83.105   0.764  1.00  0.00     0.099 A
HETATM   12  C2  UNL     1      22.631  83.203   2.099  1.00  0.00    -0.031 A
HETATM   13  C1  UNL     1      21.456  82.651   2.905  1.00  0.00     0.050 C
HETATM   14  C3  UNL     1      23.649  83.852   2.748  1.00  0.00     0.058 A
HETATM   15  S1  UNL     1      24.681  84.309   1.478  1.00  0.00    -0.105 SA
HETATM   16  C4  UNL     1      23.793  83.666   0.151  1.00  0.00     0.002 A
HETATM   17  C5  UNL     1      24.172  83.705  -1.311  1.00  0.00     0.058 C
ENDBRANCH   8  11
ENDBRANCH   5   8
ENDBRANCH   1   4
BRANCH   1  18
HETATM   18  C11 UNL     1      17.888  82.523   2.521  1.00  0.00    -0.041 A
HETATM   19  C12 UNL     1      17.909  83.904   2.680  1.00  0.00     0.009 A
HETATM   20  C13 UNL     1      18.114  84.519   3.903  1.00  0.00     0.011 A
HETATM   21  C14 UNL     1      18.307  83.799   5.033  1.00  0.00    -0.016 A
HETATM   22  C18 UNL     1      18.293  82.423   4.907  1.00  0.00     0.011 A
HETATM   23  C19 UNL     1      18.087  81.797   3.671  1.00  0.00     0.009 A
BRANCH  21  24
HETATM   24  C15 UNL     1      18.513  84.371   6.376  1.00  0.00     0.179 C
HETATM   25  C16 UNL     1      18.017  83.350   7.404  1.00  0.00     0.061 C
BRANCH  24  26
HETATM   26  O4  UNL     1      17.800  85.554   6.547  1.00  0.00    -0.376 OA
ATOM     27  H4  UNL     1      16.864  85.417   6.461  1.00  0.00     0.211 HD
ENDBRANCH  24  26
BRANCH  24  28
HETATM   28  C17 UNL     1      19.958  84.640   6.718  1.00  0.00     0.422 C
HETATM   29  F1  UNL     1      20.766  84.618   5.606  1.00  0.00    -0.167 F
HETATM   30  F2  UNL     1      19.990  85.992   7.126  1.00  0.00    -0.167 F
HETATM   31  F3  UNL     1      20.434  83.945   7.793  1.00  0.00    -0.167 F
ENDBRANCH  24  28
ENDBRANCH  21  24
ENDBRANCH   1  18
TORSDOF 7
ENDMDL