MODEL 5
REMARK VINA RESULT: -7.984513782      3.687      4.766
REMARK  6 active torsions:
REMARK  status: ('A' for Active; 'I' for Inactive)
REMARK    1  A    between atoms: C7_8  and  N1_9
REMARK       I    between atoms: N1_9  and  C8_11
REMARK    2  A    between atoms: C8_11  and  C9_13
REMARK    3  A    between atoms: C9_13  and  N2_14
REMARK    4  A    between atoms: C12_17  and  C13_18
REMARK    5  A    between atoms: C13_18  and  C14_19
REMARK    6  A    between atoms: C16_23  and  C17_24
ROOT
HETATM    1  C1  UNL     1      17.868  85.548   7.773  1.00  0.00     0.015 C
HETATM    2  C2  UNL     1      18.895  84.487   7.957  1.00  0.00    -0.043 C
HETATM    3  C3  UNL     1      18.739  83.902   9.374  1.00  0.00     0.015 C
HETATM    4  C4  UNL     1      20.328  85.004   7.921  1.00  0.00     0.014 C
HETATM    5  C5  UNL     1      20.478  85.748   6.643  1.00  0.00     0.047 C
HETATM    6  C6  UNL     1      19.947  84.951   5.497  1.00  0.00    -0.007 A
HETATM    7  S1  UNL     1      20.111  85.155   3.817  1.00  0.00    -0.075 SA
HETATM    8  C7  UNL     1      19.184  83.825   3.294  1.00  0.00     0.098 A
HETATM    9  C18 UNL     1      18.762  83.247   4.452  1.00  0.00     0.085 A
HETATM   10  C19 UNL     1      17.911  82.039   4.380  1.00  0.00     0.103 C
HETATM   11  N3  UNL     1      17.223  81.084   4.304  1.00  0.00    -0.191 NA
HETATM   12  C20 UNL     1      19.167  83.844   5.605  1.00  0.00    -0.021 A
HETATM   13  C21 UNL     1      18.796  83.358   7.000  1.00  0.00     0.050 C
ENDROOT
BRANCH   8  14
HETATM   14  N1  UNL     1      18.878  83.431   1.928  1.00  0.00    -0.319 N
HETATM   15  C8  UNL     1      19.649  82.450   1.295  1.00  0.00     0.251 C
HETATM   16  O1  UNL     1      20.608  81.935   1.978  1.00  0.00    -0.271 OA
ATOM     17  H1  UNL     1      18.102  83.869   1.432  1.00  0.00     0.169 HD
BRANCH  15  18
HETATM   18  C9  UNL     1      19.506  81.940  -0.058  1.00  0.00     0.375 C
BRANCH  18  19
HETATM   19  N2  UNL     1      18.675  82.691  -0.980  1.00  0.00     0.110 N
HETATM   20  C10 UNL     1      19.081  82.297  -2.336  1.00  0.00     0.274 C
HETATM   21  C11 UNL     1      18.997  80.825  -2.475  1.00  0.00     0.035 C
HETATM   22  C12 UNL     1      17.679  80.240  -2.080  1.00  0.00    -0.001 C
HETATM   23  C15 UNL     1      16.766  81.129  -1.357  1.00  0.00     0.050 C
HETATM   24  C16 UNL     1      17.268  82.415  -0.790  1.00  0.00     0.330 C
BRANCH  22  25
HETATM   25  C13 UNL     1      17.005  79.651  -3.295  1.00  0.00     0.117 C
BRANCH  25  26
HETATM   26  C14 UNL     1      16.770  78.199  -3.217  1.00  0.00     0.172 C
HETATM   27  O2  UNL     1      17.143  77.521  -2.234  1.00  0.00    -0.648 OA
HETATM   28  O3  UNL     1      16.119  77.473  -4.224  1.00  0.00    -0.648 OA
ENDBRANCH  25  26
ENDBRANCH  22  25
BRANCH  24  29
HETATM   29  C17 UNL     1      16.423  83.561  -1.279  1.00  0.00     0.418 C
HETATM   30  F1  UNL     1      15.597  83.053  -2.319  1.00  0.00    -0.169 F
HETATM   31  F2  UNL     1      15.553  84.097  -0.389  1.00  0.00    -0.169 F
HETATM   32  F3  UNL     1      17.119  84.581  -1.876  1.00  0.00    -0.169 F
ENDBRANCH  24  29
ENDBRANCH  18  19
ENDBRANCH  15  18
ENDBRANCH   8  14
TORSDOF 6
ENDMDL