MODEL 3
REMARK VINA RESULT: -8.832920140      1.512      1.984
REMARK  10 active torsions:
REMARK  status: ('A' for Active; 'I' for Inactive)
REMARK    1  A    between atoms: S1_2  and  N1_4
REMARK    2  A    between atoms: S1_2  and  C4_12
REMARK    3  A    between atoms: N1_4  and  C1_6
REMARK    4  A    between atoms: C7_15  and  C8_16
REMARK    5  A    between atoms: C9_17  and  C10_18
REMARK    6  A    between atoms: C10_18  and  C11_19
REMARK    7  A    between atoms: C11_19  and  C12_20
REMARK    8  A    between atoms: C12_20  and  N3_21
REMARK    9  A    between atoms: C13_22  and  O3_23
REMARK   10  A    between atoms: C16_27  and  C17_28
ROOT
HETATM    1  C4  UNL     1      17.428  80.741   1.287  1.00  0.00     0.080 A
HETATM    2  C5  UNL     1      17.271  79.991   2.442  1.00  0.00     0.027 A
HETATM    3  C6  UNL     1      17.474  80.556   3.698  1.00  0.00     0.022 A
HETATM    4  C7  UNL     1      17.828  81.874   3.841  1.00  0.00     0.017 A
HETATM    5  C18 UNL     1      17.981  82.589   2.683  1.00  0.00     0.022 A
HETATM    6  C19 UNL     1      17.791  82.044   1.435  1.00  0.00     0.027 A
ENDROOT
BRANCH   4   7
HETATM    7  C8  UNL     1      17.994  82.448   5.151  1.00  0.00    -0.067 C
HETATM    8  C9  UNL     1      18.117  82.848   6.309  1.00  0.00    -0.101 C
BRANCH   8   9
HETATM    9  C10 UNL     1      18.287  83.204   7.707  1.00  0.00     0.096 C
BRANCH   9  10
HETATM   10  C11 UNL     1      19.589  83.710   8.129  1.00  0.00     0.032 C
BRANCH  10  11
HETATM   11  C12 UNL     1      20.010  85.094   7.861  1.00  0.00     0.132 C
BRANCH  11  12
HETATM   12  N3  UNL     1      21.302  85.121   7.133  1.00  0.00    -0.324 N
HETATM   13  C13 UNL     1      22.485  85.018   7.757  1.00  0.00     0.142 A
HETATM   14  C14 UNL     1      23.493  84.945   6.815  1.00  0.00     0.058 A
HETATM   15  C15 UNL     1      22.897  85.014   5.604  1.00  0.00     0.039 A
HETATM   16  C16 UNL     1      21.511  85.124   5.814  1.00  0.00     0.120 A
BRANCH  13  17
HETATM   17  O3  UNL     1      22.709  84.980   9.124  1.00  0.00    -0.346 OA
ATOM     18  H3  UNL     1      23.428  84.553   9.577  1.00  0.00     0.219 HD
ENDBRANCH  13  17
BRANCH  16  19
HETATM   19  C17 UNL     1      20.541  85.219   4.715  1.00  0.00     0.432 C
HETATM   20  F1  UNL     1      20.977  86.231   3.824  1.00  0.00    -0.165 F
HETATM   21  F2  UNL     1      19.271  85.563   5.056  1.00  0.00    -0.165 F
HETATM   22  F3  UNL     1      20.526  84.112   3.877  1.00  0.00    -0.165 F
ENDBRANCH  16  19
ENDBRANCH  11  12
ENDBRANCH  10  11
ENDBRANCH   9  10
ENDBRANCH   8   9
ENDBRANCH   4   7
BRANCH   1  23
HETATM   23  S1  UNL     1      17.298  80.028  -0.292  1.00  0.00     0.264 S
HETATM   24  O1  UNL     1      17.467  78.531  -0.219  1.00  0.00    -0.200 OA
HETATM   25  O2  UNL     1      18.505  80.511  -1.123  1.00  0.00    -0.200 OA
BRANCH  23  26
HETATM   26  N1  UNL     1      15.909  80.569  -1.060  1.00  0.00    -0.260 N
ATOM     27  H1  UNL     1      15.338  81.276  -0.597  1.00  0.00     0.181 HD
BRANCH  26  28
HETATM   28  C1  UNL     1      15.523  80.117  -2.240  1.00  0.00     0.158 A
HETATM   29  N2  UNL     1      16.001  79.019  -2.855  1.00  0.00    -0.345 N
HETATM   30  C2  UNL     1      15.524  78.683  -4.018  1.00  0.00     0.097 A
ATOM     31  H2  UNL     1      16.728  78.456  -2.414  1.00  0.00     0.167 HD
HETATM   32  C3  UNL     1      14.527  79.503  -4.553  1.00  0.00     0.070 A
HETATM   33  S2  UNL     1      14.364  80.681  -3.342  1.00  0.00    -0.064 SA
ENDBRANCH  26  28
ENDBRANCH  23  26
ENDBRANCH   1  23
TORSDOF 10
ENDMDL