MODEL 4
REMARK VINA RESULT: -5.619348712      1.956      3.569
REMARK  6 active torsions:
REMARK  status: ('A' for Active; 'I' for Inactive)
REMARK    1  A    between atoms: C3_3  and  N1_4
REMARK    2  A    between atoms: N1_4  and  C6_7
REMARK    3  A    between atoms: C6_7  and  C7_8
REMARK    4  A    between atoms: C7_8  and  C8_9
REMARK    5  A    between atoms: C8_9  and  N2_10
REMARK    6  A    between atoms: C13_15  and  O1_16
ROOT
HETATM    1  C1  UNL     1      29.489  20.359  17.680  1.00  0.00     0.013 C
HETATM    2  C2  UNL     1      28.673  19.814  16.981  1.00  0.00    -0.089 C
HETATM    3  C3  UNL     1      27.686  19.143  16.162  1.00  0.00     0.329 C
ENDROOT
BRANCH   3   4
HETATM    4  N1  UNL     1      27.771  19.527  14.743  1.00  0.00    -0.062 N
HETATM    5  C4  UNL     1      27.151  18.414  14.004  1.00  0.00     0.273 C
HETATM    6  C5  UNL     1      26.889  20.648  14.587  1.00  0.00     0.273 C
BRANCH   4   7
HETATM    7  C6  UNL     1      29.123  19.690  14.419  1.00  0.00     0.277 C
BRANCH   7   8
HETATM    8  C7  UNL     1      29.462  20.723  13.342  1.00  0.00     0.117 C
HETATM    9  C12 UNL     1      28.848  20.229  12.049  1.00  0.00     0.102 C
HETATM   10  C13 UNL     1      30.220  19.653  11.789  1.00  0.00     0.260 C
HETATM   11  O2  UNL     1      30.700  20.533  12.748  1.00  0.00    -0.347 OA
BRANCH   8  12
HETATM   12  C8  UNL     1      29.114  22.068  13.818  1.00  0.00     0.275 C
BRANCH  12  13
HETATM   13  N2  UNL     1      30.092  23.062  14.026  1.00  0.00    -0.076 N
HETATM   14  C9  UNL     1      30.584  23.737  12.884  1.00  0.00     0.271 C
HETATM   15  C10 UNL     1      31.220  22.653  14.841  1.00  0.00     0.271 C
HETATM   16  C11 UNL     1      29.417  24.093  14.848  1.00  0.00     0.271 C
ENDBRANCH  12  13
ENDBRANCH   8  12
BRANCH  10  17
HETATM   17  O1  UNL     1      30.387  18.317  12.021  1.00  0.00    -0.371 OA
ATOM     18  H1  UNL     1      30.537  17.762  11.264  1.00  0.00     0.212 HD
ENDBRANCH  10  17
ENDBRANCH   7   8
ENDBRANCH   4   7
ENDBRANCH   3   4
TORSDOF 6
ENDMDL