MODEL 5
REMARK VINA RESULT: -7.104802911      0.744      1.675
REMARK  7 active torsions:
REMARK  status: ('A' for Active; 'I' for Inactive)
REMARK    1  A    between atoms: C3_3  and  N1_4
REMARK    2  A    between atoms: N1_4  and  C5_6
REMARK    3  A    between atoms: C5_6  and  C6_7
REMARK    4  A    between atoms: C7_8  and  C8_9
REMARK    5  A    between atoms: C8_9  and  N2_10
REMARK    6  A    between atoms: C12_14  and  C13_15
REMARK    7  A    between atoms: C13_15  and  N3_16
ROOT
HETATM    1  C1  UNL     1      39.530  17.764  11.745  1.00  0.00     0.013 C
HETATM    2  C2  UNL     1      39.367  18.832  11.212  1.00  0.00    -0.087 C
HETATM    3  C3  UNL     1      39.182  20.141  10.547  1.00  0.00     0.365 C
ENDROOT
BRANCH   3   4
HETATM    4  N1  UNL     1      37.791  20.448  10.534  1.00  0.00     0.105 N
HETATM    5  C4  UNL     1      37.432  21.789  10.838  1.00  0.00     0.312 C
BRANCH   4   6
HETATM    6  C5  UNL     1      37.066  19.992   9.386  1.00  0.00     0.366 C
BRANCH   6   7
HETATM    7  C6  UNL     1      35.874  20.854   9.266  1.00  0.00    -0.075 C
HETATM    8  C7  UNL     1      34.904  21.571   9.143  1.00  0.00    -0.077 C
BRANCH   8   9
HETATM    9  C8  UNL     1      33.762  22.444   8.974  1.00  0.00     0.330 C
BRANCH   9  10
HETATM   10  N2  UNL     1      32.659  21.833   8.262  1.00  0.00    -0.060 N
HETATM   11  C9  UNL     1      33.079  21.020   7.155  1.00  0.00     0.273 C
HETATM   12  C10 UNL     1      31.689  22.769   7.796  1.00  0.00     0.239 C
HETATM   13  C11 UNL     1      30.376  22.410   8.487  1.00  0.00     0.039 C
HETATM   14  C12 UNL     1      30.958  21.866   9.816  1.00  0.00     0.051 C
HETATM   15  C15 UNL     1      32.013  20.953   9.238  1.00  0.00     0.247 C
BRANCH  14  16
HETATM   16  C13 UNL     1      29.912  21.138  10.582  1.00  0.00     0.061 C
BRANCH  16  17
HETATM   17  N3  UNL     1      30.332  20.627  11.824  1.00  0.00    -0.406 N
HETATM   18  C14 UNL     1      30.306  19.231  12.046  1.00  0.00     0.145 C
ATOM     19  H3  UNL     1      30.654  21.259  12.558  1.00  0.00     0.158 HD
ENDBRANCH  16  17
ENDBRANCH  14  16
ENDBRANCH   9  10
ENDBRANCH   8   9
ENDBRANCH   6   7
ENDBRANCH   4   6
ENDBRANCH   3   4
TORSDOF 7
ENDMDL