MODEL 5
REMARK VINA RESULT: -5.977793244      2.021      2.475
REMARK  7 active torsions:
REMARK  status: ('A' for Active; 'I' for Inactive)
REMARK    1  A    between atoms: C2_2  and  O1_3
REMARK    2  A    between atoms: C2_2  and  C3_5
REMARK    3  A    between atoms: C2_2  and  C10_14
REMARK    4  A    between atoms: C3_5  and  C4_6
REMARK    5  A    between atoms: C4_6  and  C5_7
REMARK    6  A    between atoms: C5_7  and  N1_8
REMARK    7  A    between atoms: C10_14  and  N2_15
ROOT
HETATM    1  C1  UNL     1      29.873  22.454   9.251  1.00  0.00     0.047 C
HETATM    2  C2  UNL     1      31.193  21.811   9.123  1.00  0.00     0.078 C
ENDROOT
BRANCH   2   3
HETATM    3  O1  UNL     1      32.157  22.496   9.863  1.00  0.00    -0.389 OA
ATOM      4  H1  UNL     1      32.136  23.427   9.670  1.00  0.00     0.210 HD
ENDBRANCH   2   3
BRANCH   2   5
HETATM    5  C3  UNL     1      31.076  20.444   9.859  1.00  0.00     0.041 C
BRANCH   5   6
HETATM    6  C4  UNL     1      30.099  20.512  10.954  1.00  0.00     0.031 C
BRANCH   6   7
HETATM    7  C5  UNL     1      30.228  19.619  12.112  1.00  0.00     0.240 C
BRANCH   7   8
HETATM    8  N1  UNL     1      29.093  18.989  12.562  1.00  0.00    -0.041 N
HETATM    9  C6  UNL     1      28.827  17.614  12.603  1.00  0.00     0.405 C
HETATM   10  O2  UNL     1      27.521  17.573  13.172  1.00  0.00    -0.355 OA
HETATM   11  C7  UNL     1      27.301  18.893  13.386  1.00  0.00     0.176 C
HETATM   12  C8  UNL     1      28.605  19.399  13.911  1.00  0.00     0.273 C
HETATM   13  C9  UNL     1      27.801  19.523  12.106  1.00  0.00     0.273 C
ENDBRANCH   7   8
ENDBRANCH   6   7
ENDBRANCH   5   6
ENDBRANCH   2   5
BRANCH   2  14
HETATM   14  C10 UNL     1      31.639  21.451   7.757  1.00  0.00     0.273 C
BRANCH  14  15
HETATM   15  N2  UNL     1      32.855  21.983   7.276  1.00  0.00    -0.076 N
HETATM   16  C11 UNL     1      32.955  23.427   7.378  1.00  0.00     0.271 C
HETATM   17  C12 UNL     1      34.048  21.359   7.795  1.00  0.00     0.271 C
HETATM   18  C13 UNL     1      32.878  21.706   5.829  1.00  0.00     0.271 C
ENDBRANCH  14  15
ENDBRANCH   2  14
TORSDOF 7
ENDMDL