MODEL 2
REMARK VINA RESULT: -6.358437206      1.949      3.438
REMARK  6 active torsions:
REMARK  status: ('A' for Active; 'I' for Inactive)
REMARK    1  A    between atoms: C3_3  and  N1_4
REMARK    2  A    between atoms: N1_4  and  C4_5
REMARK    3  A    between atoms: C4_5  and  C5_6
REMARK    4  A    between atoms: C5_6  and  N2_7
REMARK    5  A    between atoms: N2_7  and  C8_10
REMARK    6  A    between atoms: C8_10  and  O1_12
ROOT
HETATM    1  C1  UNL     1      29.390  20.140  18.214  1.00  0.00     0.013 C
HETATM    2  C2  UNL     1      28.795  19.942  17.183  1.00  0.00    -0.089 C
HETATM    3  C3  UNL     1      28.044  19.701  15.931  1.00  0.00     0.330 C
ENDROOT
BRANCH   3   4
HETATM    4  N1  UNL     1      28.442  20.607  14.887  1.00  0.00    -0.052 N
HETATM    5  C10 UNL     1      27.311  21.405  14.479  1.00  0.00     0.264 C
HETATM    6  C11 UNL     1      26.152  20.523  14.181  1.00  0.00     0.195 C
HETATM    7  O2  UNL     1      26.496  19.560  13.274  1.00  0.00    -0.388 OA
HETATM    8  C12 UNL     1      27.752  19.627  12.741  1.00  0.00     0.195 C
HETATM    9  C13 UNL     1      28.848  19.812  13.746  1.00  0.00     0.264 C
BRANCH   4  10
HETATM   10  C4  UNL     1      29.469  21.526  15.315  1.00  0.00     0.266 C
BRANCH  10  11
HETATM   11  C5  UNL     1      30.351  21.972  14.172  1.00  0.00     0.267 C
BRANCH  11  12
HETATM   12  N2  UNL     1      30.730  23.347  14.269  1.00  0.00    -0.048 N
HETATM   13  C6  UNL     1      29.790  24.082  15.129  1.00  0.00     0.275 C
HETATM   14  C7  UNL     1      32.027  23.477  14.901  1.00  0.00     0.275 C
BRANCH  12  15
HETATM   15  C8  UNL     1      30.667  23.947  12.975  1.00  0.00     0.318 C
HETATM   16  C9  UNL     1      29.971  23.092  11.945  1.00  0.00     0.071 C
BRANCH  15  17
HETATM   17  O1  UNL     1      31.940  24.236  12.465  1.00  0.00    -0.370 OA
ATOM     18  H1  UNL     1      31.918  24.941  11.829  1.00  0.00     0.212 HD
ENDBRANCH  15  17
ENDBRANCH  12  15
ENDBRANCH  11  12
ENDBRANCH  10  11
ENDBRANCH   4  10
ENDBRANCH   3   4
TORSDOF 6
ENDMDL