MODEL 4
REMARK VINA RESULT: -6.338926321      5.193      7.632
REMARK  6 active torsions:
REMARK  status: ('A' for Active; 'I' for Inactive)
REMARK    1  A    between atoms: C2_2  and  C3_3
REMARK    2  A    between atoms: C3_3  and  C4_4
REMARK    3  A    between atoms: C4_4  and  C5_5
REMARK    4  A    between atoms: C5_5  and  O1_6
REMARK    5  A    between atoms: C5_5  and  C6_8
REMARK    6  A    between atoms: C6_8  and  N1_9
ROOT
HETATM    1  N1  UNL     1      28.869  19.875  12.868  1.00  0.00     0.133 N
HETATM    2  C7  UNL     1      27.604  20.190  12.200  1.00  0.00     0.319 C
HETATM    3  C8  UNL     1      28.732  18.464  13.256  1.00  0.00     0.325 C
HETATM    4  C9  UNL     1      27.544  18.034  13.952  1.00  0.00     0.088 C
HETATM    5  N2  UNL     1      26.601  18.956  14.453  1.00  0.00    -0.394 N
HETATM    6  C10 UNL     1      25.316  18.424  14.751  1.00  0.00     0.148 C
HETATM    7  C11 UNL     1      27.086  19.947  15.350  1.00  0.00     0.160 C
HETATM    8  C12 UNL     1      28.567  20.007  15.235  1.00  0.00     0.369 C
HETATM    9  N3  UNL     1      29.047  20.648  14.003  1.00  0.00     0.181 N
HETATM   10  C13 UNL     1      30.392  21.045  14.323  1.00  0.00     0.397 C
HETATM   11  O2  UNL     1      28.339  21.826  13.938  1.00  0.00    -0.037 OA
ENDROOT
BRANCH   1  12
HETATM   12  C6  UNL     1      30.007  19.940  12.014  1.00  0.00     0.312 C
BRANCH  12  13
HETATM   13  C5  UNL     1      29.962  20.914  10.858  1.00  0.00     0.147 C
BRANCH  13  14
HETATM   14  C4  UNL     1      31.063  20.505   9.861  1.00  0.00     0.033 C
BRANCH  14  15
HETATM   15  C3  UNL     1      31.382  21.552   8.860  1.00  0.00     0.002 C
BRANCH  15  16
HETATM   16  C2  UNL     1      31.827  20.823   7.583  1.00  0.00    -0.004 C
HETATM   17  C1  UNL     1      31.449  21.686   6.381  1.00  0.00     0.005 C
ENDBRANCH  15  16
ENDBRANCH  14  15
ENDBRANCH  13  14
BRANCH  13  18
HETATM   18  O1  UNL     1      30.298  22.209  11.244  1.00  0.00    -0.394 OA
ATOM     19  H1  UNL     1      31.221  22.292  11.033  1.00  0.00     0.210 HD
ENDBRANCH  13  18
ENDBRANCH  12  13
ENDBRANCH   1  12
TORSDOF 6
ENDMDL