MODEL 1
REMARK VINA RESULT: -7.020898172      0.000      0.000
REMARK  6 active torsions:
REMARK  status: ('A' for Active; 'I' for Inactive)
REMARK    1  A    between atoms: C2_2  and  O1_3
REMARK    2  A    between atoms: N1_8  and  C6_10
REMARK    3  A    between atoms: C6_10  and  C7_11
REMARK    4  A    between atoms: C7_11  and  C8_12
REMARK    5  A    between atoms: C8_12  and  C9_13
REMARK    6  A    between atoms: C9_13  and  N2_14
ROOT
HETATM    1  C1  UNL     1      32.233  23.513   9.497  1.00  0.00     0.081 C
HETATM    2  C2  UNL     1      31.781  22.194   9.002  1.00  0.00     0.248 C
HETATM    3  C3  UNL     1      30.291  22.279   8.741  1.00  0.00     0.238 C
HETATM    4  O2  UNL     1      30.147  22.551   7.390  1.00  0.00    -0.359 OA
HETATM    5  C4  UNL     1      31.453  22.839   6.922  1.00  0.00     0.408 C
HETATM    6  N1  UNL     1      32.228  21.860   7.646  1.00  0.00    -0.017 N
HETATM    7  C5  UNL     1      31.724  20.565   7.351  1.00  0.00     0.279 C
ENDROOT
BRANCH   6   8
HETATM    8  C6  UNL     1      33.609  21.980   7.459  1.00  0.00     0.243 C
BRANCH   8   9
HETATM    9  C7  UNL     1      34.506  20.844   7.730  1.00  0.00     0.030 C
BRANCH   9  10
HETATM   10  C8  UNL     1      35.357  20.912   8.966  1.00  0.00     0.032 C
BRANCH  10  11
HETATM   11  C9  UNL     1      36.463  19.892   8.957  1.00  0.00     0.272 C
BRANCH  11  12
HETATM   12  N2  UNL     1      37.638  20.296   9.636  1.00  0.00     0.088 N
HETATM   13  C10 UNL     1      38.373  19.268  10.296  1.00  0.00     0.272 C
HETATM   14  C11 UNL     1      39.529  20.075  10.906  1.00  0.00     0.032 C
HETATM   15  C12 UNL     1      38.824  21.357  11.290  1.00  0.00     0.032 C
HETATM   16  C13 UNL     1      37.421  21.256  10.689  1.00  0.00     0.272 C
ENDBRANCH  11  12
ENDBRANCH  10  11
ENDBRANCH   9  10
ENDBRANCH   8   9
ENDBRANCH   6   8
BRANCH   2  17
HETATM   17  O1  UNL     1      31.993  21.151   9.884  1.00  0.00    -0.363 OA
ATOM     18  H1  UNL     1      31.502  21.218  10.696  1.00  0.00     0.212 HD
ENDBRANCH   2  17
TORSDOF 6
ENDMDL