MODEL 3
REMARK VINA RESULT: -6.447056428      2.982      4.442
REMARK  6 active torsions:
REMARK  status: ('A' for Active; 'I' for Inactive)
REMARK    1  A    between atoms: C2_2  and  C3_3
REMARK    2  A    between atoms: C3_3  and  C4_4
REMARK    3  A    between atoms: C4_4  and  N1_5
REMARK    4  A    between atoms: N2_9  and  C8_10
REMARK    5  A    between atoms: C8_10  and  C9_11
REMARK    6  A    between atoms: C9_11  and  O1_12
ROOT
HETATM    1  N1  UNL     1      28.444  21.008  14.497  1.00  0.00    -0.067 N
HETATM    2  C5  UNL     1      28.860  19.750  13.904  1.00  0.00     0.272 C
HETATM    3  C6  UNL     1      28.850  21.009  15.870  1.00  0.00     0.265 C
HETATM    4  C7  UNL     1      30.297  21.389  16.067  1.00  0.00     0.268 C
HETATM    5  N2  UNL     1      30.612  22.692  15.517  1.00  0.00    -0.035 N
HETATM    6  C10 UNL     1      31.770  22.598  14.696  1.00  0.00     0.405 C
HETATM    7  O2  UNL     1      31.665  23.525  13.671  1.00  0.00    -0.362 OA
HETATM    8  C11 UNL     1      30.412  24.077  13.700  1.00  0.00     0.205 C
HETATM    9  C12 UNL     1      29.593  23.184  14.629  1.00  0.00     0.242 C
HETATM   10  C13 UNL     1      28.951  22.139  13.777  1.00  0.00     0.272 C
ENDROOT
BRANCH   1  11
HETATM   11  C4  UNL     1      26.974  20.984  14.478  1.00  0.00     0.237 C
BRANCH  11  12
HETATM   12  C3  UNL     1      26.500  19.650  15.023  1.00  0.00     0.027 C
BRANCH  12  13
HETATM   13  C2  UNL     1      25.110  19.388  14.473  1.00  0.00    -0.003 C
HETATM   14  C1  UNL     1      24.766  20.597  13.603  1.00  0.00     0.005 C
ENDBRANCH  12  13
ENDBRANCH  11  12
ENDBRANCH   1  11
BRANCH   5  15
HETATM   15  C8  UNL     1      30.722  23.611  16.617  1.00  0.00     0.266 C
BRANCH  15  16
HETATM   16  C9  UNL     1      32.124  23.853  17.079  1.00  0.00     0.192 C
BRANCH  16  17
HETATM   17  O1  UNL     1      32.260  23.643  18.451  1.00  0.00    -0.399 OA
ATOM     18  H1  UNL     1      33.126  23.322  18.675  1.00  0.00     0.209 HD
ENDBRANCH  16  17
ENDBRANCH  15  16
ENDBRANCH   5  15
TORSDOF 6
ENDMDL