MODEL 2
REMARK VINA RESULT: -7.540598525      0.880      1.136
REMARK  10 active torsions:
REMARK  status: ('A' for Active; 'I' for Inactive)
REMARK       I    between atoms: C1_4  and  N3_6
REMARK       I    between atoms: N3_6  and  C2_8
REMARK    1  A    between atoms: C2_8  and  C3_10
REMARK    2  A    between atoms: C6_17  and  N6_18
REMARK    3  A    between atoms: C7_23  and  N8_24
REMARK    4  A    between atoms: N9_27  and  C8_28
REMARK    5  A    between atoms: C9_30  and  C10_31
REMARK    6  A    between atoms: C10_31  and  O3_32
REMARK    7  A    between atoms: C11_34  and  C12_35
REMARK    8  A    between atoms: C12_35  and  N10_36
REMARK    9  A    between atoms: C14_38  and  C15_39
REMARK   10  A    between atoms: C15_39  and  O4_40
ROOT
HETATM    1  C3  UNL     1      -3.541  20.982 -28.373  1.00  0.00     0.177 A
HETATM    2  N4  UNL     1      -3.595  21.958 -27.417  1.00  0.00    -0.321 N
ATOM      3  H4  UNL     1      -2.796  22.441 -27.006  1.00  0.00     0.169 HD
HETATM    4  C4  UNL     1      -4.887  22.166 -27.116  1.00  0.00     0.161 A
HETATM    5  C5  UNL     1      -5.660  21.319 -27.884  1.00  0.00     0.124 A
HETATM    6  N5  UNL     1      -4.802  20.611 -28.639  1.00  0.00    -0.332 N
ATOM      7  H5  UNL     1      -5.071  19.897 -29.316  1.00  0.00     0.168 HD
HETATM    8  C6  UNL     1      -7.033  21.355 -27.744  1.00  0.00     0.145 A
HETATM    9  N7  UNL     1      -7.588  22.195 -26.882  1.00  0.00    -0.175 N
ATOM     10  H7  UNL     1      -8.603  22.224 -26.776  1.00  0.00     0.186 HD
HETATM   11  C7  UNL     1      -6.805  23.015 -26.142  1.00  0.00     0.685 A
HETATM   12  N9  UNL     1      -5.467  23.027 -26.230  1.00  0.00    -0.115 N
ENDROOT
BRANCH  12  13
HETATM   13  C8  UNL     1      -4.617  23.899 -25.445  1.00  0.00     0.397 C
HETATM   14  O2  UNL     1      -3.374  23.325 -25.194  1.00  0.00    -0.333 OA
HETATM   15  C9  UNL     1      -2.926  23.859 -23.994  1.00  0.00     0.180 C
HETATM   16  C11 UNL     1      -4.172  24.326 -23.310  1.00  0.00     0.177 C
HETATM   17  O5  UNL     1      -5.207  24.126 -24.210  1.00  0.00    -0.333 OA
BRANCH  15  18
HETATM   18  C10 UNL     1      -1.969  24.979 -24.313  1.00  0.00     0.199 C
BRANCH  18  19
HETATM   19  O3  UNL     1      -1.127  24.511 -25.339  1.00  0.00    -0.398 OA
ATOM     20  H3  UNL     1      -1.537  24.755 -26.161  1.00  0.00     0.209 HD
ENDBRANCH  18  19
ENDBRANCH  15  18
BRANCH  16  21
HETATM   21  C12 UNL     1      -4.145  25.789 -22.948  1.00  0.00     0.184 C
BRANCH  21  22
HETATM   22  N10 UNL     1      -5.353  26.068 -22.201  1.00  0.00    -0.285 N
HETATM   23  C13 UNL     1      -5.612  25.855 -20.913  1.00  0.00     0.140 A
HETATM   24  C14 UNL     1      -6.892  26.284 -20.674  1.00  0.00     0.067 A
HETATM   25  N11 UNL     1      -7.374  26.751 -21.848  1.00  0.00    -0.287 N
HETATM   26  N12 UNL     1      -6.425  26.606 -22.740  1.00  0.00    -0.241 N
ATOM     27  H11 UNL     1      -8.302  27.144 -22.009  1.00  0.00     0.188 HD
ATOM     28  H12 UNL     1      -6.507  26.874 -23.721  1.00  0.00     0.208 HD
BRANCH  24  29
HETATM   29  C15 UNL     1      -7.674  26.275 -19.402  1.00  0.00     0.224 C
BRANCH  29  30
HETATM   30  O4  UNL     1      -8.005  24.999 -19.016  1.00  0.00    -0.395 OA
ATOM     31  H4  UNL     1      -8.862  24.964 -18.608  1.00  0.00     0.209 HD
ENDBRANCH  29  30
ENDBRANCH  24  29
ENDBRANCH  21  22
ENDBRANCH  16  21
ENDBRANCH  12  13
BRANCH  11  32
HETATM   32  N8  UNL     1      -7.341  23.846 -25.289  1.00  0.00    -0.234 N
ATOM     33  H82 UNL     1      -7.070  23.735 -24.312  1.00  0.00     0.174 HD
ATOM     34  H81 UNL     1      -7.996  24.560 -25.608  1.00  0.00     0.174 HD
ENDBRANCH  11  32
BRANCH   1  35
HETATM   35  C2  UNL     1      -2.364  20.429 -29.003  1.00  0.00     0.292 C
HETATM   36  N3  UNL     1      -1.039  20.741 -28.567  1.00  0.00    -0.295 N
HETATM   37  C1  UNL     1       0.102  20.196 -29.187  1.00  0.00     0.188 C
ATOM     38  H3  UNL     1      -0.916  21.379 -27.780  1.00  0.00     0.171 HD
HETATM   39  N1  UNL     1       1.283  20.491 -28.776  1.00  0.00    -0.373 N
HETATM   40  N2  UNL     1      -0.012  19.301 -30.290  1.00  0.00    -0.064 NA
ATOM     41  H12 UNL     1       2.109  20.097 -29.225  1.00  0.00     0.158 HD
ATOM     42  H11 UNL     1       1.364  21.131 -27.986  1.00  0.00     0.158 HD
HETATM   43  O1  UNL     1      -2.503  19.645 -29.970  1.00  0.00    -0.264 OA
ENDBRANCH   1  35
BRANCH   8  44
HETATM   44  N6  UNL     1      -7.742  20.553 -28.474  1.00  0.00    -0.383 N
ATOM     45  H62 UNL     1      -7.911  20.731 -29.464  1.00  0.00     0.157 HD
ATOM     46  H61 UNL     1      -8.136  19.723 -28.031  1.00  0.00     0.157 HD
ENDBRANCH   8  44
TORSDOF 10
ENDMDL