MODEL 2
REMARK VINA RESULT: -7.062835492      1.643      1.979
REMARK  11 active torsions:
REMARK  status: ('A' for Active; 'I' for Inactive)
REMARK    1  A    between atoms: N1_1  and  C1_4
REMARK    2  A    between atoms: C3_8  and  C4_9
REMARK    3  A    between atoms: N5_14  and  C5_15
REMARK    4  A    between atoms: C6_19  and  C7_20
REMARK    5  A    between atoms: C7_20  and  O1_21
REMARK    6  A    between atoms: C8_23  and  O2_24
REMARK    7  A    between atoms: C9_26  and  N7_27
REMARK    8  A    between atoms: N7_27  and  N8_29
REMARK    9  A    between atoms: N8_29  and  N9_31
REMARK   10  A    between atoms: N9_31  and  C10_32
REMARK   11  A    between atoms: N10_34  and  N11_35
ROOT
HETATM    1  C4  UNL     1      -7.844  29.139 -14.105  1.00  0.00     0.113 A
HETATM    2  N3  UNL     1      -7.469  28.026 -13.393  1.00  0.00    -0.281 N
ATOM      3  H3  UNL     1      -8.008  27.583 -12.648  1.00  0.00     0.188 HD
HETATM    4  N4  UNL     1      -6.292  27.631 -13.837  1.00  0.00    -0.236 N
ATOM      5  H4  UNL     1      -5.776  26.826 -13.481  1.00  0.00     0.208 HD
HETATM    6  N5  UNL     1      -5.870  28.425 -14.811  1.00  0.00    -0.224 N
HETATM    7  C9  UNL     1      -6.783  29.356 -15.000  1.00  0.00     0.172 A
ENDROOT
BRANCH   7   8
HETATM    8  N7  UNL     1      -6.746  30.493 -15.902  1.00  0.00    -0.257 N
ATOM      9  H7  UNL     1      -6.362  31.406 -15.660  1.00  0.00     0.191 HD
BRANCH   8  10
HETATM   10  N8  UNL     1      -7.325  30.167 -17.194  1.00  0.00    -0.173 N
ATOM     11  H8  UNL     1      -7.990  30.859 -17.540  1.00  0.00     0.223 HD
BRANCH  10  12
HETATM   12  N9  UNL     1      -7.182  29.348 -17.836  1.00  0.00    -0.303 NA
BRANCH  12  13
HETATM   13  C10 UNL     1      -6.965  28.208 -18.683  1.00  0.00     0.218 A
HETATM   14  C11 UNL     1      -6.115  28.328 -19.706  1.00  0.00     0.173 A
HETATM   15  N10 UNL     1      -5.833  27.400 -20.578  1.00  0.00    -0.220 N
HETATM   16  C12 UNL     1      -6.475  26.166 -20.435  1.00  0.00     0.347 A
HETATM   17  O3  UNL     1      -6.237  25.252 -21.229  1.00  0.00    -0.245 OA
HETATM   18  N12 UNL     1      -7.372  26.060 -19.355  1.00  0.00    -0.271 N
HETATM   19  C13 UNL     1      -7.636  26.988 -18.509  1.00  0.00     0.293 A
ATOM     20  H12 UNL     1      -7.854  25.169 -19.235  1.00  0.00     0.174 HD
HETATM   21  O4  UNL     1      -8.463  26.919 -17.516  1.00  0.00    -0.264 OA
BRANCH  15  22
HETATM   22  N11 UNL     1      -4.900  27.598 -21.614  1.00  0.00    -0.335 N
ATOM     23 2H11 UNL     1      -5.007  28.381 -22.258  1.00  0.00     0.177 HD
ATOM     24 1H11 UNL     1      -4.113  26.968 -21.767  1.00  0.00     0.177 HD
ENDBRANCH  15  22
ENDBRANCH  12  13
ENDBRANCH  10  12
ENDBRANCH   8  10
ENDBRANCH   7   8
BRANCH   1  25
HETATM   25  C3  UNL     1      -9.130  29.808 -14.032  1.00  0.00     0.080 A
HETATM   26  C2  UNL     1      -9.333  31.109 -13.762  1.00  0.00     0.125 A
HETATM   27  N2  UNL     1     -10.558  31.689 -13.705  1.00  0.00    -0.201 N
HETATM   28  C1  UNL     1     -11.668  30.838 -13.948  1.00  0.00     0.678 A
ATOM     29  H2  UNL     1     -10.675  32.681 -13.500  1.00  0.00     0.183 HD
HETATM   30  N13 UNL     1     -11.477  29.571 -14.207  1.00  0.00    -0.156 N
HETATM   31  C14 UNL     1     -10.244  28.988 -14.266  1.00  0.00     0.273 A
ATOM     32  H13 UNL     1     -12.295  28.984 -14.376  1.00  0.00     0.187 HD
HETATM   33  O5  UNL     1     -10.166  27.778 -14.525  1.00  0.00    -0.267 OA
BRANCH  28  34
HETATM   34  N1  UNL     1     -12.767  31.447 -13.887  1.00  0.00    -0.234 N
ATOM     35  H12 UNL     1     -12.974  32.386 -14.227  1.00  0.00     0.174 HD
ATOM     36  H11 UNL     1     -13.496  30.898 -13.431  1.00  0.00     0.174 HD
ENDBRANCH  28  34
ENDBRANCH   1  25
BRANCH   6  37
HETATM   37  C5  UNL     1      -4.618  28.205 -15.577  1.00  0.00     0.341 A
HETATM   38  N6  UNL     1      -3.499  28.009 -14.695  1.00  0.00    -0.041 N
HETATM   39  C6  UNL     1      -3.457  26.626 -14.987  1.00  0.00     0.244 A
ATOM     40  H62 UNL     1      -2.658  28.572 -14.824  1.00  0.00     0.280 HD
ATOM     41  H61 UNL     1      -3.571  28.312 -13.724  1.00  0.00     0.280 HD
HETATM   42  C8  UNL     1      -4.569  26.750 -15.956  1.00  0.00     0.203 A
BRANCH  39  43
HETATM   43  C7  UNL     1      -2.172  26.078 -15.592  1.00  0.00     0.200 C
BRANCH  43  44
HETATM   44  O1  UNL     1      -1.163  26.106 -14.604  1.00  0.00    -0.399 OA
ATOM     45  H1  UNL     1      -0.337  25.869 -15.010  1.00  0.00     0.209 HD
ENDBRANCH  43  44
ENDBRANCH  39  43
BRANCH  42  46
HETATM   46  O2  UNL     1      -4.281  26.461 -17.285  1.00  0.00    -0.389 OA
ATOM     47  H2  UNL     1      -3.362  26.436 -17.526  1.00  0.00     0.210 HD
ENDBRANCH  42  46
ENDBRANCH   6  37
TORSDOF 11
ENDMDL