MODEL 2
REMARK VINA RESULT: -6.649990847      4.518      8.956
REMARK  12 active torsions:
REMARK  status: ('A' for Active; 'I' for Inactive)
REMARK    1  A    between atoms: C2_2  and  O1_3
REMARK    2  A    between atoms: C2_2  and  C3_5
REMARK    3  A    between atoms: C3_5  and  N1_6
REMARK    4  A    between atoms: C3_5  and  C9_23
REMARK    5  A    between atoms: N1_6  and  C4_8
REMARK    6  A    between atoms: C4_8  and  O2_9
REMARK    7  A    between atoms: C8_19  and  N3_20
REMARK    8  A    between atoms: C9_23  and  C10_25
REMARK    9  A    between atoms: C10_25  and  N4_26
REMARK   10  A    between atoms: C11_31  and  C12_32
REMARK   11  A    between atoms: C13_35  and  N8_36
REMARK   12  A    between atoms: C14_41  and  N10_42
ROOT
HETATM    1  C9  UNL     1      -7.061  26.909 -19.782  1.00  0.00     0.173 C
HETATM    2  O5  UNL     1      -8.036  26.126 -19.818  1.00  0.00    -0.294 OA
ENDROOT
BRANCH   1   3
HETATM    3  C3  UNL     1      -6.580  27.344 -18.468  1.00  0.00     0.183 C
BRANCH   3   4
HETATM    4  C2  UNL     1      -5.144  27.647 -18.309  1.00  0.00     0.144 C
HETATM    5  C1  UNL     1      -4.605  26.908 -17.074  1.00  0.00     0.042 C
BRANCH   4   6
HETATM    6  O1  UNL     1      -5.072  29.019 -17.908  1.00  0.00    -0.393 OA
ATOM      7  H1  UNL     1      -5.965  29.319 -18.030  1.00  0.00     0.210 HD
ENDBRANCH   4   6
ENDBRANCH   3   4
BRANCH   3   8
HETATM    8  N1  UNL     1      -7.442  28.467 -18.055  1.00  0.00    -0.356 N
ATOM      9  H1  UNL     1      -7.308  29.380 -18.489  1.00  0.00     0.162 HD
BRANCH   8  10
HETATM   10  C4  UNL     1      -8.433  28.314 -17.090  1.00  0.00     0.158 C
HETATM   11  C5  UNL     1      -8.534  28.663 -15.844  1.00  0.00     0.102 C
HETATM   12  S1  UNL     1     -10.109  28.211 -14.983  1.00  0.00    -0.034 SA
HETATM   13  C8  UNL     1      -7.586  29.397 -15.022  1.00  0.00     0.123 C
HETATM   14  C6  UNL     1     -10.507  29.773 -14.149  1.00  0.00     0.281 C
HETATM   15  O3  UNL     1     -11.654  30.184 -14.172  1.00  0.00    -0.274 OA
HETATM   16  C7  UNL     1      -9.354  30.407 -13.507  1.00  0.00     0.304 C
HETATM   17  O4  UNL     1      -9.610  31.164 -12.522  1.00  0.00    -0.263 OA
HETATM   18  N2  UNL     1      -8.044  30.208 -13.931  1.00  0.00    -0.305 N
ATOM     19  H2  UNL     1      -7.322  30.699 -13.403  1.00  0.00     0.170 HD
BRANCH  10  20
HETATM   20  O2  UNL     1      -9.589  27.624 -17.584  1.00  0.00    -0.345 OA
ATOM     21  H2  UNL     1     -10.319  28.207 -17.760  1.00  0.00     0.219 HD
ENDBRANCH  10  20
BRANCH  13  22
HETATM   22  N3  UNL     1      -6.352  29.273 -15.261  1.00  0.00    -0.384 N
ATOM     23  H32 UNL     1      -6.017  28.574 -15.924  1.00  0.00     0.157 HD
ATOM     24  H31 UNL     1      -5.698  29.906 -14.802  1.00  0.00     0.157 HD
ENDBRANCH  13  22
ENDBRANCH   8  10
ENDBRANCH   3   8
ENDBRANCH   1   3
BRANCH   1  25
HETATM   25  C10 UNL     1      -6.502  27.309 -21.089  1.00  0.00     0.251 C
BRANCH  25  26
HETATM   26  N4  UNL     1      -5.931  26.148 -21.786  1.00  0.00    -0.211 N
HETATM   27  N5  UNL     1      -5.036  25.326 -21.314  1.00  0.00    -0.224 N
HETATM   28  N6  UNL     1      -4.743  24.400 -22.196  1.00  0.00    -0.265 N
ATOM     29  H5  UNL     1      -4.620  25.392 -20.385  1.00  0.00     0.210 HD
HETATM   30  C11 UNL     1      -5.484  24.647 -23.275  1.00  0.00     0.183 A
ATOM     31  H6  UNL     1      -4.074  23.639 -22.078  1.00  0.00     0.190 HD
HETATM   32  N12 UNL     1      -6.223  25.739 -23.009  1.00  0.00    -0.263 N
ATOM     33  H12 UNL     1      -6.893  26.177 -23.642  1.00  0.00     0.190 HD
BRANCH  30  34
HETATM   34  C12 UNL     1      -5.466  23.879 -24.508  1.00  0.00     0.183 A
HETATM   35  N7  UNL     1      -6.630  23.450 -25.041  1.00  0.00    -0.172 N
HETATM   36  C13 UNL     1      -6.642  22.721 -26.173  1.00  0.00     0.692 A
ATOM     37  H7  UNL     1      -7.510  23.681 -24.581  1.00  0.00     0.186 HD
HETATM   38  N9  UNL     1      -5.481  22.422 -26.773  1.00  0.00    -0.023 N
HETATM   39  C14 UNL     1      -4.317  22.849 -26.245  1.00  0.00     0.692 A
ATOM     40  H9  UNL     1      -5.479  21.872 -27.631  1.00  0.00     0.203 HD
HETATM   41  N11 UNL     1      -4.303  23.565 -25.132  1.00  0.00    -0.172 N
ATOM     42  H11 UNL     1      -3.416  23.881 -24.741  1.00  0.00     0.186 HD
BRANCH  36  43
HETATM   43  N8  UNL     1      -7.747  22.288 -26.709  1.00  0.00    -0.234 N
ATOM     44  H82 UNL     1      -8.543  22.105 -26.100  1.00  0.00     0.174 HD
ATOM     45  H81 UNL     1      -7.840  22.131 -27.713  1.00  0.00     0.174 HD
ENDBRANCH  36  43
BRANCH  39  46
HETATM   46  N10 UNL     1      -3.193  22.558 -26.831  1.00  0.00    -0.234 N
ATOM     47 2H10 UNL     1      -3.202  21.991 -27.679  1.00  0.00     0.174 HD
ATOM     48 1H10 UNL     1      -2.313  22.896 -26.442  1.00  0.00     0.174 HD
ENDBRANCH  39  46
ENDBRANCH  30  34
ENDBRANCH  25  26
ENDBRANCH   1  25
TORSDOF 12
ENDMDL