MODEL 2
REMARK VINA RESULT: -6.813382811      3.220      7.167
REMARK  12 active torsions:
REMARK  status: ('A' for Active; 'I' for Inactive)
REMARK       I    between atoms: C2_2  and  N1_4
REMARK    1  A    between atoms: C3_6  and  C4_7
REMARK    2  A    between atoms: C6_10  and  N2_11
REMARK       I    between atoms: N2_11  and  C7_13
REMARK    3  A    between atoms: C7_13  and  C8_15
REMARK    4  A    between atoms: C8_15  and  O3_16
REMARK    5  A    between atoms: C8_15  and  C9_18
REMARK    6  A    between atoms: N3_19  and  O4_21
REMARK    7  A    between atoms: C10_24  and  C11_25
REMARK    8  A    between atoms: C11_25  and  O6_26
REMARK    9  A    between atoms: C12_29  and  O8_30
REMARK   10  A    between atoms: C13_32  and  O9_33
REMARK   11  A    between atoms: C14_35  and  O10_36
REMARK   12  A    between atoms: C15_38  and  O11_39
ROOT
HETATM    1  C4  UNL     1      -5.676  30.682 -15.186  1.00  0.00     0.068 C
HETATM    2  C5  UNL     1      -5.246  31.486 -16.425  1.00  0.00     0.091 C
HETATM    3  S1  UNL     1      -5.014  30.193 -17.717  1.00  0.00    -0.116 SA
HETATM    4  C6  UNL     1      -6.250  28.943 -17.167  1.00  0.00     0.289 C
HETATM    5  O5  UNL     1      -7.268  29.741 -16.605  1.00  0.00    -0.346 OA
HETATM    6  C10 UNL     1      -6.984  30.061 -15.276  1.00  0.00     0.199 C
ENDROOT
BRANCH   6   7
HETATM    7  C11 UNL     1      -8.186  30.678 -14.641  1.00  0.00     0.221 C
HETATM    8  O7  UNL     1      -8.167  30.450 -13.262  1.00  0.00    -0.318 OA
HETATM    9  C12 UNL     1      -9.076  29.585 -12.760  1.00  0.00     0.292 C
HETATM   10  C13 UNL     1     -10.526  29.922 -13.003  1.00  0.00     0.204 C
HETATM   11  C14 UNL     1     -10.647  30.637 -14.298  1.00  0.00     0.185 C
HETATM   12  C15 UNL     1      -9.511  30.278 -15.241  1.00  0.00     0.214 C
BRANCH   7  13
HETATM   13  O6  UNL     1      -8.161  32.093 -14.697  1.00  0.00    -0.361 OA
ATOM     14  H6  UNL     1      -7.533  32.469 -14.093  1.00  0.00     0.213 HD
ENDBRANCH   7  13
BRANCH   9  15
HETATM   15  O8  UNL     1      -8.832  28.233 -12.990  1.00  0.00    -0.368 OA
ATOM     16  H8  UNL     1      -8.503  28.006 -13.851  1.00  0.00     0.212 HD
ENDBRANCH   9  15
BRANCH  10  17
HETATM   17  O9  UNL     1     -11.067  30.684 -11.949  1.00  0.00    -0.388 OA
ATOM     18  H9  UNL     1     -10.387  31.059 -11.402  1.00  0.00     0.210 HD
ENDBRANCH  10  17
BRANCH  11  19
HETATM   19  O10 UNL     1     -10.732  31.998 -14.044  1.00  0.00    -0.390 OA
ATOM     20  H10 UNL     1     -11.095  32.427 -14.810  1.00  0.00     0.210 HD
ENDBRANCH  11  19
BRANCH  12  21
HETATM   21  O11 UNL     1      -9.809  31.022 -16.404  1.00  0.00    -0.387 OA
ATOM     22  H11 UNL     1     -10.448  30.583 -16.952  1.00  0.00     0.210 HD
ENDBRANCH  12  21
ENDBRANCH   6   7
BRANCH   1  23
HETATM   23  C3  UNL     1      -5.311  31.465 -14.010  1.00  0.00     0.072 C
HETATM   24  N1  UNL     1      -4.405  32.403 -14.101  1.00  0.00    -0.341 N
HETATM   25  C2  UNL     1      -4.004  33.197 -13.008  1.00  0.00     0.217 C
ATOM     26  H1  UNL     1      -3.968  32.568 -15.008  1.00  0.00     0.167 HD
HETATM   27  C1  UNL     1      -5.001  33.576 -11.998  1.00  0.00     0.117 C
HETATM   28  O1  UNL     1      -2.822  33.562 -12.917  1.00  0.00    -0.274 OA
ENDBRANCH   1  23
BRANCH   4  29
HETATM   29  N2  UNL     1      -6.672  28.239 -18.321  1.00  0.00    -0.324 N
HETATM   30  C7  UNL     1      -7.198  26.938 -18.217  1.00  0.00     0.254 C
HETATM   31  O2  UNL     1      -7.287  26.411 -17.082  1.00  0.00    -0.270 OA
ATOM     32  H2  UNL     1      -6.594  28.680 -19.237  1.00  0.00     0.166 HD
BRANCH  30  33
HETATM   33  C8  UNL     1      -7.660  26.138 -19.376  1.00  0.00     0.250 C
BRANCH  33  34
HETATM   34  O3  UNL     1      -8.026  24.860 -19.029  1.00  0.00    -0.381 OA
ATOM     35  H3  UNL     1      -7.396  24.441 -18.455  1.00  0.00     0.211 HD
ENDBRANCH  33  34
BRANCH  33  36
HETATM   36  C9  UNL     1      -6.699  26.092 -20.477  1.00  0.00     0.127 C
HETATM   37  N3  UNL     1      -5.454  25.783 -20.349  1.00  0.00    -0.281 N
ATOM     38  H3  UNL     1      -5.112  25.555 -19.415  1.00  0.00     0.193 HD
BRANCH  37  39
HETATM   39  O4  UNL     1      -4.570  25.742 -21.373  1.00  0.00    -0.290 OA
ATOM     40  H4  UNL     1      -4.689  25.223 -22.160  1.00  0.00     0.244 HD
ENDBRANCH  37  39
ENDBRANCH  33  36
ENDBRANCH  30  33
ENDBRANCH   4  29
TORSDOF 12
ENDMDL