MODEL 1
REMARK VINA RESULT: -6.697556212      0.000      0.000
REMARK  10 active torsions:
REMARK  status: ('A' for Active; 'I' for Inactive)
REMARK    1  A    between atoms: N1_2  and  N2_3
REMARK    2  A    between atoms: N2_3  and  C2_4
REMARK    3  A    between atoms: C4_8  and  O1_9
REMARK    4  A    between atoms: C5_11  and  N4_12
REMARK    5  A    between atoms: N4_12  and  N5_13
REMARK    6  A    between atoms: N4_12  and  N9_29
REMARK    7  A    between atoms: N6_15  and  C6_17
REMARK    8  A    between atoms: C8_19  and  O2_20
REMARK    9  A    between atoms: C9_22  and  O3_23
REMARK   10  A    between atoms: N9_29  and  N10_31
ROOT
HETATM    1  N4  UNL     1      -7.013  27.876 -17.499  1.00  0.00    -0.190 N
ENDROOT
BRANCH   1   2
HETATM    2  C5  UNL     1      -7.915  28.194 -16.376  1.00  0.00     0.192 C
HETATM    3  C4  UNL     1      -9.107  28.866 -16.922  1.00  0.00     0.244 C
HETATM    4  N3  UNL     1     -10.238  28.970 -16.090  1.00  0.00    -0.372 N
HETATM    5  C3  UNL     1     -10.227  28.360 -14.830  1.00  0.00     0.096 C
ATOM      6  H3  UNL     1     -11.061  29.485 -16.404  1.00  0.00     0.161 HD
HETATM    7  C2  UNL     1      -9.580  29.249 -13.795  1.00  0.00     0.255 C
HETATM    8  S1  UNL     1      -7.843  29.283 -13.855  1.00  0.00     0.171 S
HETATM    9  C12 UNL     1      -7.109  28.994 -15.402  1.00  0.00     0.176 C
HETATM   10  O6  UNL     1      -7.319  28.222 -12.890  1.00  0.00    -0.226 OA
HETATM   11  O7  UNL     1      -7.361  30.588 -13.262  1.00  0.00    -0.226 OA
BRANCH   3  12
HETATM   12  O1  UNL     1      -8.814  30.158 -17.414  1.00  0.00    -0.375 OA
ATOM     13  H1  UNL     1      -8.281  30.602 -16.764  1.00  0.00     0.212 HD
ENDBRANCH   3  12
BRANCH   7  14
HETATM   14  N2  UNL     1     -10.180  30.567 -13.907  1.00  0.00    -0.123 NA
BRANCH  14  15
HETATM   15  N1  UNL     1     -11.571  30.467 -13.943  1.00  0.00    -0.152 NA
HETATM   16  C1  UNL     1     -12.216  31.632 -14.449  1.00  0.00     0.154 C
ENDBRANCH  14  15
ENDBRANCH   7  14
ENDBRANCH   1   2
BRANCH   1  17
HETATM   17  N5  UNL     1      -6.260  28.861 -18.133  1.00  0.00    -0.224 N
HETATM   18  N6  UNL     1      -6.471  29.233 -19.326  1.00  0.00    -0.283 N
ATOM     19  H6  UNL     1      -7.231  28.781 -19.834  1.00  0.00     0.188 HD
ATOM     20  H5  UNL     1      -5.503  29.305 -17.613  1.00  0.00     0.210 HD
BRANCH  18  21
HETATM   21  C6  UNL     1      -5.737  30.217 -19.997  1.00  0.00     0.078 A
HETATM   22  C7  UNL     1      -4.705  29.909 -20.858  1.00  0.00     0.072 A
HETATM   23  C8  UNL     1      -3.990  30.886 -21.513  1.00  0.00     0.103 A
HETATM   24  C9  UNL     1      -4.308  32.210 -21.307  1.00  0.00     0.125 A
HETATM   25  C10 UNL     1      -5.346  32.567 -20.443  1.00  0.00     0.108 A
HETATM   26  N7  UNL     1      -5.659  33.934 -20.244  1.00  0.00    -0.097 NA
HETATM   27  C11 UNL     1      -6.021  31.561 -19.820  1.00  0.00     0.101 A
HETATM   28  N8  UNL     1      -7.091  31.885 -18.927  1.00  0.00    -0.098 NA
BRANCH  23  29
HETATM   29  O2  UNL     1      -2.965  30.540 -22.367  1.00  0.00    -0.358 OA
ATOM     30  H2  UNL     1      -2.715  31.122 -23.074  1.00  0.00     0.217 HD
ENDBRANCH  23  29
BRANCH  24  31
HETATM   31  O3  UNL     1      -3.572  33.168 -21.979  1.00  0.00    -0.356 OA
ATOM     32  H3  UNL     1      -3.462  34.016 -21.567  1.00  0.00     0.218 HD
ENDBRANCH  24  31
ENDBRANCH  18  21
ENDBRANCH   1  17
BRANCH   1  33
HETATM   33  N9  UNL     1      -6.863  26.578 -17.990  1.00  0.00    -0.164 N
ATOM     34  H9  UNL     1      -6.072  26.031 -17.648  1.00  0.00     0.216 HD
BRANCH  33  35
HETATM   35  N10 UNL     1      -7.714  25.977 -18.914  1.00  0.00    -0.022 N
HETATM   36  O4  UNL     1      -8.052  26.639 -19.913  1.00  0.00    -0.515 OA
HETATM   37  O5  UNL     1      -8.209  24.701 -18.803  1.00  0.00    -0.515 OA
ENDBRANCH  33  35
ENDBRANCH   1  33
TORSDOF 10
ENDMDL