MODEL 3
REMARK VINA RESULT: -6.842740787      1.806      2.136
REMARK  12 active torsions:
REMARK  status: ('A' for Active; 'I' for Inactive)
REMARK    1  A    between atoms: C4_6  and  N2_7
REMARK    2  A    between atoms: N2_7  and  C5_9
REMARK    3  A    between atoms: C7_11  and  C8_12
REMARK    4  A    between atoms: C8_12  and  O1_13
REMARK    5  A    between atoms: C9_16  and  O3_17
REMARK    6  A    between atoms: O3_17  and  C10_18
REMARK    7  A    between atoms: C10_18  and  C11_19
REMARK    8  A    between atoms: C11_19  and  O4_20
REMARK    9  A    between atoms: C11_19  and  C12_22
REMARK   10  A    between atoms: C12_22  and  O5_23
REMARK   11  A    between atoms: C13_28  and  O7_29
REMARK   12  A    between atoms: N5_37  and  O9_39
ROOT
HETATM    1  C1  UNL     1      -9.872  28.340 -17.553  1.00  0.00     0.024 C
HETATM    2  C2  UNL     1      -8.957  28.316 -16.614  1.00  0.00     0.016 C
HETATM    3  C3  UNL     1      -7.526  28.523 -16.753  1.00  0.00     0.192 C
HETATM    4  N1  UNL     1      -6.929  28.386 -18.041  1.00  0.00    -0.213 N
ATOM      5  H1  UNL     1      -7.350  28.510 -18.962  1.00  0.00     0.178 HD
HETATM    6  C4  UNL     1      -5.564  28.026 -17.699  1.00  0.00     0.675 C
HETATM    7  N3  UNL     1      -5.577  27.377 -16.584  1.00  0.00    -0.190 N
ATOM      8  H3  UNL     1      -4.754  27.005 -16.110  1.00  0.00     0.181 HD
HETATM    9  C13 UNL     1      -6.894  27.262 -16.124  1.00  0.00     0.194 C
HETATM   10  C14 UNL     1      -7.203  27.368 -14.680  1.00  0.00     0.237 C
HETATM   11  O8  UNL     1      -8.589  27.099 -14.564  1.00  0.00    -0.335 OA
HETATM   12  C15 UNL     1      -9.359  28.050 -15.190  1.00  0.00     0.248 A
HETATM   13  N4  UNL     1     -10.741  28.056 -14.929  1.00  0.00    -0.307 N
ATOM     14  H4  UNL     1     -11.524  27.457 -15.191  1.00  0.00     0.167 HD
HETATM   15  C16 UNL     1     -10.603  29.226 -14.158  1.00  0.00     0.203 A
HETATM   16  N5  UNL     1     -11.384  29.974 -13.436  1.00  0.00    -0.239 N
ATOM     17  H5  UNL     1     -12.366  29.709 -13.359  1.00  0.00     0.197 HD
HETATM   18  N6  UNL     1      -9.230  29.320 -14.458  1.00  0.00    -0.307 N
ATOM     19  H6  UNL     1      -8.477  29.978 -14.257  1.00  0.00     0.167 HD
ENDROOT
BRANCH   6  20
HETATM   20  N2  UNL     1      -4.370  28.305 -18.429  1.00  0.00    -0.200 N
ATOM     21  H2  UNL     1      -3.719  29.001 -18.063  1.00  0.00     0.180 HD
BRANCH  20  22
HETATM   22  C5  UNL     1      -4.049  27.633 -19.672  1.00  0.00     0.245 C
HETATM   23  C6  UNL     1      -4.065  28.599 -20.836  1.00  0.00     0.088 C
HETATM   24  C7  UNL     1      -5.491  28.834 -21.226  1.00  0.00     0.154 C
HETATM   25  O2  UNL     1      -6.251  27.693 -21.313  1.00  0.00    -0.331 OA
HETATM   26  C9  UNL     1      -5.524  26.523 -21.066  1.00  0.00     0.415 C
HETATM   27  O6  UNL     1      -4.925  26.583 -19.821  1.00  0.00    -0.313 OA
BRANCH  24  28
HETATM   28  C8  UNL     1      -5.644  29.601 -22.513  1.00  0.00     0.196 C
BRANCH  28  29
HETATM   29  O1  UNL     1      -6.715  28.993 -23.209  1.00  0.00    -0.398 OA
ATOM     30  H1  UNL     1      -6.335  28.280 -23.710  1.00  0.00     0.209 HD
ENDBRANCH  28  29
ENDBRANCH  24  28
BRANCH  26  31
HETATM   31  O3  UNL     1      -4.649  26.221 -22.083  1.00  0.00    -0.336 OA
BRANCH  31  32
HETATM   32  C10 UNL     1      -4.795  24.914 -22.549  1.00  0.00     0.207 C
BRANCH  32  33
HETATM   33  C11 UNL     1      -5.018  24.950 -24.042  1.00  0.00     0.165 C
BRANCH  33  34
HETATM   34  O4  UNL     1      -6.377  24.950 -24.321  1.00  0.00    -0.391 OA
ATOM     35  H4  UNL     1      -6.519  24.813 -25.250  1.00  0.00     0.210 HD
ENDBRANCH  33  34
BRANCH  33  36
HETATM   36  C12 UNL     1      -4.386  26.179 -24.663  1.00  0.00     0.198 C
BRANCH  36  37
HETATM   37  O5  UNL     1      -5.325  27.153 -24.951  1.00  0.00    -0.398 OA
ATOM     38  H5  UNL     1      -5.070  28.003 -24.612  1.00  0.00     0.209 HD
ENDBRANCH  36  37
ENDBRANCH  33  36
ENDBRANCH  32  33
ENDBRANCH  31  32
ENDBRANCH  26  31
ENDBRANCH  20  22
ENDBRANCH   6  20
BRANCH   9  39
HETATM   39  O7  UNL     1      -7.601  26.178 -16.648  1.00  0.00    -0.366 OA
ATOM     40  H7  UNL     1      -8.047  25.777 -15.911  1.00  0.00     0.212 HD
ENDBRANCH   9  39
BRANCH  16  41
HETATM   41  O9  UNL     1     -10.967  31.081 -12.784  1.00  0.00    -0.287 OA
ATOM     42  H9  UNL     1     -11.536  31.624 -12.251  1.00  0.00     0.244 HD
ENDBRANCH  16  41
TORSDOF 12
ENDMDL