MODEL 4
REMARK VINA RESULT: -7.038484005      2.106      2.515
REMARK  11 active torsions:
REMARK  status: ('A' for Active; 'I' for Inactive)
REMARK    1  A    between atoms: C2_2  and  O1_3
REMARK    2  A    between atoms: O1_3  and  C3_4
REMARK    3  A    between atoms: C3_4  and  O2_5
REMARK    4  A    between atoms: C5_10  and  O3_11
REMARK    5  A    between atoms: C9_16  and  N2_17
REMARK    6  A    between atoms: N2_17  and  N3_19
REMARK    7  A    between atoms: N3_19  and  O4_20
REMARK    8  A    between atoms: N3_19  and  C10_22
REMARK    9  A    between atoms: C13_29  and  N7_30
REMARK   10  A    between atoms: N7_30  and  N8_31
REMARK   11  A    between atoms: C14_34  and  C15_35
ROOT
HETATM    1  N2  UNL     1      -8.914  29.076 -16.876  1.00  0.00    -0.267 N
ATOM      2  H2  UNL     1      -9.393  29.691 -17.534  1.00  0.00     0.190 HD
ENDROOT
BRANCH   1   3
HETATM    3  C9  UNL     1      -8.766  29.451 -15.519  1.00  0.00     0.133 A
HETATM    4  C8  UNL     1      -8.214  30.500 -14.961  1.00  0.00     0.056 A
HETATM    5  C4  UNL     1      -7.585  31.599 -15.479  1.00  0.00     0.107 A
HETATM    6  C7  UNL     1      -8.357  30.358 -13.568  1.00  0.00     0.054 A
HETATM    7  C3  UNL     1      -7.348  31.860 -16.722  1.00  0.00     0.206 C
HETATM    8  N1  UNL     1      -7.129  32.513 -14.543  1.00  0.00    -0.332 N
HETATM    9  C5  UNL     1      -7.256  32.393 -13.240  1.00  0.00     0.142 A
ATOM     10  H1  UNL     1      -6.656  33.346 -14.894  1.00  0.00     0.168 HD
HETATM   11  C6  UNL     1      -7.876  31.308 -12.696  1.00  0.00     0.086 A
HETATM   12  N9  UNL     1      -9.033  29.154 -13.246  1.00  0.00    -0.321 N
HETATM   13  C16 UNL     1      -9.316  28.538 -14.474  1.00  0.00     0.275 A
ATOM     14  H9  UNL     1      -9.265  28.808 -12.315  1.00  0.00     0.169 HD
HETATM   15  O7  UNL     1      -9.902  27.462 -14.619  1.00  0.00    -0.266 OA
BRANCH   7  16
HETATM   16  O1  UNL     1      -6.632  33.080 -16.938  1.00  0.00    -0.329 OA
BRANCH  16  17
HETATM   17  C2  UNL     1      -6.915  33.895 -18.033  1.00  0.00     0.173 C
HETATM   18  C1  UNL     1      -5.769  34.058 -18.992  1.00  0.00     0.034 C
ENDBRANCH  16  17
ENDBRANCH   7  16
BRANCH   7  19
HETATM   19  O2  UNL     1      -7.608  31.262 -17.908  1.00  0.00    -0.339 OA
ATOM     20  H2  UNL     1      -8.542  31.115 -17.999  1.00  0.00     0.220 HD
ENDBRANCH   7  19
BRANCH   9  21
HETATM   21  O3  UNL     1      -6.760  33.370 -12.394  1.00  0.00    -0.346 OA
ATOM     22  H3  UNL     1      -6.295  33.130 -11.601  1.00  0.00     0.219 HD
ENDBRANCH   9  21
ENDBRANCH   1   3
BRANCH   1  23
HETATM   23  N3  UNL     1      -8.403  27.872 -17.295  1.00  0.00    -0.144 N
BRANCH  23  24
HETATM   24  O4  UNL     1      -9.253  27.172 -18.026  1.00  0.00    -0.266 OA
ATOM     25  H4  UNL     1      -9.536  27.628 -18.809  1.00  0.00     0.247 HD
ENDBRANCH  23  24
BRANCH  23  26
HETATM   26  C10 UNL     1      -7.096  27.823 -17.776  1.00  0.00     0.173 A
HETATM   27  N4  UNL     1      -6.185  28.630 -17.200  1.00  0.00    -0.325 N
HETATM   28  C11 UNL     1      -4.907  28.701 -17.588  1.00  0.00     0.145 A
ATOM     29  H4  UNL     1      -6.487  29.222 -16.425  1.00  0.00     0.169 HD
HETATM   30  N5  UNL     1      -4.000  29.580 -16.917  1.00  0.00    -0.081 NA
HETATM   31  C12 UNL     1      -4.458  27.930 -18.622  1.00  0.00     0.131 A
HETATM   32  N6  UNL     1      -3.107  27.952 -19.088  1.00  0.00    -0.095 NA
HETATM   33  C13 UNL     1      -5.362  27.055 -19.278  1.00  0.00     0.179 A
HETATM   34  C14 UNL     1      -6.690  27.034 -18.813  1.00  0.00     0.133 A
BRANCH  33  35
HETATM   35  N7  UNL     1      -4.975  26.392 -20.193  1.00  0.00    -0.330 NA
BRANCH  35  36
HETATM   36  N8  UNL     1      -4.552  25.725 -21.195  1.00  0.00    -0.280 N
ATOM     37  H82 UNL     1      -3.844  26.095 -20.561  1.00  0.00     0.191 HD
ATOM     38  H81 UNL     1      -4.251  25.186 -22.007  1.00  0.00     0.191 HD
ENDBRANCH  35  36
ENDBRANCH  33  35
BRANCH  34  39
HETATM   39  C15 UNL     1      -7.573  26.125 -19.493  1.00  0.00     0.217 C
HETATM   40  O5  UNL     1      -7.914  25.028 -18.984  1.00  0.00    -0.644 OA
HETATM   41  O6  UNL     1      -8.074  26.445 -20.744  1.00  0.00    -0.644 OA
ENDBRANCH  34  39
ENDBRANCH  23  26
ENDBRANCH   1  23
TORSDOF 11
ENDMDL