MODEL 1
REMARK VINA RESULT: -8.409498646      0.000      0.000
REMARK  11 active torsions:
REMARK  status: ('A' for Active; 'I' for Inactive)
REMARK    1  A    between atoms: C3_3  and  N1_4
REMARK    2  A    between atoms: N1_4  and  N2_6
REMARK    3  A    between atoms: N2_6  and  N3_8
REMARK    4  A    between atoms: N3_8  and  S1_10
REMARK    5  A    between atoms: S1_10  and  N4_13
REMARK    6  A    between atoms: N4_13  and  N5_15
REMARK    7  A    between atoms: N5_15  and  C4_17
REMARK    8  A    between atoms: C8_28  and  N10_29
REMARK    9  A    between atoms: N10_29  and  C9_31
REMARK   10  A    between atoms: C11_35  and  N12_36
REMARK   11  A    between atoms: N12_36  and  O3_38
ROOT
HETATM    1  C1  UNL     1      -4.436  27.329 -19.326  1.00  0.00     0.058 C
HETATM    2  C2  UNL     1      -5.744  27.639 -18.680  1.00  0.00     0.052 A
HETATM    3  C3  UNL     1      -6.937  27.109 -19.141  1.00  0.00     0.148 A
HETATM    4  N9  UNL     1      -8.092  27.419 -18.524  1.00  0.00    -0.175 N
ATOM      5  H9  UNL     1      -8.957  27.014 -18.882  1.00  0.00     0.186 HD
HETATM    6  C8  UNL     1      -8.158  28.237 -17.456  1.00  0.00     0.684 A
HETATM    7  N14 UNL     1      -6.993  28.750 -17.012  1.00  0.00    -0.156 N
ATOM      8  H14 UNL     1      -7.008  29.373 -16.204  1.00  0.00     0.187 HD
HETATM    9  C12 UNL     1      -5.811  28.473 -17.590  1.00  0.00     0.269 A
HETATM   10  O4  UNL     1      -4.730  28.965 -17.158  1.00  0.00    -0.267 OA
ENDROOT
BRANCH   3  11
HETATM   11  N1  UNL     1      -6.935  26.243 -20.260  1.00  0.00    -0.269 N
ATOM     12  H1  UNL     1      -6.585  25.291 -20.151  1.00  0.00     0.190 HD
BRANCH  11  13
HETATM   13  N2  UNL     1      -7.365  26.624 -21.414  1.00  0.00    -0.230 N
ATOM     14  H2  UNL     1      -8.362  26.718 -21.611  1.00  0.00     0.209 HD
BRANCH  13  15
HETATM   15  N3  UNL     1      -6.401  26.901 -22.373  1.00  0.00    -0.194 N
ATOM     16  H3  UNL     1      -6.270  27.859 -22.698  1.00  0.00     0.203 HD
BRANCH  15  17
HETATM   17  S1  UNL     1      -5.436  25.647 -23.009  1.00  0.00     0.351 S
HETATM   18  O1  UNL     1      -3.957  25.946 -22.870  1.00  0.00    -0.179 OA
HETATM   19  O2  UNL     1      -5.687  24.326 -22.339  1.00  0.00    -0.179 OA
BRANCH  17  20
HETATM   20  N4  UNL     1      -5.778  25.500 -24.700  1.00  0.00    -0.207 N
ATOM     21  H4  UNL     1      -5.378  26.064 -25.450  1.00  0.00     0.201 HD
BRANCH  20  22
HETATM   22  N5  UNL     1      -6.703  24.465 -24.844  1.00  0.00    -0.278 N
ATOM     23  H5  UNL     1      -7.551  24.464 -24.276  1.00  0.00     0.189 HD
BRANCH  22  24
HETATM   24  C4  UNL     1      -6.473  23.392 -25.791  1.00  0.00     0.103 A
HETATM   25  N6  UNL     1      -7.452  22.806 -26.343  1.00  0.00    -0.319 N
HETATM   26  C5  UNL     1      -7.271  21.739 -27.287  1.00  0.00     0.193 A
ATOM     27  H6  UNL     1      -8.401  23.102 -26.109  1.00  0.00     0.169 HD
HETATM   28  N7  UNL     1      -8.355  21.078 -27.909  1.00  0.00    -0.063 NA
HETATM   29  N8  UNL     1      -6.076  21.398 -27.550  1.00  0.00    -0.344 N
HETATM   30  C6  UNL     1      -4.894  21.949 -27.021  1.00  0.00     0.071 A
ATOM     31  H8  UNL     1      -5.959  20.639 -28.222  1.00  0.00     0.167 HD
HETATM   32  C7  UNL     1      -5.084  23.055 -26.052  1.00  0.00     0.122 A
ENDBRANCH  22  24
ENDBRANCH  20  22
ENDBRANCH  17  20
ENDBRANCH  15  17
ENDBRANCH  13  15
ENDBRANCH  11  13
ENDBRANCH   3  11
BRANCH   6  33
HETATM   33  N10 UNL     1      -9.300  28.486 -16.921  1.00  0.00    -0.203 N
ATOM     34  H10 UNL     1     -10.143  28.183 -17.410  1.00  0.00     0.180 HD
BRANCH  33  35
HETATM   35  C9  UNL     1      -9.445  29.176 -15.655  1.00  0.00     0.234 C
HETATM   36  C10 UNL     1     -10.365  28.439 -14.715  1.00  0.00     0.186 C
HETATM   37  N11 UNL     1     -11.062  29.516 -14.051  1.00  0.00    -0.221 N
HETATM   38  C11 UNL     1     -10.987  30.636 -14.909  1.00  0.00     0.695 C
ATOM     39  H11 UNL     1     -11.519  29.477 -13.140  1.00  0.00     0.177 HD
HETATM   40  N13 UNL     1     -10.088  30.459 -15.810  1.00  0.00    -0.201 N
ATOM     41  H13 UNL     1      -9.859  31.135 -16.538  1.00  0.00     0.180 HD
BRANCH  38  42
HETATM   42  N12 UNL     1     -11.762  31.847 -14.862  1.00  0.00    -0.099 N
ATOM     43  H12 UNL     1     -11.467  32.667 -15.391  1.00  0.00     0.213 HD
BRANCH  42  44
HETATM   44  O3  UNL     1     -12.884  31.889 -14.110  1.00  0.00    -0.276 OA
ATOM     45  H3  UNL     1     -12.881  32.372 -13.292  1.00  0.00     0.245 HD
ENDBRANCH  42  44
ENDBRANCH  38  42
ENDBRANCH  33  35
ENDBRANCH   6  33
TORSDOF 11
ENDMDL