MODEL 3
REMARK VINA RESULT: -7.209272034      1.473      2.120
REMARK  14 active torsions:
REMARK  status: ('A' for Active; 'I' for Inactive)
REMARK    1  A    between atoms: C3_3  and  O1_4
REMARK    2  A    between atoms: C6_9  and  O3_10
REMARK    3  A    between atoms: C6_9  and  O4_12
REMARK    4  A    between atoms: C7_14  and  O5_15
REMARK    5  A    between atoms: C8_17  and  O6_18
REMARK    6  A    between atoms: C9_20  and  C10_21
REMARK    7  A    between atoms: C10_21  and  O7_22
REMARK    8  A    between atoms: O7_22  and  C11_23
REMARK    9  A    between atoms: C11_23  and  C12_25
REMARK   10  A    between atoms: C13_26  and  C14_28
REMARK   11  A    between atoms: N2_29  and  C15_31
REMARK   12  A    between atoms: C15_31  and  N3_32
REMARK   13  A    between atoms: C15_31  and  O9_36
REMARK   14  A    between atoms: C16_39  and  O11_41
ROOT
HETATM    1  C1  UNL     1      -6.057  28.014 -13.404  1.00  0.00     0.020 C
HETATM    2  C2  UNL     1      -5.635  27.396 -14.695  1.00  0.00     0.098 C
HETATM    3  C3  UNL     1      -4.573  28.168 -15.432  1.00  0.00     0.265 C
HETATM    4  O2  UNL     1      -5.065  28.858 -16.524  1.00  0.00    -0.360 OA
HETATM    5  C4  UNL     1      -5.501  30.120 -16.317  1.00  0.00     0.184 C
HETATM    6  C5  UNL     1      -6.903  30.240 -16.843  1.00  0.00     0.114 C
HETATM    7  C6  UNL     1      -7.810  31.056 -15.979  1.00  0.00     0.197 C
HETATM    8  C7  UNL     1      -9.107  30.293 -16.019  1.00  0.00     0.212 C
HETATM    9  C8  UNL     1      -9.010  29.375 -17.223  1.00  0.00     0.189 C
HETATM   10  C9  UNL     1      -7.550  28.882 -17.044  1.00  0.00     0.125 C
HETATM   11  O10 UNL     1      -7.533  28.164 -15.969  1.00  0.00    -0.339 OA
HETATM   12  C16 UNL     1      -6.842  27.126 -15.611  1.00  0.00     0.167 C
HETATM   13  C17 UNL     1      -7.738  26.219 -14.764  1.00  0.00     0.079 C
ENDROOT
BRANCH  10  14
HETATM   14  C10 UNL     1      -7.162  28.370 -18.375  1.00  0.00     0.220 C
BRANCH  14  15
HETATM   15  O7  UNL     1      -7.988  27.237 -18.698  1.00  0.00    -0.315 OA
BRANCH  15  16
HETATM   16  C11 UNL     1      -7.455  26.118 -19.342  1.00  0.00     0.284 C
HETATM   17  O8  UNL     1      -8.042  25.042 -19.108  1.00  0.00    -0.260 OA
BRANCH  16  18
HETATM   18  C12 UNL     1      -6.318  26.171 -20.214  1.00  0.00     0.110 C
HETATM   19  C13 UNL     1      -6.448  26.568 -21.477  1.00  0.00     0.067 C
HETATM   20  N1  UNL     1      -7.735  26.931 -21.923  1.00  0.00    -0.101 NA
BRANCH  19  21
HETATM   21  C14 UNL     1      -5.242  26.589 -22.287  1.00  0.00     0.113 C
HETATM   22  N2  UNL     1      -4.815  25.780 -23.115  1.00  0.00    -0.350 N
ATOM     23  H2  UNL     1      -3.930  26.055 -23.540  1.00  0.00     0.163 HD
BRANCH  22  24
HETATM   24  C15 UNL     1      -5.310  24.562 -23.583  1.00  0.00     0.423 C
BRANCH  24  25
HETATM   25  N3  UNL     1      -6.443  24.714 -24.489  1.00  0.00    -0.035 N
ATOM     26  H33 UNL     1      -6.149  24.602 -25.460  1.00  0.00     0.279 HD
ATOM     27  H32 UNL     1      -7.078  23.919 -24.414  1.00  0.00     0.279 HD
ATOM     28  H31 UNL     1      -6.943  25.593 -24.360  1.00  0.00     0.279 HD
ENDBRANCH  24  25
BRANCH  24  29
HETATM   29  O9  UNL     1      -5.565  23.584 -22.615  1.00  0.00    -0.355 OA
ATOM     30  H9  UNL     1      -6.225  23.798 -21.966  1.00  0.00     0.213 HD
ENDBRANCH  24  29
ENDBRANCH  22  24
ENDBRANCH  19  21
ENDBRANCH  16  18
ENDBRANCH  15  16
ENDBRANCH  14  15
ENDBRANCH  10  14
BRANCH   9  31
HETATM   31  O6  UNL     1      -9.842  28.274 -17.100  1.00  0.00    -0.390 OA
ATOM     32  H6  UNL     1      -9.746  27.675 -17.830  1.00  0.00     0.210 HD
ENDBRANCH   9  31
BRANCH   7  33
HETATM   33  O3  UNL     1      -8.023  32.314 -16.536  1.00  0.00    -0.363 OA
ATOM     34  H3  UNL     1      -8.171  32.248 -17.472  1.00  0.00     0.213 HD
ENDBRANCH   7  33
BRANCH   7  35
HETATM   35  O4  UNL     1      -7.340  31.253 -14.692  1.00  0.00    -0.363 OA
ATOM     36  H4  UNL     1      -7.701  30.652 -14.051  1.00  0.00     0.213 HD
ENDBRANCH   7  35
BRANCH   8  37
HETATM   37  O5  UNL     1     -10.217  31.113 -16.166  1.00  0.00    -0.387 OA
ATOM     38  H5  UNL     1     -10.222  31.591 -16.988  1.00  0.00     0.210 HD
ENDBRANCH   8  37
BRANCH  12  39
HETATM   39  O11 UNL     1      -6.364  26.262 -16.598  1.00  0.00    -0.365 OA
ATOM     40  H11 UNL     1      -5.551  25.915 -16.251  1.00  0.00     0.213 HD
ENDBRANCH  12  39
BRANCH   3  41
HETATM   41  O1  UNL     1      -3.739  28.881 -14.616  1.00  0.00    -0.371 OA
ATOM     42  H1  UNL     1      -3.096  29.402 -15.082  1.00  0.00     0.212 HD
ENDBRANCH   3  41
TORSDOF 14
ENDMDL