MODEL 5
REMARK VINA RESULT: -5.927208750      3.144      5.677
REMARK  14 active torsions:
REMARK  status: ('A' for Active; 'I' for Inactive)
REMARK    1  A    between atoms: C2_2  and  O2_4
REMARK    2  A    between atoms: O2_4  and  C3_5
REMARK    3  A    between atoms: C4_7  and  O4_8
REMARK    4  A    between atoms: O4_8  and  C5_9
REMARK    5  A    between atoms: C7_11  and  O5_12
REMARK    6  A    between atoms: O5_12  and  C8_13
REMARK    7  A    between atoms: C9_14  and  O6_15
REMARK    8  A    between atoms: C10_17  and  N1_18
REMARK    9  A    between atoms: C12_23  and  N2_24
REMARK   10  A    between atoms: C13_28  and  O7_29
REMARK   11  A    between atoms: C14_31  and  N3_32
REMARK   12  A    between atoms: C16_37  and  N4_38
REMARK   13  A    between atoms: C17_43  and  N5_44
REMARK   14  A    between atoms: C18_48  and  O9_49
ROOT
HETATM    1  C5  UNL     1      -8.296  30.319 -16.112  1.00  0.00     0.160 C
HETATM    2  C6  UNL     1      -8.123  29.170 -17.026  1.00  0.00     0.068 C
HETATM    3  C7  UNL     1      -8.741  27.871 -16.521  1.00  0.00     0.155 C
HETATM    4  C14 UNL     1      -8.517  27.850 -15.017  1.00  0.00     0.214 C
HETATM    5  C15 UNL     1      -9.246  28.939 -14.306  1.00  0.00     0.070 C
HETATM    6  C16 UNL     1      -9.438  30.182 -15.141  1.00  0.00     0.214 C
ENDROOT
BRANCH   3   7
HETATM    7  O5  UNL     1      -7.994  26.849 -17.031  1.00  0.00    -0.373 OA
BRANCH   7   8
HETATM    8  C8  UNL     1      -7.228  27.062 -18.121  1.00  0.00     0.183 C
HETATM    9  C9  UNL     1      -5.780  26.748 -18.031  1.00  0.00     0.180 C
HETATM   10  C10 UNL     1      -5.057  27.645 -19.050  1.00  0.00     0.216 C
HETATM   11  C11 UNL     1      -5.791  27.639 -20.373  1.00  0.00     0.071 C
HETATM   12  C12 UNL     1      -6.737  26.477 -20.500  1.00  0.00     0.216 C
HETATM   13  C13 UNL     1      -7.746  26.394 -19.383  1.00  0.00     0.180 C
BRANCH   9  14
HETATM   14  O6  UNL     1      -5.190  26.969 -16.822  1.00  0.00    -0.391 OA
ATOM     15  H6  UNL     1      -4.294  26.666 -16.730  1.00  0.00     0.210 HD
ENDBRANCH   9  14
BRANCH  10  16
HETATM   16  N1  UNL     1      -3.670  27.310 -19.166  1.00  0.00    -0.072 N
ATOM     17  H13 UNL     1      -3.486  26.369 -18.818  1.00  0.00     0.274 HD
ATOM     18  H12 UNL     1      -3.401  27.176 -20.140  1.00  0.00     0.274 HD
ATOM     19  H11 UNL     1      -3.073  27.998 -18.707  1.00  0.00     0.274 HD
ENDBRANCH  10  16
BRANCH  12  20
HETATM   20  N2  UNL     1      -7.380  26.571 -21.797  1.00  0.00    -0.072 N
ATOM     21  H23 UNL     1      -7.072  27.382 -22.334  1.00  0.00     0.274 HD
ATOM     22  H22 UNL     1      -7.065  25.851 -22.448  1.00  0.00     0.274 HD
ATOM     23  H21 UNL     1      -8.388  26.556 -21.646  1.00  0.00     0.274 HD
ENDBRANCH  12  20
BRANCH  13  24
HETATM   24  O7  UNL     1      -8.016  25.044 -19.174  1.00  0.00    -0.391 OA
ATOM     25  H7  UNL     1      -7.597  24.499 -19.829  1.00  0.00     0.210 HD
ENDBRANCH  13  24
ENDBRANCH   7   8
ENDBRANCH   3   7
BRANCH   4  26
HETATM   26  N3  UNL     1      -7.085  27.884 -14.786  1.00  0.00    -0.072 N
ATOM     27  H33 UNL     1      -6.623  28.659 -15.265  1.00  0.00     0.274 HD
ATOM     28  H32 UNL     1      -6.842  28.153 -13.832  1.00  0.00     0.274 HD
ATOM     29  H31 UNL     1      -6.709  26.974 -15.051  1.00  0.00     0.274 HD
ENDBRANCH   4  26
BRANCH   1  30
HETATM   30  O4  UNL     1      -8.453  31.540 -16.762  1.00  0.00    -0.331 OA
BRANCH  30  31
HETATM   31  C4  UNL     1      -7.276  32.093 -17.185  1.00  0.00     0.417 C
HETATM   32  O3  UNL     1      -7.240  32.253 -18.568  1.00  0.00    -0.305 OA
HETATM   33  C3  UNL     1      -6.316  31.385 -19.147  1.00  0.00     0.307 C
HETATM   34  C18 UNL     1      -4.895  31.743 -18.689  1.00  0.00     0.230 C
HETATM   35  C17 UNL     1      -4.989  31.953 -17.191  1.00  0.00     0.356 C
HETATM   36  O8  UNL     1      -6.153  31.431 -16.699  1.00  0.00    -0.303 OA
BRANCH  33  37
HETATM   37  O2  UNL     1      -6.318  31.495 -20.557  1.00  0.00    -0.287 OA
BRANCH  37  38
HETATM   38  C2  UNL     1      -6.628  32.699 -21.194  1.00  0.00     0.257 C
HETATM   39  C1  UNL     1      -5.601  33.778 -21.342  1.00  0.00     0.126 C
HETATM   40  O1  UNL     1      -7.803  32.816 -21.626  1.00  0.00    -0.266 OA
ENDBRANCH  37  38
ENDBRANCH  33  37
BRANCH  34  41
HETATM   41  O9  UNL     1      -4.080  30.691 -19.034  1.00  0.00    -0.386 OA
ATOM     42  H9  UNL     1      -4.458  30.285 -19.805  1.00  0.00     0.210 HD
ENDBRANCH  34  41
BRANCH  35  43
HETATM   43  N5  UNL     1      -4.770  33.332 -16.826  1.00  0.00    -0.050 N
ATOM     44  H53 UNL     1      -5.313  33.954 -17.427  1.00  0.00     0.277 HD
ATOM     45  H52 UNL     1      -5.206  33.540 -15.927  1.00  0.00     0.277 HD
ATOM     46  H51 UNL     1      -3.788  33.606 -16.822  1.00  0.00     0.277 HD
ENDBRANCH  35  43
ENDBRANCH  30  31
ENDBRANCH   1  30
BRANCH   6  47
HETATM   47  N4  UNL     1      -9.663  31.364 -14.366  1.00  0.00    -0.072 N
ATOM     48  H43 UNL     1      -8.846  31.584 -13.795  1.00  0.00     0.274 HD
ATOM     49  H42 UNL     1      -9.679  32.192 -14.961  1.00  0.00     0.274 HD
ATOM     50  H41 UNL     1     -10.504  31.313 -13.792  1.00  0.00     0.274 HD
ENDBRANCH   6  47
TORSDOF 14
ENDMDL