MODEL 1
REMARK VINA RESULT: -4.500864193      0.000      0.000
REMARK  1 active torsions:
REMARK  status: ('A' for Active; 'I' for Inactive)
REMARK    1  A    between atoms: C6_8  and  O1_9
ROOT
HETATM    1  C1  UNL     1      22.275  16.642  42.402  1.00  0.00     0.310 C
HETATM    2  N1  UNL     1      21.173  16.500  43.368  1.00  0.00     0.092 N
HETATM    3  C2  UNL     1      21.677  16.613  44.687  1.00  0.00     0.308 C
HETATM    4  C3  UNL     1      20.937  17.472  45.625  1.00  0.00     0.256 C
HETATM    5  C4  UNL     1      19.976  16.721  46.532  1.00  0.00     0.058 C
HETATM    6  C5  UNL     1      18.602  16.984  45.983  1.00  0.00     0.126 C
HETATM    7 BR1  UNL     1      17.736  15.332  45.513  1.00  0.00    -0.086 Br
HETATM    8  C6  UNL     1      18.799  17.903  44.827  1.00  0.00     0.274 C
HETATM    9  C7  UNL     1      18.827  17.228  43.495  1.00  0.00     0.110 C
HETATM   10  C8  UNL     1      20.198  17.478  42.991  1.00  0.00     0.255 C
HETATM   11  C9  UNL     1      20.580  18.784  43.684  1.00  0.00     0.313 C
HETATM   12  N2  UNL     1      20.122  18.488  45.040  1.00  0.00     0.133 N
ENDROOT
BRANCH   8  13
HETATM   13  O1  UNL     1      17.865  18.959  44.857  1.00  0.00    -0.362 OA
ATOM     14  H1  UNL     1      17.137  18.784  44.273  1.00  0.00     0.212 HD
ENDBRANCH   8  13
TORSDOF 1
ENDMDL