MODEL 4
REMARK VINA RESULT: 0.102729430      2.467      4.257
REMARK  1 active torsions:
REMARK  status: ('A' for Active; 'I' for Inactive)
REMARK    1  A    between atoms: C7_9  and  O1_11
ROOT
HETATM    1  C1  UNL     1      20.611  15.154  48.143  1.00  0.00     0.310 C
HETATM    2  N1  UNL     1      20.816  16.203  47.203  1.00  0.00     0.088 N
HETATM    3  C2  UNL     1      21.144  15.692  45.886  1.00  0.00     0.300 C
HETATM    4  C3  UNL     1      21.132  16.882  44.933  1.00  0.00     0.269 C
HETATM    5  N2  UNL     1      19.751  17.302  44.644  1.00  0.00    -0.046 N
HETATM    6  C4  UNL     1      19.770  18.764  44.713  1.00  0.00     0.239 C
HETATM    7  C5  UNL     1      19.154  19.394  43.477  1.00  0.00     0.031 C
HETATM    8  C6  UNL     1      20.020  18.984  42.309  1.00  0.00     0.041 C
HETATM    9  C7  UNL     1      19.885  17.484  42.178  1.00  0.00     0.078 C
HETATM   10  C8  UNL     1      18.887  17.263  41.026  1.00  0.00     0.047 C
HETATM   11  C9  UNL     1      19.333  16.809  43.369  1.00  0.00     0.275 C
HETATM   12  C10 UNL     1      18.951  16.847  45.730  1.00  0.00     0.226 A
HETATM   13  C11 UNL     1      19.707  17.103  47.043  1.00  0.00     0.317 C
HETATM   14  C12 UNL     1      17.522  17.223  45.722  1.00  0.00     0.129 A
HETATM   15  C13 UNL     1      17.976  15.789  45.738  1.00  0.00     0.281 A
HETATM   16  F1  UNL     1      17.681  14.952  44.695  1.00  0.00    -0.203 F
HETATM   17  F2  UNL     1      17.715  15.165  46.967  1.00  0.00    -0.203 F
ENDROOT
BRANCH   9  18
HETATM   18  O1  UNL     1      21.085  16.980  41.702  1.00  0.00    -0.389 OA
ATOM     19  H1  UNL     1      21.390  17.548  41.003  1.00  0.00     0.210 HD
ENDBRANCH   9  18
TORSDOF 1
ENDMDL