MODEL 4
REMARK VINA RESULT: -4.138624368      1.755      2.340
REMARK  3 active torsions:
REMARK  status: ('A' for Active; 'I' for Inactive)
REMARK    1  A    between atoms: O1_1  and  C1_3
REMARK    2  A    between atoms: C1_3  and  C2_4
REMARK    3  A    between atoms: C3_5  and  C4_6
ROOT
HETATM    1  C1  UNL     1      19.639  16.595  45.626  1.00  0.00     0.328 C
HETATM    2  C5  UNL     1      20.079  18.066  45.599  1.00  0.00     0.069 C
HETATM    3  C6  UNL     1      19.213  18.593  44.496  1.00  0.00     0.041 C
HETATM    4  C7  UNL     1      19.087  17.383  43.582  1.00  0.00     0.278 C
HETATM    5  N1  UNL     1      19.879  16.320  44.199  1.00  0.00     0.136 N
HETATM    6  C8  UNL     1      21.270  16.721  44.078  1.00  0.00     0.278 C
HETATM    7  C9  UNL     1      21.471  17.888  45.039  1.00  0.00     0.041 C
ENDROOT
BRANCH   1   8
HETATM    8  O1  UNL     1      20.480  15.850  46.414  1.00  0.00    -0.353 OA
ATOM      9  H1  UNL     1      21.234  15.479  45.971  1.00  0.00     0.213 HD
ENDBRANCH   1   8
BRANCH   1  10
HETATM   10  C2  UNL     1      18.250  16.535  45.976  1.00  0.00    -0.035 C
HETATM   11  C3  UNL     1      17.085  16.465  46.273  1.00  0.00    -0.091 C
BRANCH  11  12
HETATM   12  C4  UNL     1      15.659  16.354  46.642  1.00  0.00     0.179 C
HETATM   13 BR1  UNL     1      15.484  15.149  48.139  1.00  0.00    -0.083 Br
ENDBRANCH  11  12
ENDBRANCH   1  10
TORSDOF 3
ENDMDL