MODEL 4
REMARK VINA RESULT: -1.169488069      2.791      4.110
REMARK  1 active torsions:
REMARK  status: ('A' for Active; 'I' for Inactive)
REMARK    1  A    between atoms: C10_13  and  O2_14
ROOT
HETATM    1  C1  UNL     1      19.695  17.484  46.780  1.00  0.00     0.272 C
HETATM    2  N1  UNL     1      19.084  16.880  45.598  1.00  0.00    -0.070 N
HETATM    3  C2  UNL     1      17.917  16.131  46.163  1.00  0.00     0.272 C
HETATM    4  C3  UNL     1      19.837  15.793  45.084  1.00  0.00     0.237 C
HETATM    5  C4  UNL     1      21.189  16.006  44.556  1.00  0.00     0.039 C
HETATM    6  C5  UNL     1      21.173  16.703  43.233  1.00  0.00     0.060 C
HETATM    7  C6  UNL     1      22.130  17.901  43.204  1.00  0.00     0.223 C
HETATM    8 CL1  UNL     1      23.311  17.821  41.915  1.00  0.00    -0.095 Cl
HETATM    9  O1  UNL     1      21.318  19.012  42.987  1.00  0.00    -0.370 OA
HETATM   10  C7  UNL     1      20.735  19.275  44.253  1.00  0.00     0.177 C
HETATM   11  C8  UNL     1      19.283  18.989  44.126  1.00  0.00     0.050 A
HETATM   12  C9  UNL     1      18.878  17.855  43.319  1.00  0.00     0.054 A
HETATM   13  C10 UNL     1      19.849  17.002  42.676  1.00  0.00     0.132 C
HETATM   14  C11 UNL     1      18.567  17.839  44.711  1.00  0.00     0.203 A
ENDROOT
BRANCH  13  15
HETATM   15  O2  UNL     1      20.083  17.521  41.369  1.00  0.00    -0.395 OA
ATOM     16  H2  UNL     1      20.505  18.363  41.494  1.00  0.00     0.210 HD
ENDBRANCH  13  15
TORSDOF 1
ENDMDL