MODEL 5
REMARK VINA RESULT: -3.657168237      3.124      5.349
REMARK  2 active torsions:
REMARK  status: ('A' for Active; 'I' for Inactive)
REMARK    1  A    between atoms: N2_5  and  C4_6
REMARK    2  A    between atoms: C4_6  and  N3_8
ROOT
HETATM    1  C1  UNL     1      20.768  15.120  47.595  1.00  0.00     0.312 C
HETATM    2  N1  UNL     1      20.100  16.070  46.737  1.00  0.00     0.114 N
HETATM    3  C2  UNL     1      20.884  17.286  46.703  1.00  0.00     0.294 C
HETATM    4  C3  UNL     1      21.583  17.249  45.360  1.00  0.00     0.155 C
HETATM    5  N2  UNL     1      20.564  17.407  44.351  1.00  0.00    -0.354 N
HETATM    6  C5  UNL     1      19.164  17.763  44.377  1.00  0.00     0.155 C
HETATM    7  C6  UNL     1      18.288  16.620  44.812  1.00  0.00     0.294 C
HETATM    8  N4  UNL     1      17.850  16.752  46.193  1.00  0.00     0.114 N
HETATM    9  C7  UNL     1      16.619  15.986  46.298  1.00  0.00     0.312 C
HETATM   10  C8  UNL     1      18.761  16.232  47.151  1.00  0.00     0.541 C
ENDROOT
BRANCH   5  11
HETATM   11  C4  UNL     1      21.071  17.151  43.025  1.00  0.00     0.184 C
HETATM   12  S1  UNL     1      20.069  17.256  41.747  1.00  0.00    -0.040 SA
BRANCH  11  13
HETATM   13  N3  UNL     1      22.420  16.813  42.821  1.00  0.00    -0.275 N
HETATM   14 CL1  UNL     1      23.473  17.904  41.992  1.00  0.00     0.013 Cl
ATOM     15  H3  UNL     1      22.778  15.921  43.163  1.00  0.00     0.183 HD
ENDBRANCH  11  13
ENDBRANCH   5  11
TORSDOF 2
ENDMDL