MODEL 1
REMARK VINA RESULT: -5.438927254      0.000      0.000
REMARK  0 active torsions:
REMARK  status: ('A' for Active; 'I' for Inactive)
REMARK       I    between atoms: C3_5  and  N3_7
ROOT
HETATM    1  C1  UNL     1      16.860  13.725  48.037  1.00  0.00     0.123 C
HETATM    2  C2  UNL     1      17.687  14.465  47.524  1.00  0.00    -0.073 C
HETATM    3  N1  UNL     1      18.647  15.297  46.945  1.00  0.00    -0.300 N
ATOM      4  H1  UNL     1      19.571  15.363  47.371  1.00  0.00     0.178 HD
HETATM    5  C3  UNL     1      18.396  15.972  45.901  1.00  0.00     0.198 C
HETATM    6  N2  UNL     1      17.077  15.853  45.324  1.00  0.00    -0.063 NA
HETATM    7  N3  UNL     1      19.329  16.836  45.265  1.00  0.00    -0.342 N
HETATM    8  C4  UNL     1      20.730  16.493  45.287  1.00  0.00     0.128 C
HETATM    9  C5  UNL     1      21.371  16.909  43.971  1.00  0.00     0.035 C
HETATM   10  C6  UNL     1      21.041  18.387  43.793  1.00  0.00     0.106 C
HETATM   11  N4  UNL     1      19.624  18.465  43.519  1.00  0.00    -0.233 NA
HETATM   12 BR1  UNL     1      19.184  17.588  41.921  1.00  0.00     0.014 Br
HETATM   13  C7  UNL     1      18.811  18.021  44.626  1.00  0.00     0.229 C
ENDROOT
TORSDOF 0
ENDMDL