MODEL 3
REMARK VINA RESULT: -5.180384298      2.214      5.345
REMARK  2 active torsions:
REMARK  status: ('A' for Active; 'I' for Inactive)
REMARK    1  A    between atoms: N2_5  and  C4_6
REMARK    2  A    between atoms: C4_6  and  N3_8
ROOT
HETATM    1  C1  UNL     1      15.294  15.120  48.277  1.00  0.00     0.310 C
HETATM    2  N1  UNL     1      16.133  15.271  47.115  1.00  0.00     0.087 N
HETATM    3  C2  UNL     1      16.446  16.627  46.804  1.00  0.00     0.291 C
HETATM    4  C3  UNL     1      17.394  16.609  45.605  1.00  0.00     0.155 C
HETATM    5  N2  UNL     1      18.650  16.077  46.095  1.00  0.00    -0.355 N
HETATM    6  C6  UNL     1      18.586  15.068  47.132  1.00  0.00     0.155 C
HETATM    7  C7  UNL     1      17.228  14.362  47.062  1.00  0.00     0.291 C
ENDROOT
BRANCH   5   8
HETATM    8  C4  UNL     1      19.909  16.498  45.607  1.00  0.00     0.175 C
HETATM    9  S1  UNL     1      21.026  17.095  46.623  1.00  0.00    -0.041 SA
BRANCH   8  10
HETATM   10  N3  UNL     1      20.160  16.386  44.228  1.00  0.00    -0.312 N
HETATM   11  C5  UNL     1      20.147  17.427  43.477  1.00  0.00     0.190 C
HETATM   12  N4  UNL     1      20.405  17.253  42.101  1.00  0.00    -0.069 NA
HETATM   13 CL1  UNL     1      19.819  18.982  44.160  1.00  0.00    -0.048 Cl
ATOM     14  H3  UNL     1      20.354  15.470  43.822  1.00  0.00     0.170 HD
ENDBRANCH   8  10
ENDBRANCH   5   8
TORSDOF 2
ENDMDL