MODEL 4
REMARK VINA RESULT: -2.281464754      2.505      3.524
REMARK  1 active torsions:
REMARK  status: ('A' for Active; 'I' for Inactive)
REMARK    1  A    between atoms: C10_13  and  O1_14
ROOT
HETATM    1  C1  UNL     1      21.207  17.610  46.244  1.00  0.00     0.274 C
HETATM    2  N1  UNL     1      20.926  17.263  44.863  1.00  0.00    -0.044 N
HETATM    3  C2  UNL     1      21.642  16.084  44.449  1.00  0.00     0.242 C
HETATM    4  C3  UNL     1      22.804  16.396  43.538  1.00  0.00     0.080 C
HETATM    5  C4  UNL     1      22.312  17.212  42.343  1.00  0.00     0.323 C
HETATM    6 CL1  UNL     1      23.680  18.254  41.874  1.00  0.00    -0.092 Cl
HETATM    7  N2  UNL     1      21.227  18.063  42.698  1.00  0.00     0.142 N
HETATM    8  C5  UNL     1      21.255  18.432  44.069  1.00  0.00     0.510 C
HETATM    9  C6  UNL     1      19.943  17.676  42.279  1.00  0.00     0.170 C
HETATM   10  C7  UNL     1      19.060  17.034  43.273  1.00  0.00     0.070 C
HETATM   11  C8  UNL     1      19.519  17.008  44.679  1.00  0.00     0.241 C
HETATM   12  C9  UNL     1      19.832  17.024  40.914  1.00  0.00     0.073 C
HETATM   13  C10 UNL     1      18.585  17.883  40.700  1.00  0.00     0.123 C
HETATM   14  C11 UNL     1      19.225  18.887  41.653  1.00  0.00     0.073 C
ENDROOT
BRANCH  13  15
HETATM   15  O1  UNL     1      18.455  18.403  39.438  1.00  0.00    -0.395 OA
ATOM     16  H1  UNL     1      17.562  18.448  39.117  1.00  0.00     0.210 HD
ENDBRANCH  13  15
TORSDOF 1
ENDMDL