MODEL 2
REMARK VINA RESULT: -5.391803412      1.491      2.222
REMARK  3 active torsions:
REMARK  status: ('A' for Active; 'I' for Inactive)
REMARK    1  A    between atoms: N1_5  and  C5_6
REMARK    2  A    between atoms: C5_6  and  N2_8
REMARK    3  A    between atoms: C8_11  and  N3_12
ROOT
HETATM    1  C1  UNL     1      23.612  18.115  41.880  1.00  0.00     0.012 C
HETATM    2  C2  UNL     1      22.578  17.499  42.030  1.00  0.00    -0.108 C
HETATM    3  C3  UNL     1      21.338  16.733  42.200  1.00  0.00     0.117 C
HETATM    4  C4  UNL     1      21.280  16.207  43.595  1.00  0.00     0.145 C
HETATM    5  N1  UNL     1      20.278  16.986  44.266  1.00  0.00    -0.354 N
HETATM    6  C10 UNL     1      19.847  18.118  43.427  1.00  0.00     0.164 C
HETATM    7  C11 UNL     1      20.153  17.636  42.024  1.00  0.00     0.205 C
HETATM    8  F1  UNL     1      19.076  16.969  41.532  1.00  0.00    -0.246 F
ENDROOT
BRANCH   5   9
HETATM    9  C5  UNL     1      19.740  16.749  45.556  1.00  0.00     0.172 C
HETATM   10  S1  UNL     1      20.861  16.740  46.803  1.00  0.00    -0.041 SA
BRANCH   9  11
HETATM   11  N2  UNL     1      18.379  16.528  45.867  1.00  0.00    -0.356 N
HETATM   12  C6  UNL     1      17.260  17.403  45.669  1.00  0.00     0.127 C
HETATM   13  C7  UNL     1      16.024  16.558  46.084  1.00  0.00     0.054 C
HETATM   14  C8  UNL     1      16.678  15.766  47.198  1.00  0.00     0.203 C
HETATM   15  C9  UNL     1      17.905  15.287  46.461  1.00  0.00     0.158 C
BRANCH  14  16
HETATM   16  N3  UNL     1      15.858  14.713  47.697  1.00  0.00    -0.073 N
ATOM     17  H33 UNL     1      15.298  14.302  46.950  1.00  0.00     0.274 HD
ATOM     18  H32 UNL     1      16.423  13.902  47.949  1.00  0.00     0.274 HD
ATOM     19  H31 UNL     1      15.266  14.998  48.477  1.00  0.00     0.274 HD
ENDBRANCH  14  16
ENDBRANCH   9  11
ENDBRANCH   5   9
TORSDOF 3
ENDMDL