MODEL 4
REMARK VINA RESULT: -6.102333482      1.059      1.299
REMARK  7 active torsions:
REMARK  status: ('A' for Active; 'I' for Inactive)
REMARK    1  A    between atoms: C2_2  and  N1_3
REMARK    2  A    between atoms: N1_3  and  C3_4
REMARK    3  A    between atoms: C8_12  and  N3_13
REMARK    4  A    between atoms: N3_13  and  N4_15
REMARK    5  A    between atoms: N4_15  and  N5_16
REMARK    6  A    between atoms: C9_19  and  O1_20
REMARK    7  A    between atoms: C10_22  and  O2_23
ROOT
HETATM    1  N1  UNL     1      32.340  -0.193  78.295  1.00  0.00    -0.046 N
HETATM    2  C5  UNL     1      32.553  -1.096  77.211  1.00  0.00     0.287 A
HETATM    3  C6  UNL     1      33.703  -0.561  78.016  1.00  0.00     0.221 A
HETATM    4  C7  UNL     1      34.689   0.349  77.464  1.00  0.00     0.049 C
HETATM    5  N2  UNL     1      34.629   1.538  77.007  1.00  0.00    -0.402 N
ATOM      6  H21 UNL     1      35.322   2.178  76.618  1.00  0.00     0.155 HD
ATOM      7  H22 UNL     1      33.733   2.026  76.991  1.00  0.00     0.155 HD
HETATM    8  C8  UNL     1      35.999  -0.364  77.488  1.00  0.00     0.193 C
HETATM    9  C9  UNL     1      35.752  -1.723  78.029  1.00  0.00     0.180 C
HETATM   10  C10 UNL     1      34.421  -1.619  78.792  1.00  0.00     0.193 C
ENDROOT
BRANCH   1  11
HETATM   11  C2  UNL     1      31.853   1.126  78.124  1.00  0.00     0.234 C
HETATM   12  C1  UNL     1      31.086   1.436  76.894  1.00  0.00     0.035 C
ENDBRANCH   1  11
BRANCH   1  13
HETATM   13  C3  UNL     1      31.863  -0.831  79.535  1.00  0.00     0.234 C
HETATM   14  C4  UNL     1      31.515   0.202  80.580  1.00  0.00     0.035 C
ENDBRANCH   1  13
BRANCH  10  15
HETATM   15  O2  UNL     1      33.862  -2.904  78.621  1.00  0.00    -0.390 OA
ATOM     16  H2  UNL     1      34.466  -3.604  78.840  1.00  0.00     0.210 HD
ENDBRANCH  10  15
BRANCH   8  17
HETATM   17  N3  UNL     1      36.627  -0.373  76.172  1.00  0.00    -0.240 N
ATOM     18  H3  UNL     1      37.045   0.486  75.811  1.00  0.00     0.198 HD
BRANCH  17  19
HETATM   19  N4  UNL     1      36.663  -1.407  75.480  1.00  0.00    -0.248 NA
BRANCH  19  20
HETATM   20  N5  UNL     1      36.638  -2.353  74.700  1.00  0.00    -0.261 N
ATOM     21  H52 UNL     1      37.514  -1.946  74.371  1.00  0.00     0.193 HD
ATOM     22  H51 UNL     1      36.520  -3.170  74.101  1.00  0.00     0.193 HD
ENDBRANCH  19  20
ENDBRANCH  17  19
ENDBRANCH   8  17
BRANCH   9  23
HETATM   23  O1  UNL     1      36.778  -2.144  78.867  1.00  0.00    -0.390 OA
ATOM     24  H1  UNL     1      37.223  -2.910  78.525  1.00  0.00     0.210 HD
ENDBRANCH   9  23
TORSDOF 7
ENDMDL