MODEL 3
REMARK VINA RESULT: -6.316448619      2.548      5.176
REMARK  3 active torsions:
REMARK  status: ('A' for Active; 'I' for Inactive)
REMARK    1  A    between atoms: C2_2  and  N1_4
REMARK    2  A    between atoms: N1_4  and  S1_6
REMARK    3  A    between atoms: S1_6  and  N2_8
REMARK       I    between atoms: N3_11  and  C6_12
ROOT
HETATM    1  N2  UNL     1      35.016  -1.422  78.099  1.00  0.00    -0.213 NA
HETATM    2  C4  UNL     1      34.851  -1.970  79.406  1.00  0.00     0.126 C
HETATM    3  C5  UNL     1      34.554  -3.440  79.417  1.00  0.00     0.141 C
HETATM    4  N3  UNL     1      33.475  -3.796  78.521  1.00  0.00    -0.354 N
HETATM    5  C6  UNL     1      32.635  -4.903  78.814  1.00  0.00     0.184 C
HETATM    6  N4  UNL     1      31.457  -4.987  78.318  1.00  0.00    -0.374 N
ATOM      7  H41 UNL     1      30.854  -5.782  78.529  1.00  0.00     0.158 HD
ATOM      8  H42 UNL     1      31.126  -4.243  77.705  1.00  0.00     0.158 HD
HETATM    9  N5  UNL     1      33.094  -5.938  79.666  1.00  0.00    -0.064 NA
HETATM   10  C7  UNL     1      33.293  -2.987  77.333  1.00  0.00     0.141 C
HETATM   11  C8  UNL     1      34.624  -2.318  77.050  1.00  0.00     0.126 C
ENDROOT
BRANCH   1  12
HETATM   12  S1  UNL     1      34.293   0.156  77.950  1.00  0.00     0.193 S
HETATM   13  O1  UNL     1      35.410   1.170  77.665  1.00  0.00    -0.218 OA
BRANCH  12  14
HETATM   14  N1  UNL     1      33.072   0.219  76.727  1.00  0.00    -0.324 N
ATOM     15  H1  UNL     1      33.262   0.089  75.733  1.00  0.00     0.171 HD
BRANCH  14  16
HETATM   16  C2  UNL     1      31.749   0.476  77.265  1.00  0.00     0.083 C
HETATM   17  C1  UNL     1      31.251   1.857  76.927  1.00  0.00     0.032 C
HETATM   18  C3  UNL     1      31.874   0.353  78.787  1.00  0.00     0.032 C
ENDBRANCH  14  16
ENDBRANCH  12  14
ENDBRANCH   1  12
TORSDOF 3
ENDMDL