MODEL 4
REMARK VINA RESULT: -5.758836986      2.195      4.089
REMARK  5 active torsions:
REMARK  status: ('A' for Active; 'I' for Inactive)
REMARK    1  A    between atoms: N1_2  and  C2_4
REMARK    2  A    between atoms: C2_4  and  N2_6
REMARK    3  A    between atoms: N2_6  and  C3_8
REMARK    4  A    between atoms: C3_8  and  C4_9
REMARK    5  A    between atoms: C4_9  and  N3_10
ROOT
HETATM    1  N3  UNL     1      32.494  -0.066  79.043  1.00  0.00     0.096 N
HETATM    2  C5  UNL     1      32.907  -0.201  77.649  1.00  0.00     0.300 C
HETATM    3  C6  UNL     1      33.576   1.062  77.248  1.00  0.00     0.264 C
HETATM    4  N4  UNL     1      34.848   0.893  76.599  1.00  0.00    -0.058 N
ATOM      5  H41 UNL     1      35.052   1.622  75.915  1.00  0.00     0.279 HD
ATOM      6  H42 UNL     1      34.870   0.104  75.955  1.00  0.00     0.279 HD
HETATM    7  C7  UNL     1      35.859   0.800  77.671  1.00  0.00     0.356 C
HETATM    8  N5  UNL     1      35.482  -0.304  78.471  1.00  0.00    -0.373 N
HETATM    9  C8  UNL     1      36.306  -1.471  78.338  1.00  0.00     0.150 C
HETATM   10  C9  UNL     1      34.896  -0.060  79.729  1.00  0.00     0.089 C
HETATM   11  C10 UNL     1      33.505  -0.517  79.956  1.00  0.00     0.317 C
ENDROOT
BRANCH   1  12
HETATM   12  C4  UNL     1      31.370  -1.002  79.249  1.00  0.00     0.292 C
BRANCH  12  13
HETATM   13  C3  UNL     1      31.160  -1.838  78.004  1.00  0.00     0.152 C
BRANCH  13  14
HETATM   14  N2  UNL     1      31.046  -3.207  78.479  1.00  0.00    -0.366 N
ATOM     15  H2  UNL     1      30.190  -3.512  78.942  1.00  0.00     0.161 HD
BRANCH  14  16
HETATM   16  C2  UNL     1      32.107  -4.112  78.303  1.00  0.00     0.167 C
HETATM   17  S1  UNL     1      33.456  -3.624  77.481  1.00  0.00    -0.041 SA
BRANCH  16  18
HETATM   18  N1  UNL     1      32.064  -5.438  78.785  1.00  0.00    -0.372 N
HETATM   19  C1  UNL     1      33.127  -5.956  79.604  1.00  0.00     0.148 C
ATOM     20  H1  UNL     1      31.271  -6.035  78.550  1.00  0.00     0.161 HD
ENDBRANCH  16  18
ENDBRANCH  14  16
ENDBRANCH  13  14
ENDBRANCH  12  13
ENDBRANCH   1  12
TORSDOF 5
ENDMDL