MODEL 4
REMARK VINA RESULT: -5.529221335      0.718      2.019
REMARK  4 active torsions:
REMARK  status: ('A' for Active; 'I' for Inactive)
REMARK    1  A    between atoms: C2_2  and  N1_3
REMARK    2  A    between atoms: C3_5  and  C4_6
REMARK    3  A    between atoms: C3_5  and  N6_19
REMARK    4  A    between atoms: C4_6  and  N2_7
REMARK       I    between atoms: N3_11  and  C8_12
ROOT
HETATM    1  N2  UNL     1      32.260  -0.025  79.811  1.00  0.00     0.097 N
HETATM    2  C5  UNL     1      31.788   0.264  78.469  1.00  0.00     0.274 C
HETATM    3  C6  UNL     1      32.783   0.929  77.599  1.00  0.00     0.050 C
HETATM    4  C7  UNL     1      34.208   0.752  77.990  1.00  0.00     0.127 C
HETATM    5  N3  UNL     1      34.483  -0.686  77.993  1.00  0.00    -0.354 N
HETATM    6  C8  UNL     1      35.707  -1.131  77.425  1.00  0.00     0.184 C
HETATM    7  N4  UNL     1      35.966  -1.120  76.171  1.00  0.00    -0.374 N
ATOM      8  H41 UNL     1      36.845  -1.440  75.764  1.00  0.00     0.158 HD
ATOM      9  H42 UNL     1      35.227  -0.763  75.565  1.00  0.00     0.158 HD
HETATM   10  N5  UNL     1      36.753  -1.636  78.283  1.00  0.00    -0.064 NA
HETATM   11  C9  UNL     1      33.580  -1.678  78.540  1.00  0.00     0.156 C
HETATM   12  C10 UNL     1      33.090  -1.189  79.878  1.00  0.00     0.292 C
ENDROOT
BRANCH   1  13
HETATM   13  C4  UNL     1      31.077  -0.199  80.628  1.00  0.00     0.347 C
BRANCH  13  14
HETATM   14  C3  UNL     1      30.928   0.821  81.683  1.00  0.00     0.101 C
HETATM   15  N1  UNL     1      29.819   1.364  82.045  1.00  0.00    -0.379 N
ATOM     16  H1  UNL     1      28.961   1.077  81.573  1.00  0.00     0.160 HD
BRANCH  15  17
HETATM   17  C2  UNL     1      29.730   2.349  83.074  1.00  0.00     0.116 C
HETATM   18  C1  UNL     1      28.561   3.275  82.935  1.00  0.00     0.026 C
ENDBRANCH  15  17
BRANCH  14  19
HETATM   19  N6  UNL     1      32.107   1.238  82.358  1.00  0.00    -0.383 N
HETATM   20  C11 UNL     1      32.636   0.366  83.394  1.00  0.00     0.147 C
ATOM     21  H6  UNL     1      32.566   2.117  82.122  1.00  0.00     0.160 HD
ENDBRANCH  14  19
ENDBRANCH  13  14
ENDBRANCH   1  13
TORSDOF 4
ENDMDL