MODEL 2
REMARK VINA RESULT: -8.375747844      0.012      1.113
REMARK  4 active torsions:
REMARK  status: ('A' for Active; 'I' for Inactive)
REMARK    1  A    between atoms: C2_5  and  N3_6
REMARK    2  A    between atoms: C2_5  and  C4_13
REMARK    3  A    between atoms: N3_6  and  N4_8
REMARK    4  A    between atoms: C6_15  and  C7_16
ROOT
HETATM    1  N1  UNL     1      30.312   2.336  75.802  1.00  0.00    -0.172 NA
HETATM    2  C1  UNL     1      31.406   2.168  76.148  1.00  0.00     0.183 C
HETATM    3  N2  UNL     1      32.679   1.993  76.518  1.00  0.00    -0.281 N
ATOM      4  H2  UNL     1      33.311   2.640  76.047  1.00  0.00     0.179 HD
HETATM    5  C2  UNL     1      33.276   1.234  77.297  1.00  0.00     0.109 C
ENDROOT
BRANCH   5   6
HETATM    6  N3  UNL     1      34.716   1.430  77.363  1.00  0.00    -0.286 N
ATOM      7  H3  UNL     1      35.132   1.973  78.119  1.00  0.00     0.188 HD
BRANCH   6   8
HETATM    8  N4  UNL     1      35.507   0.869  76.384  1.00  0.00    -0.275 N
HETATM    9  C3  UNL     1      36.477   0.068  76.575  1.00  0.00     0.215 C
HETATM   10  N5  UNL     1      36.872  -0.358  77.867  1.00  0.00    -0.065 NA
HETATM   11  N6  UNL     1      37.186  -0.411  75.428  1.00  0.00    -0.065 NA
ATOM     12  H4  UNL     1      35.296   1.119  75.418  1.00  0.00     0.189 HD
ENDBRANCH   6   8
ENDBRANCH   5   6
BRANCH   5  13
HETATM   13  C4  UNL     1      32.779   0.156  78.162  1.00  0.00     0.064 A
HETATM   14  C5  UNL     1      33.537  -0.267  79.325  1.00  0.00     0.023 A
HETATM   15  C6  UNL     1      33.383  -1.198  78.103  1.00  0.00     0.030 A
BRANCH  15  16
HETATM   16  C7  UNL     1      32.578  -2.418  78.307  1.00  0.00    -0.053 A
HETATM   17  C8  UNL     1      31.212  -2.361  78.475  1.00  0.00     0.007 A
HETATM   18  C9  UNL     1      30.438  -3.498  78.668  1.00  0.00     0.001 A
HETATM   19  C10 UNL     1      31.034  -4.742  78.700  1.00  0.00     0.000 A
HETATM   20  C11 UNL     1      32.401  -4.817  78.533  1.00  0.00     0.001 A
HETATM   21  C12 UNL     1      33.157  -3.676  78.342  1.00  0.00     0.007 A
ENDBRANCH  15  16
ENDBRANCH   5  13
TORSDOF 4
ENDMDL