MODEL 1
REMARK VINA RESULT: -4.394419861      0.000      0.000
REMARK  5 active torsions:
REMARK  status: ('A' for Active; 'I' for Inactive)
REMARK    1  A    between atoms: N1_2  and  C4_5
REMARK    2  A    between atoms: C4_5  and  C5_6
REMARK    3  A    between atoms: C7_8  and  N2_9
REMARK    4  A    between atoms: C11_13  and  O1_14
REMARK    5  A    between atoms: C12_16  and  O2_17
ROOT
HETATM    1  C5  UNL     1      34.454  -0.577  80.520  1.00  0.00     0.045 C
HETATM    2  C6  UNL     1      33.432  -1.536  79.974  1.00  0.00     0.045 C
HETATM    3  C7  UNL     1      32.800  -0.836  78.770  1.00  0.00     0.220 C
HETATM    4  C11 UNL     1      33.752   0.215  78.405  1.00  0.00     0.178 C
HETATM    5  C12 UNL     1      35.002   0.038  79.245  1.00  0.00     0.154 C
ENDROOT
BRANCH   1   6
HETATM    6  C4  UNL     1      33.915   0.535  81.346  1.00  0.00     0.243 C
BRANCH   6   7
HETATM    7  N1  UNL     1      34.394   0.673  82.674  1.00  0.00    -0.078 N
HETATM    8  C1  UNL     1      35.320  -0.410  82.991  1.00  0.00     0.271 C
HETATM    9  C2  UNL     1      33.226   0.458  83.563  1.00  0.00     0.271 C
HETATM   10  C3  UNL     1      34.921   1.953  83.042  1.00  0.00     0.271 C
ENDBRANCH   6   7
ENDBRANCH   1   6
BRANCH   5  11
HETATM   11  O2  UNL     1      35.877  -0.883  78.682  1.00  0.00    -0.393 OA
ATOM     12  H2  UNL     1      36.636  -0.401  78.374  1.00  0.00     0.210 HD
ENDBRANCH   5  11
BRANCH   3  13
HETATM   13  N2  UNL     1      32.363  -1.759  77.792  1.00  0.00    -0.072 N
HETATM   14  C8  UNL     1      31.560  -1.117  76.764  1.00  0.00     0.272 C
HETATM   15  C9  UNL     1      33.324  -2.574  77.148  1.00  0.00     0.272 C
HETATM   16  C10 UNL     1      31.437  -2.693  78.459  1.00  0.00     0.272 C
ENDBRANCH   3  13
BRANCH   4  17
HETATM   17  O1  UNL     1      34.166   0.277  77.098  1.00  0.00    -0.391 OA
ATOM     18  H1  UNL     1      33.501   0.359  76.424  1.00  0.00     0.210 HD
ENDBRANCH   4  17
TORSDOF 5
ENDMDL