MODEL 3
REMARK VINA RESULT: -7.047316162      1.570      1.784
REMARK  8 active torsions:
REMARK  status: ('A' for Active; 'I' for Inactive)
REMARK    1  A    between atoms: C3_3  and  C4_4
REMARK       I    between atoms: C4_4  and  N1_6
REMARK    2  A    between atoms: N1_6  and  C5_8
REMARK    3  A    between atoms: C5_8  and  C8_11
REMARK    4  A    between atoms: C8_11  and  O2_12
REMARK    5  A    between atoms: C8_11  and  N2_14
REMARK    6  A    between atoms: N2_14  and  C9_16
REMARK    7  A    between atoms: C9_16  and  O3_17
REMARK    8  A    between atoms: C9_16  and  N3_19
ROOT
HETATM    1  C1  UNL     1      31.835  -5.082  78.708  1.00  0.00     0.012 C
HETATM    2  C2  UNL     1      32.501  -4.391  77.956  1.00  0.00    -0.108 C
HETATM    3  C3  UNL     1      33.283  -3.543  77.057  1.00  0.00     0.195 C
ENDROOT
BRANCH   3   4
HETATM    4  C4  UNL     1      33.863  -2.384  77.784  1.00  0.00     0.229 C
HETATM    5  O1  UNL     1      34.845  -1.769  77.295  1.00  0.00    -0.273 OA
HETATM    6  N1  UNL     1      33.341  -1.949  79.017  1.00  0.00    -0.344 N
ATOM      7  H1  UNL     1      32.545  -2.432  79.434  1.00  0.00     0.163 HD
BRANCH   6   8
HETATM    8  C5  UNL     1      33.955  -0.780  79.714  1.00  0.00     0.090 C
HETATM    9  C6  UNL     1      35.130  -1.374  80.443  1.00  0.00     0.047 C
HETATM   10  C7  UNL     1      32.915  -0.265  80.708  1.00  0.00     0.047 C
BRANCH   8  11
HETATM   11  C8  UNL     1      34.266   0.275  78.760  1.00  0.00     0.146 C
BRANCH  11  12
HETATM   12  O2  UNL     1      35.548   0.598  78.769  1.00  0.00    -0.347 OA
ATOM     13  H2  UNL     1      35.807   1.068  77.985  1.00  0.00     0.219 HD
ENDBRANCH  11  12
BRANCH  11  14
HETATM   14  N2  UNL     1      33.494   0.996  77.859  1.00  0.00    -0.304 N
ATOM     15  H2  UNL     1      32.709   1.455  78.321  1.00  0.00     0.171 HD
BRANCH  14  16
HETATM   16  C9  UNL     1      33.508   1.257  76.502  1.00  0.00     0.232 C
BRANCH  16  17
HETATM   17  O3  UNL     1      34.702   1.092  75.953  1.00  0.00    -0.332 OA
ATOM     18  H3  UNL     1      35.399   1.019  76.594  1.00  0.00     0.221 HD
ENDBRANCH  16  17
BRANCH  16  19
HETATM   19  N3  UNL     1      32.544   1.655  75.591  1.00  0.00    -0.259 N
HETATM   20  C10 UNL     1      31.251   2.019  76.079  1.00  0.00     0.185 C
HETATM   21  N4  UNL     1      30.213   2.328  76.483  1.00  0.00    -0.172 NA
ATOM     22  H3  UNL     1      32.752   1.688  74.593  1.00  0.00     0.181 HD
ENDBRANCH  16  19
ENDBRANCH  14  16
ENDBRANCH  11  14
ENDBRANCH   8  11
ENDBRANCH   6   8
ENDBRANCH   3   4
TORSDOF 8
ENDMDL