MODEL 3
REMARK VINA RESULT: -7.019272888      2.976      4.998
REMARK  4 active torsions:
REMARK  status: ('A' for Active; 'I' for Inactive)
REMARK    1  A    between atoms: C2_2  and  N1_3
REMARK    2  A    between atoms: C2_2  and  C4_8
REMARK       I    between atoms: N1_3  and  C3_5
REMARK       I    between atoms: C4_8  and  N3_10
REMARK    3  A    between atoms: N3_10  and  C5_12
REMARK    4  A    between atoms: C5_12  and  C7_14
REMARK       I    between atoms: C7_14  and  N4_16
ROOT
HETATM    1  C7  UNL     1      34.043  -0.795  81.348  1.00  0.00     0.254 C
HETATM    2  O3  UNL     1      35.080  -1.016  82.023  1.00  0.00    -0.270 OA
HETATM    3  N4  UNL     1      33.048   0.076  81.849  1.00  0.00    -0.258 N
HETATM    4  C8  UNL     1      31.828   0.382  81.134  1.00  0.00     0.172 C
HETATM    5  C9  UNL     1      33.252   0.672  83.097  1.00  0.00     0.186 C
HETATM    6  N5  UNL     1      33.412   1.171  84.129  1.00  0.00    -0.172 NA
ENDROOT
BRANCH   1   7
HETATM    7  C5  UNL     1      33.928  -1.482  80.035  1.00  0.00     0.173 C
HETATM    8  C6  UNL     1      34.822  -2.675  79.989  1.00  0.00     0.042 C
BRANCH   7   9
HETATM    9  N3  UNL     1      34.219  -0.529  78.962  1.00  0.00    -0.346 N
HETATM   10  C4  UNL     1      33.300  -0.320  77.895  1.00  0.00     0.240 C
HETATM   11  O2  UNL     1      32.206  -0.936  77.821  1.00  0.00    -0.271 OA
ATOM     12  H3  UNL     1      35.095  -0.007  78.980  1.00  0.00     0.163 HD
BRANCH  10  13
HETATM   13  C2  UNL     1      33.640   0.657  76.829  1.00  0.00     0.174 C
HETATM   14  C1  UNL     1      35.125   0.997  77.025  1.00  0.00     0.042 C
BRANCH  13  15
HETATM   15  N1  UNL     1      32.865   1.859  76.929  1.00  0.00    -0.333 N
HETATM   16  C3  UNL     1      31.708   2.001  76.125  1.00  0.00     0.329 C
HETATM   17  N2  UNL     1      30.926   3.169  76.202  1.00  0.00    -0.040 NA
HETATM   18  O1  UNL     1      31.405   1.051  75.345  1.00  0.00    -0.251 OA
ATOM     19  H1  UNL     1      33.142   2.602  77.571  1.00  0.00     0.164 HD
ENDBRANCH  13  15
ENDBRANCH  10  13
ENDBRANCH   7   9
ENDBRANCH   1   7
TORSDOF 4
ENDMDL