MODEL 2
REMARK VINA RESULT: -5.453824233      2.212      8.086
REMARK  5 active torsions:
REMARK  status: ('A' for Active; 'I' for Inactive)
REMARK    1  A    between atoms: C2_2  and  C3_3
REMARK    2  A    between atoms: N1_4  and  O1_5
REMARK    3  A    between atoms: N1_4  and  N2_7
REMARK       I    between atoms: C4_9  and  N4_11
REMARK    4  A    between atoms: N4_11  and  N5_13
REMARK       I    between atoms: N5_13  and  C5_15
REMARK    5  A    between atoms: C5_15  and  C6_17
ROOT
HETATM    1  N2  UNL     1      33.295  -1.082  79.322  1.00  0.00    -0.246 N
ATOM      2  H2  UNL     1      33.449  -1.784  80.046  1.00  0.00     0.192 HD
HETATM    3  C4  UNL     1      32.443  -0.134  79.530  1.00  0.00     0.224 C
HETATM    4  N3  UNL     1      32.167   0.883  78.573  1.00  0.00    -0.061 NA
HETATM    5  N4  UNL     1      31.749  -0.103  80.773  1.00  0.00    -0.270 N
ATOM      6  H4  UNL     1      32.083  -0.712  81.520  1.00  0.00     0.190 HD
ENDROOT
BRANCH   5   7
HETATM    7  N5  UNL     1      30.644   0.704  81.036  1.00  0.00    -0.263 N
HETATM    8  C5  UNL     1      30.526   1.401  82.262  1.00  0.00     0.271 C
HETATM    9  O2  UNL     1      31.440   1.277  83.110  1.00  0.00    -0.266 OA
ATOM     10  H5  UNL     1      29.908   0.793  80.335  1.00  0.00     0.190 HD
BRANCH   8  11
HETATM   11  C6  UNL     1      29.391   2.252  82.580  1.00  0.00     0.049 A
HETATM   12  C7  UNL     1      28.833   2.321  83.852  1.00  0.00     0.020 A
HETATM   13  C8  UNL     1      27.756   3.137  84.129  1.00  0.00     0.018 A
HETATM   14  C9  UNL     1      27.208   3.912  83.129  1.00  0.00     0.087 A
HETATM   15  N6  UNL     1      27.745   3.855  81.877  1.00  0.00    -0.374 N
HETATM   16  C10 UNL     1      28.796   3.051  81.624  1.00  0.00     0.104 A
ATOM     17  H6  UNL     1      27.349   4.423  81.127  1.00  0.00     0.164 HD
ENDBRANCH   8  11
ENDBRANCH   5   7
BRANCH   1  18
HETATM   18  N1  UNL     1      34.008  -1.165  78.123  1.00  0.00    -0.173 N
HETATM   19  C3  UNL     1      35.220  -0.792  78.041  1.00  0.00     0.142 C
BRANCH  19  20
HETATM   20  C2  UNL     1      35.934  -0.889  76.787  1.00  0.00     0.011 C
HETATM   21  C1  UNL     1      36.727   0.058  76.336  1.00  0.00     0.013 C
ENDBRANCH  19  20
BRANCH  18  22
HETATM   22  O1  UNL     1      33.388  -1.663  77.005  1.00  0.00    -0.268 OA
ATOM     23  H1  UNL     1      32.770  -2.379  77.100  1.00  0.00     0.247 HD
ENDBRANCH  18  22
ENDBRANCH   1  18
TORSDOF 5
ENDMDL