MODEL 2
REMARK VINA RESULT: -7.282527887      1.033      1.823
REMARK  4 active torsions:
REMARK  status: ('A' for Active; 'I' for Inactive)
REMARK    1  A    between atoms: N1_1  and  N2_4
REMARK    2  A    between atoms: N2_4  and  S1_6
REMARK    3  A    between atoms: S1_6  and  N3_9
REMARK    4  A    between atoms: N3_9  and  C1_11
ROOT
HETATM    1  C1  UNL     1      33.649   0.050  78.221  1.00  0.00     0.099 C
HETATM    2  C2  UNL     1      35.109   0.379  78.381  1.00  0.00     0.031 C
HETATM    3  C3  UNL     1      35.840  -0.651  79.208  1.00  0.00    -0.012 C
HETATM    4  C4  UNL     1      36.333  -1.815  78.418  1.00  0.00     0.009 C
HETATM    5  C5  UNL     1      35.292  -2.848  78.124  1.00  0.00    -0.013 C
HETATM    6  C6  UNL     1      34.533  -3.271  79.367  1.00  0.00     0.010 C
HETATM    7  C7  UNL     1      33.849  -1.946  79.734  1.00  0.00    -0.008 C
HETATM    8  C8  UNL     1      34.953  -1.097  80.370  1.00  0.00     0.010 C
HETATM    9  C9  UNL     1      33.424  -1.417  78.405  1.00  0.00     0.013 C
HETATM   10  C10 UNL     1      34.171  -2.155  77.338  1.00  0.00     0.011 C
ENDROOT
BRANCH   1  11
HETATM   11  N3  UNL     1      33.262   0.371  76.840  1.00  0.00    -0.296 N
ATOM     12  H3  UNL     1      33.896   0.376  76.042  1.00  0.00     0.174 HD
BRANCH  11  13
HETATM   13  S1  UNL     1      31.599   0.736  76.766  1.00  0.00     0.332 S
HETATM   14  O1  UNL     1      30.822  -0.520  76.453  1.00  0.00    -0.181 OA
HETATM   15  O2  UNL     1      31.123   1.261  78.113  1.00  0.00    -0.181 OA
BRANCH  13  16
HETATM   16  N2  UNL     1      31.223   1.899  75.588  1.00  0.00    -0.217 N
ATOM     17  H2  UNL     1      30.849   1.663  74.669  1.00  0.00     0.201 HD
BRANCH  16  18
HETATM   18  N1  UNL     1      31.473   3.211  75.995  1.00  0.00    -0.335 N
ATOM     19  H12 UNL     1      31.097   3.594  76.863  1.00  0.00     0.177 HD
ATOM     20  H11 UNL     1      32.059   3.737  75.347  1.00  0.00     0.177 HD
ENDBRANCH  16  18
ENDBRANCH  13  16
ENDBRANCH  11  13
ENDBRANCH   1  11
TORSDOF 4
ENDMDL