MODEL 1
REMARK VINA RESULT: -8.838956640      0.000      0.000
REMARK  10 active torsions:
REMARK  status: ('A' for Active; 'I' for Inactive)
REMARK    1  A    between atoms: S1_2  and  N1_4
REMARK    2  A    between atoms: S1_2  and  C8_25
REMARK    3  A    between atoms: N1_4  and  C2_6
REMARK    4  A    between atoms: N6_18  and  C6_19
REMARK    5  A    between atoms: C6_19  and  C7_20
REMARK    6  A    between atoms: C7_20  and  N7_21
REMARK    7  A    between atoms: C14_34  and  C15_35
REMARK    8  A    between atoms: C15_35  and  N9_36
REMARK    9  A    between atoms: C15_35  and  O3_40
REMARK   10  A    between atoms: N10_42  and  N11_43
ROOT
HETATM    1  C1  UNL     1      27.883  73.688   0.755  1.00  0.00     0.144 C
HETATM    2  S1  UNL     1      27.403  72.982  -0.619  1.00  0.00     0.070 S
HETATM    3  O1  UNL     1      28.441  71.870  -0.706  1.00  0.00    -0.243 OA
ENDROOT
BRANCH   2   4
HETATM    4  N1  UNL     1      25.819  72.467  -0.502  1.00  0.00    -0.296 N
ATOM      5  H1  UNL     1      25.719  71.466  -0.676  1.00  0.00     0.177 HD
BRANCH   4   6
HETATM    6  C2  UNL     1      24.725  73.023  -0.251  1.00  0.00     0.146 A
HETATM    7  N2  UNL     1      23.968  73.359  -1.343  1.00  0.00    -0.336 N
HETATM    8  C3  UNL     1      22.775  73.959  -1.224  1.00  0.00     0.183 A
ATOM      9  H2  UNL     1      24.322  73.146  -2.276  1.00  0.00     0.168 HD
HETATM   10  N3  UNL     1      22.245  74.271  -0.028  1.00  0.00    -0.335 N
HETATM   11  C4  UNL     1      22.926  73.974   1.077  1.00  0.00     0.157 A
ATOM     12  H3  UNL     1      21.335  74.728   0.033  1.00  0.00     0.168 HD
HETATM   13  C5  UNL     1      24.172  73.347   0.959  1.00  0.00     0.140 A
HETATM   14  N6  UNL     1      22.658  74.158   2.389  1.00  0.00    -0.258 N
HETATM   15  N4  UNL     1      24.589  73.187   2.203  1.00  0.00    -0.279 N
HETATM   16  N5  UNL     1      23.688  73.669   3.030  1.00  0.00    -0.238 N
ATOM     17  H4  UNL     1      25.472  72.756   2.479  1.00  0.00     0.189 HD
ATOM     18  H5  UNL     1      23.780  73.662   4.046  1.00  0.00     0.208 HD
BRANCH  14  19
HETATM   19  C6  UNL     1      21.490  74.766   2.980  1.00  0.00     0.179 C
BRANCH  19  20
HETATM   20  C7  UNL     1      21.633  74.792   4.490  1.00  0.00     0.251 C
BRANCH  20  21
HETATM   21  N7  UNL     1      21.632  76.184   4.904  1.00  0.00    -0.078 N
ATOM     22  H73 UNL     1      22.570  76.579   4.975  1.00  0.00     0.274 HD
ATOM     23  H72 UNL     1      21.277  76.812   4.183  1.00  0.00     0.274 HD
ATOM     24  H71 UNL     1      21.108  76.243   5.777  1.00  0.00     0.274 HD
ENDBRANCH  20  21
ENDBRANCH  19  20
ENDBRANCH  14  19
ENDBRANCH   4   6
ENDBRANCH   2   4
BRANCH   2  25
HETATM   25  C8  UNL     1      27.578  74.128  -1.929  1.00  0.00     0.110 A
HETATM   26  C9  UNL     1      28.294  73.960  -3.094  1.00  0.00     0.074 A
HETATM   27  C10 UNL     1      28.184  75.091  -3.868  1.00  0.00     0.089 A
HETATM   28  C11 UNL     1      27.383  75.969  -3.160  1.00  0.00     0.113 A
HETATM   29  N10 UNL     1      28.663  75.461  -5.063  1.00  0.00    -0.260 N
HETATM   30  N8  UNL     1      27.043  75.361  -2.013  1.00  0.00    -0.343 N
HETATM   31  C12 UNL     1      27.080  77.215  -3.679  1.00  0.00     0.203 A
ATOM     32  H8  UNL     1      26.452  75.780  -1.295  1.00  0.00     0.167 HD
HETATM   33  O2  UNL     1      26.356  78.014  -3.044  1.00  0.00    -0.286 OA
HETATM   34  C13 UNL     1      27.599  77.539  -4.910  1.00  0.00     0.089 A
HETATM   35  C14 UNL     1      28.391  76.676  -5.616  1.00  0.00     0.093 A
BRANCH  35  36
HETATM   36  C15 UNL     1      28.913  77.086  -6.925  1.00  0.00     0.369 C
BRANCH  36  37
HETATM   37  N9  UNL     1      28.027  78.136  -7.440  1.00  0.00    -0.047 N
ATOM     38  H93 UNL     1      27.054  77.837  -7.509  1.00  0.00     0.277 HD
ATOM     39  H92 UNL     1      27.884  78.897  -6.777  1.00  0.00     0.277 HD
ATOM     40  H91 UNL     1      28.412  78.450  -8.331  1.00  0.00     0.277 HD
ENDBRANCH  36  37
BRANCH  36  41
HETATM   41  O3  UNL     1      30.204  77.603  -6.871  1.00  0.00    -0.365 OA
ATOM     42  H3  UNL     1      30.581  77.769  -7.727  1.00  0.00     0.212 HD
ENDBRANCH  36  41
ENDBRANCH  35  36
BRANCH  29  43
HETATM   43  N11 UNL     1      29.473  74.584  -5.791  1.00  0.00    -0.338 N
ATOM     44 2H11 UNL     1      30.113  73.987  -5.267  1.00  0.00     0.177 HD
ATOM     45 1H11 UNL     1      29.410  74.559  -6.808  1.00  0.00     0.177 HD
ENDBRANCH  29  43
ENDBRANCH   2  25
TORSDOF 10
ENDMDL