MODEL 1
REMARK VINA RESULT: -9.704601041      0.000      0.000
REMARK  6 active torsions:
REMARK  status: ('A' for Active; 'I' for Inactive)
REMARK    1  A    between atoms: N1_1  and  C1_4
REMARK    2  A    between atoms: N5_16  and  C6_17
REMARK    3  A    between atoms: C7_22  and  C8_23
REMARK    4  A    between atoms: C8_23  and  N8_24
REMARK    5  A    between atoms: C13_32  and  N10_33
REMARK    6  A    between atoms: C15_35  and  C16_36
ROOT
HETATM    1  C6  UNL     1      22.894  74.252   1.567  1.00  0.00     0.198 A
HETATM    2  N6  UNL     1      24.175  73.888   1.435  1.00  0.00    -0.281 N
ATOM      3  H6  UNL     1      24.763  73.894   2.270  1.00  0.00     0.188 HD
HETATM    4  N7  UNL     1      24.728  73.521   0.292  1.00  0.00    -0.299 N
ATOM      5  H7  UNL     1      25.712  73.254   0.247  1.00  0.00     0.186 HD
HETATM    6  C7  UNL     1      23.964  73.509  -0.805  1.00  0.00     0.087 A
HETATM    7  C13 UNL     1      22.613  73.876  -0.759  1.00  0.00     0.135 A
HETATM    8  C18 UNL     1      22.086  74.249   0.451  1.00  0.00     0.248 A
HETATM    9  O3  UNL     1      20.864  74.589   0.534  1.00  0.00    -0.282 OA
ENDROOT
BRANCH   1  10
HETATM   10  N5  UNL     1      22.326  74.645   2.822  1.00  0.00    -0.110 N
HETATM   11  C1  UNL     1      22.869  75.600   3.589  1.00  0.00     0.688 A
HETATM   12  N2  UNL     1      22.343  75.968   4.760  1.00  0.00    -0.154 N
HETATM   13  C2  UNL     1      21.225  75.395   5.243  1.00  0.00     0.290 A
ATOM     14  H2  UNL     1      22.801  76.702   5.301  1.00  0.00     0.187 HD
HETATM   15  O1  UNL     1      20.716  75.732   6.348  1.00  0.00    -0.265 OA
HETATM   16  C3  UNL     1      20.643  74.402   4.465  1.00  0.00     0.148 A
HETATM   17  N3  UNL     1      19.534  73.669   4.701  1.00  0.00    -0.345 N
HETATM   18  C5  UNL     1      21.209  74.042   3.259  1.00  0.00     0.164 A
HETATM   19  C4  UNL     1      19.416  72.858   3.640  1.00  0.00     0.182 A
ATOM     20  H3  UNL     1      18.917  73.722   5.512  1.00  0.00     0.167 HD
HETATM   21  N4  UNL     1      20.419  73.074   2.767  1.00  0.00    -0.336 N
ATOM     22  H4  UNL     1      20.555  72.586   1.882  1.00  0.00     0.168 HD
BRANCH  11  23
HETATM   23  N1  UNL     1      23.944  76.192   3.188  1.00  0.00    -0.234 N
ATOM     24  H12 UNL     1      24.764  76.197   3.795  1.00  0.00     0.174 HD
ATOM     25  H11 UNL     1      23.935  76.639   2.271  1.00  0.00     0.174 HD
ENDBRANCH  11  23
ENDBRANCH   1  10
BRANCH   7  26
HETATM   26  N10 UNL     1      21.794  73.867  -1.923  1.00  0.00    -0.261 N
HETATM   27  C14 UNL     1      22.070  74.671  -2.987  1.00  0.00     0.132 A
HETATM   28  C15 UNL     1      21.113  74.450  -3.965  1.00  0.00     0.036 A
HETATM   29  C17 UNL     1      20.276  73.502  -3.447  1.00  0.00     0.123 A
HETATM   30  N11 UNL     1      20.728  73.188  -2.226  1.00  0.00    -0.304 N
ATOM     31  H11 UNL     1      20.291  72.503  -1.611  1.00  0.00     0.186 HD
BRANCH  28  32
HETATM   32  C16 UNL     1      21.073  75.127  -5.251  1.00  0.00     0.272 C
HETATM   33  O2  UNL     1      22.067  75.748  -5.701  1.00  0.00    -0.301 OA
ENDBRANCH  28  32
ENDBRANCH   7  26
BRANCH   6  34
HETATM   34  C8  UNL     1      24.461  73.138  -2.133  1.00  0.00     0.333 C
BRANCH  34  35
HETATM   35  N8  UNL     1      25.777  73.551  -2.476  1.00  0.00     0.097 N
HETATM   36  C9  UNL     1      25.738  75.025  -2.493  1.00  0.00     0.300 C
HETATM   37  C10 UNL     1      26.881  75.617  -3.249  1.00  0.00     0.262 C
HETATM   38  N9  UNL     1      26.647  75.443  -4.654  1.00  0.00    -0.072 N
HETATM   39  C11 UNL     1      25.800  74.276  -4.809  1.00  0.00     0.262 C
ATOM     40  H92 UNL     1      26.263  76.276  -5.100  1.00  0.00     0.277 HD
ATOM     41  H91 UNL     1      27.508  75.386  -5.198  1.00  0.00     0.277 HD
HETATM   42  C12 UNL     1      26.162  73.181  -3.828  1.00  0.00     0.300 C
ENDBRANCH  34  35
ENDBRANCH   6  34
TORSDOF 6
ENDMDL