MODEL 4
REMARK VINA RESULT: -9.909869154      2.625      3.848
REMARK  7 active torsions:
REMARK  status: ('A' for Active; 'I' for Inactive)
REMARK    1  A    between atoms: N1_4  and  C4_5
REMARK    2  A    between atoms: C4_5  and  C5_6
REMARK       I    between atoms: C5_6  and  N2_8
REMARK    3  A    between atoms: N2_8  and  N3_10
REMARK    4  A    between atoms: N3_10  and  C6_12
REMARK    5  A    between atoms: C8_17  and  N6_18
REMARK    6  A    between atoms: N6_18  and  N7_20
REMARK    7  A    between atoms: C10_26  and  C11_27
ROOT
HETATM    1  C6  UNL     1      26.575  74.151  -1.221  1.00  0.00     0.185 A
HETATM    2  C7  UNL     1      27.227  73.986  -0.013  1.00  0.00     0.165 A
HETATM    3  N4  UNL     1      28.621  74.228   0.140  1.00  0.00    -0.078 NA
HETATM    4  N5  UNL     1      26.577  73.571   1.101  1.00  0.00    -0.324 N
ATOM      5  H5  UNL     1      27.089  73.459   1.977  1.00  0.00     0.169 HD
HETATM    6  C8  UNL     1      25.268  73.308   1.055  1.00  0.00     0.168 A
HETATM    7  C9  UNL     1      24.600  73.465  -0.137  1.00  0.00     0.176 A
HETATM    8  N8  UNL     1      23.319  73.286  -0.508  1.00  0.00    -0.322 N
ATOM      9  H8  UNL     1      22.574  72.975   0.115  1.00  0.00     0.169 HD
HETATM   10  C10 UNL     1      23.150  73.573  -1.811  1.00  0.00     0.132 A
HETATM   11  N9  UNL     1      24.366  73.937  -2.242  1.00  0.00    -0.275 N
ATOM     12  H9  UNL     1      24.582  74.219  -3.198  1.00  0.00     0.189 HD
HETATM   13  N10 UNL     1      25.243  73.880  -1.260  1.00  0.00    -0.213 N
ENDROOT
BRANCH   1  14
HETATM   14  N3  UNL     1      27.260  74.605  -2.377  1.00  0.00    -0.279 N
ATOM     15  H3  UNL     1      28.124  74.115  -2.607  1.00  0.00     0.189 HD
BRANCH  14  16
HETATM   16  N2  UNL     1      26.904  75.622  -3.224  1.00  0.00    -0.267 N
HETATM   17  C5  UNL     1      26.912  77.003  -2.898  1.00  0.00     0.254 C
HETATM   18  O1  UNL     1      27.281  77.360  -1.753  1.00  0.00    -0.270 OA
ATOM     19  H2  UNL     1      26.609  75.365  -4.166  1.00  0.00     0.190 HD
BRANCH  17  20
HETATM   20  C4  UNL     1      26.502  78.053  -3.854  1.00  0.00     0.237 C
BRANCH  20  21
HETATM   21  N1  UNL     1      27.478  78.292  -4.876  1.00  0.00    -0.300 N
HETATM   22  C3  UNL     1      28.356  79.294  -4.680  1.00  0.00     0.108 A
HETATM   23  C2  UNL     1      29.336  79.591  -5.602  1.00  0.00     0.022 A
HETATM   24  C1  UNL     1      30.307  80.694  -5.377  1.00  0.00     0.056 C
HETATM   25  C18 UNL     1      29.385  78.819  -6.737  1.00  0.00     0.256 A
HETATM   26  N11 UNL     1      28.511  77.822  -6.932  1.00  0.00    -0.275 N
HETATM   27  O3  UNL     1      30.260  79.038  -7.619  1.00  0.00    -0.267 OA
HETATM   28  C17 UNL     1      27.556  77.566  -5.991  1.00  0.00     0.329 A
ATOM     29  H11 UNL     1      28.559  77.257  -7.781  1.00  0.00     0.173 HD
HETATM   30  O2  UNL     1      26.730  76.622  -6.184  1.00  0.00    -0.246 OA
ENDBRANCH  20  21
ENDBRANCH  17  20
ENDBRANCH  14  16
ENDBRANCH   1  14
BRANCH   6  31
HETATM   31  N6  UNL     1      24.666  72.921   2.113  1.00  0.00    -0.289 N
ATOM     32  H6  UNL     1      24.724  71.931   2.352  1.00  0.00     0.188 HD
BRANCH  31  33
HETATM   33  N7  UNL     1      23.938  73.748   2.966  1.00  0.00    -0.344 N
ATOM     34  H72 UNL     1      23.171  73.310   3.476  1.00  0.00     0.176 HD
ATOM     35  H71 UNL     1      24.117  74.741   3.113  1.00  0.00     0.176 HD
ENDBRANCH  31  33
ENDBRANCH   6  31
BRANCH  10  36
HETATM   36  C11 UNL     1      21.877  73.489  -2.519  1.00  0.00     0.009 A
HETATM   37  C12 UNL     1      20.671  73.716  -1.889  1.00  0.00     0.015 A
HETATM   38  C13 UNL     1      19.463  73.628  -2.551  1.00  0.00     0.001 A
HETATM   39  C14 UNL     1      19.418  73.307  -3.882  1.00  0.00     0.000 A
HETATM   40  C15 UNL     1      20.616  73.069  -4.556  1.00  0.00     0.001 A
HETATM   41  C16 UNL     1      21.817  73.167  -3.854  1.00  0.00     0.015 A
ENDBRANCH  10  36
TORSDOF 7
ENDMDL