MODEL 3
REMARK VINA RESULT: -9.272739541      7.254      9.449
REMARK  8 active torsions:
REMARK  status: ('A' for Active; 'I' for Inactive)
REMARK    1  A    between atoms: C2_3  and  N2_4
REMARK    2  A    between atoms: C5_14  and  N5_15
REMARK    3  A    between atoms: C7_17  and  C8_18
REMARK    4  A    between atoms: C8_18  and  N6_19
REMARK    5  A    between atoms: N6_19  and  C9_21
REMARK    6  A    between atoms: C9_21  and  C12_24
REMARK    7  A    between atoms: C14_28  and  S1_29
REMARK    8  A    between atoms: S1_29  and  N8_30
ROOT
HETATM    1  N5  UNL     1      26.583  73.346   0.560  1.00  0.00    -0.081 N
HETATM    2  C6  UNL     1      26.989  73.110  -0.694  1.00  0.00     0.164 A
HETATM    3  C7  UNL     1      28.364  72.801  -0.664  1.00  0.00     0.062 A
HETATM    4  N10 UNL     1      28.695  72.883   0.626  1.00  0.00    -0.287 N
ATOM      5  H10 UNL     1      29.630  72.719   1.000  1.00  0.00     0.188 HD
HETATM    6  N11 UNL     1      27.622  73.211   1.360  1.00  0.00    -0.222 N
ATOM      7  H11 UNL     1      27.612  73.337   2.371  1.00  0.00     0.209 HD
ENDROOT
BRANCH   3   8
HETATM    8  C8  UNL     1      29.127  72.415  -1.876  1.00  0.00     0.175 C
BRANCH   8   9
HETATM    9  N6  UNL     1      28.235  72.082  -2.926  1.00  0.00    -0.402 N
ATOM     10  H6  UNL     1      27.396  71.525  -2.764  1.00  0.00     0.154 HD
BRANCH   9  11
HETATM   11  C9  UNL     1      28.574  72.564  -4.212  1.00  0.00     0.077 C
HETATM   12  C10 UNL     1      27.690  71.868  -5.246  1.00  0.00     0.046 C
HETATM   13  C11 UNL     1      30.005  72.152  -4.608  1.00  0.00     0.046 C
BRANCH  11  14
HETATM   14  C12 UNL     1      28.518  74.018  -4.434  1.00  0.00     0.110 A
HETATM   15  N7  UNL     1      29.087  74.754  -5.415  1.00  0.00    -0.351 N
HETATM   16  C13 UNL     1      28.755  76.029  -5.341  1.00  0.00     0.133 A
ATOM     17  H7  UNL     1      29.704  74.368  -6.131  1.00  0.00     0.166 HD
HETATM   18  C14 UNL     1      27.925  76.133  -4.255  1.00  0.00     0.165 A
HETATM   19  N9  UNL     1      27.795  74.927  -3.724  1.00  0.00    -0.332 N
ATOM     20  H9  UNL     1      27.233  74.710  -2.900  1.00  0.00     0.168 HD
BRANCH  18  21
HETATM   21  S1  UNL     1      27.159  77.638  -3.808  1.00  0.00     0.273 S
HETATM   22  O2  UNL     1      26.069  77.866  -4.863  1.00  0.00    -0.199 OA
HETATM   23  O3  UNL     1      28.155  78.761  -3.893  1.00  0.00    -0.199 OA
BRANCH  21  24
HETATM   24  N8  UNL     1      26.391  77.566  -2.257  1.00  0.00    -0.323 N
ATOM     25  H82 UNL     1      25.609  76.943  -2.057  1.00  0.00     0.169 HD
ATOM     26  H81 UNL     1      26.805  78.206  -1.580  1.00  0.00     0.169 HD
ENDBRANCH  21  24
ENDBRANCH  18  21
ENDBRANCH  11  14
ENDBRANCH   9  11
ENDBRANCH   8   9
ENDBRANCH   3   8
BRANCH   1  27
HETATM   27  C5  UNL     1      25.229  73.608   0.935  1.00  0.00     0.706 A
HETATM   28  N4  UNL     1      24.175  73.550   0.075  1.00  0.00    -0.180 N
HETATM   29  C4  UNL     1      23.015  73.763   0.720  1.00  0.00     0.162 A
ATOM     30  H4  UNL     1      24.255  73.370  -0.926  1.00  0.00     0.184 HD
HETATM   31  C3  UNL     1      21.684  73.783   0.341  1.00  0.00     0.290 A
HETATM   32  C15 UNL     1      23.352  73.965   2.040  1.00  0.00     0.171 A
HETATM   33  N3  UNL     1      20.719  73.996   1.236  1.00  0.00    -0.154 N
HETATM   34  O1  UNL     1      21.464  73.591  -0.882  1.00  0.00    -0.265 OA
HETATM   35  C2  UNL     1      21.059  74.193   2.527  1.00  0.00     0.682 A
ATOM     36  H3  UNL     1      19.739  74.010   0.949  1.00  0.00     0.187 HD
HETATM   37  N1  UNL     1      22.336  74.179   2.916  1.00  0.00    -0.170 N
HETATM   38  C1  UNL     1      22.701  74.399   4.286  1.00  0.00     0.177 C
HETATM   39  N12 UNL     1      24.694  73.866   2.135  1.00  0.00    -0.171 N
ATOM     40  H12 UNL     1      25.226  73.972   2.999  1.00  0.00     0.186 HD
BRANCH  35  41
HETATM   41  N2  UNL     1      20.098  74.373   3.365  1.00  0.00    -0.234 N
ATOM     42  H22 UNL     1      20.356  74.632   4.317  1.00  0.00     0.174 HD
ATOM     43  H21 UNL     1      19.120  74.278   3.089  1.00  0.00     0.174 HD
ENDBRANCH  35  41
ENDBRANCH   1  27
TORSDOF 8
ENDMDL