MODEL 5
REMARK VINA RESULT: -9.048861716      5.291      6.935
REMARK  6 active torsions:
REMARK  status: ('A' for Active; 'I' for Inactive)
REMARK    1  A    between atoms: C2_2  and  N1_3
REMARK    2  A    between atoms: C3_4  and  S1_5
REMARK    3  A    between atoms: S1_5  and  C4_6
REMARK    4  A    between atoms: C4_6  and  C5_7
REMARK       I    between atoms: C5_7  and  N2_9
REMARK    5  A    between atoms: C10_21  and  N6_22
REMARK    6  A    between atoms: C12_33  and  C13_34
ROOT
HETATM    1  C5  UNL     1      25.695  74.909  -2.605  1.00  0.00     0.233 C
HETATM    2  O1  UNL     1      24.508  74.839  -3.009  1.00  0.00    -0.272 OA
HETATM    3  N2  UNL     1      26.626  75.513  -3.508  1.00  0.00    -0.311 N
ATOM      4  H2  UNL     1      26.635  76.530  -3.589  1.00  0.00     0.170 HD
HETATM    5  C6  UNL     1      27.446  74.837  -4.218  1.00  0.00     0.135 C
HETATM    6  N3  UNL     1      27.444  73.419  -4.114  1.00  0.00    -0.358 N
ATOM      7  H3  UNL     1      26.674  72.952  -3.636  1.00  0.00     0.162 HD
HETATM    8  C7  UNL     1      28.520  72.628  -4.680  1.00  0.00     0.245 C
HETATM    9  N4  UNL     1      29.202  73.320  -5.733  1.00  0.00    -0.367 N
ATOM     10  H4  UNL     1      29.695  72.765  -6.432  1.00  0.00     0.161 HD
HETATM   11  C8  UNL     1      29.231  74.742  -5.861  1.00  0.00     0.130 A
HETATM   12  C9  UNL     1      28.368  75.503  -5.118  1.00  0.00     0.125 A
HETATM   13  N5  UNL     1      28.392  76.856  -5.237  1.00  0.00    -0.186 N
ATOM     14  H5  UNL     1      27.749  77.422  -4.683  1.00  0.00     0.184 HD
HETATM   15  C10 UNL     1      29.251  77.456  -6.075  1.00  0.00     0.679 A
HETATM   16  N7  UNL     1      30.095  76.705  -6.801  1.00  0.00    -0.154 N
ATOM     17  H7  UNL     1      30.746  77.169  -7.435  1.00  0.00     0.187 HD
HETATM   18  C11 UNL     1      30.114  75.372  -6.723  1.00  0.00     0.288 A
HETATM   19  O2  UNL     1      30.899  74.641  -7.397  1.00  0.00    -0.265 OA
ENDROOT
BRANCH   1  20
HETATM   20  C4  UNL     1      26.082  74.393  -1.285  1.00  0.00     0.185 C
BRANCH  20  21
HETATM   21  S1  UNL     1      24.870  73.147  -0.776  1.00  0.00    -0.083 SA
BRANCH  21  22
HETATM   22  C3  UNL     1      23.885  73.670   0.594  1.00  0.00     0.164 A
HETATM   23  N1  UNL     1      22.563  73.804   0.427  1.00  0.00    -0.292 N
HETATM   24  C16 UNL     1      21.846  74.208   1.509  1.00  0.00     0.281 A
HETATM   25  C12 UNL     1      22.463  74.463   2.711  1.00  0.00     0.160 A
HETATM   26  O3  UNL     1      20.611  74.338   1.372  1.00  0.00    -0.265 OA
HETATM   27  N9  UNL     1      23.804  74.313   2.823  1.00  0.00    -0.290 N
HETATM   28  N8  UNL     1      24.487  73.926   1.785  1.00  0.00    -0.279 N
ATOM     29  H9  UNL     1      24.274  74.501   3.709  1.00  0.00     0.187 HD
ATOM     30  H8  UNL     1      25.497  73.810   1.867  1.00  0.00     0.189 HD
BRANCH  23  31
HETATM   31  C2  UNL     1      21.984  73.522  -0.848  1.00  0.00     0.130 C
HETATM   32  C1  UNL     1      21.486  74.751  -1.571  1.00  0.00     0.027 C
ENDBRANCH  23  31
BRANCH  25  33
HETATM   33  C13 UNL     1      21.709  74.910   3.902  1.00  0.00     0.131 C
HETATM   34  N10 UNL     1      21.959  76.002   4.547  1.00  0.00    -0.373 N
HETATM   35  C14 UNL     1      21.053  76.173   5.670  1.00  0.00     0.141 C
ATOM     36  H10 UNL     1      22.697  76.660   4.298  1.00  0.00     0.161 HD
HETATM   37  C15 UNL     1      19.907  75.252   5.285  1.00  0.00     0.141 C
HETATM   38  N11 UNL     1      20.630  74.240   4.536  1.00  0.00    -0.373 N
ATOM     39  H11 UNL     1      20.407  73.246   4.476  1.00  0.00     0.161 HD
ENDBRANCH  25  33
ENDBRANCH  21  22
ENDBRANCH  20  21
ENDBRANCH   1  20
BRANCH  15  40
HETATM   40  N6  UNL     1      29.270  78.754  -6.185  1.00  0.00    -0.234 N
ATOM     41  H62 UNL     1      29.731  79.323  -5.474  1.00  0.00     0.174 HD
ATOM     42  H61 UNL     1      28.823  79.212  -6.979  1.00  0.00     0.174 HD
ENDBRANCH  15  40
TORSDOF 6
ENDMDL