MODEL 5
REMARK VINA RESULT: -8.865270882      5.165      8.191
REMARK  9 active torsions:
REMARK  status: ('A' for Active; 'I' for Inactive)
REMARK    1  A    between atoms: N1_1  and  S1_4
REMARK    2  A    between atoms: S1_4  and  C1_7
REMARK    3  A    between atoms: C3_11  and  C4_12
REMARK    4  A    between atoms: C4_12  and  C5_13
REMARK    5  A    between atoms: C5_13  and  C6_14
REMARK    6  A    between atoms: C5_13  and  C7_17
REMARK    7  A    between atoms: C8_20  and  C9_21
REMARK       I    between atoms: C9_21  and  N4_23
REMARK    8  A    between atoms: N4_23  and  C10_25
REMARK    9  A    between atoms: C11_34  and  O6_35
ROOT
HETATM    1  C7  UNL     1      27.138  74.361  -3.392  1.00  0.00     0.119 A
HETATM    2  N3  UNL     1      27.128  74.569  -2.022  1.00  0.00    -0.343 N
ATOM      3  H3  UNL     1      26.694  75.418  -1.659  1.00  0.00     0.166 HD
HETATM    4  C8  UNL     1      27.660  73.706  -1.159  1.00  0.00     0.153 A
HETATM    5  C11 UNL     1      28.262  72.541  -1.578  1.00  0.00     0.176 A
HETATM    6  N9  UNL     1      28.284  72.322  -2.890  1.00  0.00    -0.300 N
ATOM      7  H9  UNL     1      28.721  71.470  -3.242  1.00  0.00     0.171 HD
HETATM    8  C12 UNL     1      27.733  73.214  -3.789  1.00  0.00     0.275 A
HETATM    9  O7  UNL     1      27.829  72.890  -4.980  1.00  0.00    -0.266 OA
ENDROOT
BRANCH   1  10
HETATM   10  C5  UNL     1      26.571  75.400  -4.245  1.00  0.00     0.075 C
BRANCH  10  11
HETATM   11  C4  UNL     1      27.200  76.570  -4.173  1.00  0.00     0.058 C
BRANCH  11  12
HETATM   12  C3  UNL     1      27.968  77.280  -5.161  1.00  0.00     0.076 A
HETATM   13  N2  UNL     1      28.348  77.094  -6.405  1.00  0.00    -0.358 N
HETATM   14  C2  UNL     1      29.069  77.965  -7.029  1.00  0.00     0.121 A
ATOM     15  H2  UNL     1      28.068  76.242  -6.889  1.00  0.00     0.166 HD
HETATM   16  C1  UNL     1      29.428  79.100  -6.346  1.00  0.00     0.137 A
HETATM   17  S2  UNL     1      28.693  78.831  -4.832  1.00  0.00    -0.058 SA
BRANCH  16  18
HETATM   18  S1  UNL     1      30.398  80.466  -6.896  1.00  0.00     0.264 S
HETATM   19  O1  UNL     1      30.715  81.389  -5.783  1.00  0.00    -0.200 OA
HETATM   20  O2  UNL     1      31.662  79.966  -7.548  1.00  0.00    -0.200 OA
BRANCH  18  21
HETATM   21  N1  UNL     1      29.478  81.260  -8.123  1.00  0.00    -0.324 N
ATOM     22  H12 UNL     1      29.690  82.194  -8.471  1.00  0.00     0.169 HD
ATOM     23  H11 UNL     1      28.708  80.673  -8.444  1.00  0.00     0.169 HD
ENDBRANCH  18  21
ENDBRANCH  16  18
ENDBRANCH  11  12
ENDBRANCH  10  11
BRANCH  10  24
HETATM   24  C6  UNL     1      25.434  75.264  -5.064  1.00  0.00     0.211 C
HETATM   25  O3  UNL     1      24.297  74.893  -4.586  1.00  0.00    -0.644 OA
HETATM   26  O4  UNL     1      25.364  75.484  -6.417  1.00  0.00    -0.644 OA
ENDBRANCH  10  24
ENDBRANCH   1  10
BRANCH   4  27
HETATM   27  C9  UNL     1      27.609  73.985   0.273  1.00  0.00     0.290 C
HETATM   28  O5  UNL     1      26.568  73.715   0.955  1.00  0.00    -0.265 OA
HETATM   29  N4  UNL     1      28.708  74.563   0.954  1.00  0.00    -0.151 N
ATOM     30  H4  UNL     1      28.901  75.555   0.818  1.00  0.00     0.188 HD
BRANCH  29  31
HETATM   31  C10 UNL     1      29.478  73.881   1.744  1.00  0.00     0.716 A
HETATM   32  N5  UNL     1      30.231  74.449   2.692  1.00  0.00    -0.115 N
HETATM   33  N6  UNL     1      30.872  73.471   3.291  1.00  0.00    -0.213 N
ATOM     34  H5  UNL     1      30.294  75.444   2.907  1.00  0.00     0.207 HD
HETATM   35  N7  UNL     1      30.543  72.321   2.748  1.00  0.00    -0.213 N
ATOM     36  H6  UNL     1      31.528  73.586   4.064  1.00  0.00     0.210 HD
HETATM   37  N8  UNL     1      29.683  72.568   1.792  1.00  0.00    -0.115 N
ATOM     38  H7  UNL     1      30.894  71.402   3.020  1.00  0.00     0.210 HD
ATOM     39  H8  UNL     1      29.245  71.872   1.188  1.00  0.00     0.207 HD
ENDBRANCH  29  31
ENDBRANCH   4  27
BRANCH   5  40
HETATM   40  O6  UNL     1      28.824  71.627  -0.702  1.00  0.00    -0.344 OA
ATOM     41  H6  UNL     1      28.823  70.690  -0.862  1.00  0.00     0.219 HD
ENDBRANCH   5  40
TORSDOF 9
ENDMDL