MODEL 2
REMARK VINA RESULT: -9.377194104      1.113      1.269
REMARK  8 active torsions:
REMARK  status: ('A' for Active; 'I' for Inactive)
REMARK    1  A    between atoms: C2_3  and  N2_4
REMARK    2  A    between atoms: C2_3  and  C13_32
REMARK    3  A    between atoms: N2_4  and  C3_6
REMARK    4  A    between atoms: C3_6  and  C4_7
REMARK    5  A    between atoms: C6_9  and  N3_10
REMARK    6  A    between atoms: C7_15  and  N5_16
REMARK    7  A    between atoms: C9_18  and  N6_19
REMARK    8  A    between atoms: C11_24  and  N7_25
ROOT
HETATM    1  N1  UNL     1      28.480  71.784  -0.674  1.00  0.00    -0.195 NA
HETATM    2  C1  UNL     1      28.083  72.776  -1.145  1.00  0.00     0.090 C
HETATM    3  C2  UNL     1      27.559  74.019  -1.739  1.00  0.00     0.240 C
ENDROOT
BRANCH   3   4
HETATM    4  N2  UNL     1      26.161  74.093  -1.535  1.00  0.00    -0.396 N
ATOM      5  H2  UNL     1      25.782  74.563  -0.714  1.00  0.00     0.155 HD
BRANCH   4   6
HETATM    6  C3  UNL     1      25.298  73.505  -2.489  1.00  0.00     0.173 C
BRANCH   6   7
HETATM    7  C4  UNL     1      23.915  73.491  -1.877  1.00  0.00     0.047 A
HETATM    8  C5  UNL     1      22.818  73.373  -2.704  1.00  0.00     0.075 A
HETATM    9  C6  UNL     1      21.566  73.363  -2.166  1.00  0.00     0.116 A
HETATM   10  N4  UNL     1      21.450  73.469  -0.831  1.00  0.00    -0.177 N
HETATM   11  C7  UNL     1      22.527  73.586   0.000  1.00  0.00     0.682 A
ATOM     12  H4  UNL     1      20.516  73.460  -0.420  1.00  0.00     0.185 HD
HETATM   13  N8  UNL     1      23.760  73.595  -0.538  1.00  0.00    -0.194 N
ATOM     14  H8  UNL     1      24.578  73.680   0.065  1.00  0.00     0.184 HD
BRANCH   9  15
HETATM   15  N3  UNL     1      20.521  73.254  -2.932  1.00  0.00    -0.385 N
ATOM     16  H32 UNL     1      20.508  73.645  -3.874  1.00  0.00     0.157 HD
ATOM     17  H31 UNL     1      19.687  72.770  -2.601  1.00  0.00     0.157 HD
ENDBRANCH   9  15
BRANCH  11  18
HETATM   18  N5  UNL     1      22.272  73.702   1.391  1.00  0.00    -0.214 N
HETATM   19  C8  UNL     1      23.296  74.285   2.222  1.00  0.00     0.174 C
HETATM   20  C9  UNL     1      22.711  74.898   3.478  1.00  0.00     0.204 C
HETATM   21  C10 UNL     1      21.331  75.371   3.170  1.00  0.00     0.069 C
HETATM   22  C11 UNL     1      20.439  74.173   2.944  1.00  0.00     0.204 C
HETATM   23  C12 UNL     1      21.000  73.242   1.894  1.00  0.00     0.174 C
BRANCH  20  24
HETATM   24  N6  UNL     1      23.507  76.078   3.828  1.00  0.00    -0.073 N
ATOM     25  H63 UNL     1      23.091  76.947   3.493  1.00  0.00     0.274 HD
ATOM     26  H62 UNL     1      23.480  76.289   4.826  1.00  0.00     0.274 HD
ATOM     27  H61 UNL     1      24.456  75.939   3.482  1.00  0.00     0.274 HD
ENDBRANCH  20  24
BRANCH  22  28
HETATM   28  N7  UNL     1      20.184  73.486   4.194  1.00  0.00    -0.073 N
ATOM     29  H73 UNL     1      20.593  72.552   4.204  1.00  0.00     0.274 HD
ATOM     30  H72 UNL     1      20.715  73.892   4.965  1.00  0.00     0.274 HD
ATOM     31  H71 UNL     1      19.184  73.464   4.393  1.00  0.00     0.274 HD
ENDBRANCH  22  28
ENDBRANCH  11  18
ENDBRANCH   6   7
ENDBRANCH   4   6
ENDBRANCH   3   4
BRANCH   3  32
HETATM   32  C13 UNL     1      28.061  74.233  -3.096  1.00  0.00     0.096 A
HETATM   33  N9  UNL     1      28.547  73.298  -3.925  1.00  0.00    -0.296 N
HETATM   34  N10 UNL     1      29.007  73.537  -5.140  1.00  0.00    -0.265 N
ATOM     35  H9  UNL     1      28.562  72.333  -3.594  1.00  0.00     0.187 HD
HETATM   36  C14 UNL     1      29.028  74.773  -5.670  1.00  0.00     0.276 A
ATOM     37  H10 UNL     1      29.358  72.757  -5.695  1.00  0.00     0.190 HD
HETATM   38  O1  UNL     1      29.459  75.017  -6.817  1.00  0.00    -0.266 OA
HETATM   39  C15 UNL     1      28.544  75.806  -4.887  1.00  0.00     0.114 A
HETATM   40  C16 UNL     1      28.072  75.533  -3.625  1.00  0.00     0.115 A
HETATM   41  C19 UNL     1      28.519  77.179  -5.361  1.00  0.00     0.170 C
HETATM   42  O2  UNL     1      27.594  76.616  -2.880  1.00  0.00    -0.347 OA
HETATM   43  C17 UNL     1      26.934  77.704  -3.516  1.00  0.00     0.183 C
HETATM   44  C18 UNL     1      27.743  78.222  -4.684  1.00  0.00     0.111 C
HETATM   45  O3  UNL     1      29.172  77.483  -6.373  1.00  0.00    -0.292 OA
ENDBRANCH   3  32
TORSDOF 8
ENDMDL