MODEL 1
REMARK VINA RESULT: -9.139781438      0.000      0.000
REMARK  8 active torsions:
REMARK  status: ('A' for Active; 'I' for Inactive)
REMARK       I    between atoms: C1_4  and  N3_6
REMARK    1  A    between atoms: N3_6  and  C2_8
REMARK    2  A    between atoms: C5_13  and  C6_14
REMARK    3  A    between atoms: C6_14  and  N5_15
REMARK    4  A    between atoms: N9_23  and  C9_24
REMARK    5  A    between atoms: C9_24  and  C10_25
REMARK    6  A    between atoms: C9_24  and  C11_30
REMARK    7  A    between atoms: C10_25  and  N10_26
REMARK       I    between atoms: C11_30  and  N11_32
REMARK    8  A    between atoms: N11_32  and  C12_34
ROOT
HETATM    1  N5  UNL     1      23.327  73.653   0.382  1.00  0.00    -0.253 N
HETATM    2  N6  UNL     1      23.717  73.222   1.560  1.00  0.00    -0.238 N
ATOM      3  H6  UNL     1      23.088  73.040   2.342  1.00  0.00     0.208 HD
HETATM    4  N7  UNL     1      25.023  73.054   1.607  1.00  0.00    -0.279 N
ATOM      5  H7  UNL     1      25.551  72.727   2.415  1.00  0.00     0.189 HD
HETATM    6  C7  UNL     1      25.546  73.384   0.409  1.00  0.00     0.139 A
HETATM    7  C8  UNL     1      26.665  73.513  -0.387  1.00  0.00     0.166 A
HETATM    8  N8  UNL     1      27.989  73.228   0.010  1.00  0.00    -0.078 NA
HETATM    9  N9  UNL     1      26.272  73.952  -1.585  1.00  0.00    -0.260 N
HETATM   10  N13 UNL     1      24.967  74.096  -1.558  1.00  0.00    -0.278 N
ATOM     11  H13 UNL     1      24.412  74.421  -2.350  1.00  0.00     0.189 HD
HETATM   12  C15 UNL     1      24.447  73.765  -0.363  1.00  0.00     0.171 A
ENDROOT
BRANCH   1  13
HETATM   13  C6  UNL     1      21.962  73.952  -0.038  1.00  0.00     0.210 C
BRANCH  13  14
HETATM   14  C5  UNL     1      21.050  73.984   1.160  1.00  0.00     0.047 A
HETATM   15  C4  UNL     1      20.253  72.908   1.451  1.00  0.00     0.045 A
HETATM   16  C3  UNL     1      19.422  72.935   2.541  1.00  0.00     0.108 A
HETATM   17  N4  UNL     1      19.415  74.039   3.306  1.00  0.00    -0.202 N
HETATM   18  C2  UNL     1      20.185  75.109   3.046  1.00  0.00     0.684 A
ATOM     19  H4  UNL     1      18.800  74.067   4.119  1.00  0.00     0.183 HD
HETATM   20  N14 UNL     1      20.995  75.062   1.969  1.00  0.00    -0.194 N
ATOM     21  H14 UNL     1      21.585  75.867   1.759  1.00  0.00     0.184 HD
BRANCH  18  22
HETATM   22  N3  UNL     1      20.140  76.162   3.826  1.00  0.00    -0.164 N
HETATM   23  C1  UNL     1      20.523  76.096   5.184  1.00  0.00     0.200 C
HETATM   24  N1  UNL     1      21.671  76.515   5.536  1.00  0.00    -0.373 N
HETATM   25  N2  UNL     1      19.636  75.567   6.155  1.00  0.00    -0.063 NA
ATOM     26  H12 UNL     1      21.948  76.468   6.516  1.00  0.00     0.158 HD
ATOM     27  H11 UNL     1      22.309  76.897   4.838  1.00  0.00     0.158 HD
ATOM     28  H3  UNL     1      19.819  77.051   3.442  1.00  0.00     0.187 HD
ENDBRANCH  18  22
ENDBRANCH  13  14
ENDBRANCH   1  13
BRANCH   9  29
HETATM   29  C9  UNL     1      27.075  74.242  -2.766  1.00  0.00     0.227 C
BRANCH  29  30
HETATM   30  C10 UNL     1      26.488  73.516  -3.963  1.00  0.00     0.266 C
BRANCH  30  31
HETATM   31  N10 UNL     1      27.345  72.499  -4.487  1.00  0.00    -0.077 N
ATOM     32 3H10 UNL     1      28.289  72.859  -4.629  1.00  0.00     0.274 HD
ATOM     33 2H10 UNL     1      27.540  71.790  -3.779  1.00  0.00     0.274 HD
ATOM     34 1H10 UNL     1      26.989  72.069  -5.340  1.00  0.00     0.274 HD
ENDBRANCH  30  31
ENDBRANCH  29  30
BRANCH  29  35
HETATM   35  C11 UNL     1      27.237  75.675  -2.996  1.00  0.00     0.250 C
HETATM   36  O1  UNL     1      27.714  76.444  -2.130  1.00  0.00    -0.271 OA
HETATM   37  N11 UNL     1      26.845  76.238  -4.237  1.00  0.00    -0.305 N
ATOM     38  H11 UNL     1      26.028  75.898  -4.743  1.00  0.00     0.171 HD
BRANCH  37  39
HETATM   39  C12 UNL     1      27.586  77.219  -4.707  1.00  0.00     0.150 A
HETATM   40  N12 UNL     1      27.732  78.431  -4.169  1.00  0.00    -0.346 N
HETATM   41  C13 UNL     1      28.509  79.286  -4.769  1.00  0.00     0.097 A
ATOM     42  H12 UNL     1      27.246  78.681  -3.308  1.00  0.00     0.167 HD
HETATM   43  C14 UNL     1      29.132  78.891  -5.922  1.00  0.00     0.070 A
HETATM   44  S1  UNL     1      28.569  77.289  -6.096  1.00  0.00    -0.064 SA
ENDBRANCH  37  39
ENDBRANCH  29  35
ENDBRANCH   9  29
TORSDOF 8
ENDMDL