MODEL 4
REMARK VINA RESULT: -10.363331732      0.893      1.016
REMARK  8 active torsions:
REMARK  status: ('A' for Active; 'I' for Inactive)
REMARK    1  A    between atoms: N1_1  and  C1_4
REMARK    2  A    between atoms: C5_15  and  N5_16
REMARK    3  A    between atoms: N5_16  and  C6_18
REMARK    4  A    between atoms: C6_18  and  C7_19
REMARK    5  A    between atoms: C11_25  and  N7_26
REMARK    6  A    between atoms: N7_26  and  C12_28
REMARK    7  A    between atoms: C12_28  and  C13_29
REMARK    8  A    between atoms: N8_31  and  C15_32
ROOT
HETATM    1  C7  UNL     1      27.112  74.753  -0.774  1.00  0.00     0.003 A
HETATM    2  C8  UNL     1      28.462  74.799  -0.561  1.00  0.00     0.014 A
HETATM    3  C9  UNL     1      28.985  74.063   0.483  1.00  0.00     0.018 A
HETATM    4  C10 UNL     1      28.154  73.309   1.278  1.00  0.00     0.089 A
HETATM    5  N6  UNL     1      26.823  73.251   1.086  1.00  0.00    -0.352 N
ATOM      6  H6  UNL     1      26.225  72.686   1.689  1.00  0.00     0.166 HD
HETATM    7  C11 UNL     1      26.309  73.971   0.064  1.00  0.00     0.109 A
ENDROOT
BRANCH   1   8
HETATM    8  C6  UNL     1      26.462  75.495  -1.858  1.00  0.00     0.163 C
BRANCH   8   9
HETATM    9  N5  UNL     1      27.182  75.528  -3.077  1.00  0.00    -0.370 N
ATOM     10  H5  UNL     1      27.467  74.615  -3.431  1.00  0.00     0.161 HD
BRANCH   9  11
HETATM   11  C5  UNL     1      27.527  76.507  -3.794  1.00  0.00     0.132 A
HETATM   12  N4  UNL     1      27.228  77.800  -3.495  1.00  0.00    -0.337 N
HETATM   13  C4  UNL     1      27.602  78.820  -4.262  1.00  0.00     0.182 A
ATOM     14  H4  UNL     1      26.695  77.995  -2.647  1.00  0.00     0.168 HD
HETATM   15  N3  UNL     1      28.301  78.604  -5.377  1.00  0.00    -0.346 N
HETATM   16  C3  UNL     1      28.624  77.338  -5.719  1.00  0.00     0.133 A
ATOM     17  H3  UNL     1      28.588  79.386  -5.965  1.00  0.00     0.167 HD
HETATM   18  C2  UNL     1      29.341  77.106  -6.857  1.00  0.00     0.288 A
HETATM   19  C17 UNL     1      28.246  76.267  -4.940  1.00  0.00     0.125 A
HETATM   20  N2  UNL     1      29.688  75.843  -7.234  1.00  0.00    -0.154 N
HETATM   21  O1  UNL     1      29.732  78.028  -7.635  1.00  0.00    -0.265 OA
HETATM   22  C1  UNL     1      29.307  74.809  -6.457  1.00  0.00     0.679 A
ATOM     23  H2  UNL     1      30.225  75.683  -8.086  1.00  0.00     0.187 HD
HETATM   24  N14 UNL     1      28.603  75.052  -5.343  1.00  0.00    -0.186 N
ATOM     25  H14 UNL     1      28.323  74.256  -4.770  1.00  0.00     0.184 HD
BRANCH  22  26
HETATM   26  N1  UNL     1      29.652  73.626  -6.835  1.00  0.00    -0.234 N
ATOM     27  H12 UNL     1      29.570  72.800  -6.242  1.00  0.00     0.174 HD
ATOM     28  H11 UNL     1      30.029  73.527  -7.778  1.00  0.00     0.174 HD
ENDBRANCH  22  26
ENDBRANCH   9  11
ENDBRANCH   8   9
ENDBRANCH   1   8
BRANCH   7  29
HETATM   29  N7  UNL     1      25.053  73.942  -0.177  1.00  0.00    -0.370 N
ATOM     30  H7  UNL     1      24.709  74.725  -0.732  1.00  0.00     0.161 HD
BRANCH  29  31
HETATM   31  C12 UNL     1      24.065  73.005   0.200  1.00  0.00     0.181 C
BRANCH  31  32
HETATM   32  C13 UNL     1      23.006  73.559   1.097  1.00  0.00     0.058 A
HETATM   33  C14 UNL     1      23.125  73.989   2.392  1.00  0.00     0.144 A
HETATM   34  N8  UNL     1      21.908  74.395   2.775  1.00  0.00    -0.228 N
HETATM   35  N12 UNL     1      21.071  74.214   1.739  1.00  0.00    -0.014 NA
HETATM   36  N13 UNL     1      21.733  73.705   0.713  1.00  0.00    -0.285 N
ATOM     37  H13 UNL     1      21.346  73.469  -0.200  1.00  0.00     0.184 HD
BRANCH  34  38
HETATM   38  C15 UNL     1      21.494  74.931   4.023  1.00  0.00     0.193 A
HETATM   39  N9  UNL     1      22.047  74.782   5.236  1.00  0.00    -0.221 N
HETATM   40  O2  UNL     1      21.358  75.439   6.113  1.00  0.00    -0.153 OA
ATOM     41  H9  UNL     1      22.883  74.234   5.437  1.00  0.00     0.198 HD
HETATM   42  N10 UNL     1      20.338  76.046   5.556  1.00  0.00    -0.222 N
HETATM   43  C16 UNL     1      20.388  75.753   4.248  1.00  0.00     0.169 A
ATOM     44  H10 UNL     1      19.643  76.626   6.026  1.00  0.00     0.198 HD
HETATM   45  N11 UNL     1      19.578  76.138   3.323  1.00  0.00    -0.381 N
ATOM     46 2H11 UNL     1      19.616  75.916   2.328  1.00  0.00     0.157 HD
ATOM     47 1H11 UNL     1      18.770  76.738   3.487  1.00  0.00     0.157 HD
ENDBRANCH  34  38
ENDBRANCH  31  32
ENDBRANCH  29  31
ENDBRANCH   7  29
TORSDOF 8
ENDMDL