MODEL 5
REMARK VINA RESULT: -8.613805632      2.948      6.596
REMARK  7 active torsions:
REMARK  status: ('A' for Active; 'I' for Inactive)
REMARK    1  A    between atoms: C4_7  and  N3_8
REMARK    2  A    between atoms: N3_8  and  C5_10
REMARK    3  A    between atoms: C5_10  and  C6_11
REMARK    4  A    between atoms: C5_10  and  C12_21
REMARK    5  A    between atoms: C6_11  and  N4_12
REMARK    6  A    between atoms: C13_24  and  N8_25
REMARK    7  A    between atoms: C15_32  and  N10_33
ROOT
HETATM    1  C5  UNL     1      27.736  75.787  -5.244  1.00  0.00     0.059 C
ENDROOT
BRANCH   1   2
HETATM    2  N3  UNL     1      27.089  75.736  -4.005  1.00  0.00    -0.341 N
ATOM      3  H3  UNL     1      26.075  75.777  -4.112  1.00  0.00     0.167 HD
BRANCH   2   4
HETATM    4  C4  UNL     1      27.415  75.655  -2.812  1.00  0.00     0.137 A
HETATM    5  C3  UNL     1      28.047  74.600  -2.228  1.00  0.00     0.122 A
HETATM    6  N2  UNL     1      28.491  73.393  -2.606  1.00  0.00    -0.346 N
HETATM    7  C17 UNL     1      28.381  74.650  -0.864  1.00  0.00     0.140 A
HETATM    8  C2  UNL     1      29.049  72.743  -1.593  1.00  0.00     0.184 A
ATOM      9  H2  UNL     1      28.412  73.021  -3.553  1.00  0.00     0.167 HD
HETATM   10  N1  UNL     1      28.989  73.513  -0.491  1.00  0.00    -0.332 N
HETATM   11  C1  UNL     1      29.494  73.154   0.822  1.00  0.00     0.158 C
HETATM   12  N12 UNL     1      28.083  75.738  -0.108  1.00  0.00    -0.336 N
HETATM   13  C16 UNL     1      27.466  76.750  -0.708  1.00  0.00     0.183 A
ATOM     14  H12 UNL     1      28.324  75.776   0.882  1.00  0.00     0.168 HD
HETATM   15  N11 UNL     1      27.140  76.722  -2.004  1.00  0.00    -0.337 N
ATOM     16  H11 UNL     1      26.667  77.531  -2.407  1.00  0.00     0.168 HD
ENDBRANCH   2   4
ENDBRANCH   1   2
BRANCH   1  17
HETATM   17  C6  UNL     1      27.453  77.045  -6.023  1.00  0.00     0.185 C
BRANCH  17  18
HETATM   18  N4  UNL     1      28.382  78.098  -5.883  1.00  0.00    -0.350 N
HETATM   19  C7  UNL     1      28.321  79.072  -4.806  1.00  0.00     0.126 C
HETATM   20  C8  UNL     1      29.596  79.770  -4.505  1.00  0.00     0.021 C
HETATM   21  C9  UNL     1      30.137  80.716  -5.485  1.00  0.00     0.021 C
HETATM   22  C10 UNL     1      29.754  80.577  -6.913  1.00  0.00     0.122 C
HETATM   23  N5  UNL     1      30.061  79.200  -7.330  1.00  0.00    -0.365 N
HETATM   24  C11 UNL     1      29.428  78.154  -6.845  1.00  0.00     0.186 C
ATOM     25  H5  UNL     1      30.794  79.050  -8.024  1.00  0.00     0.162 HD
HETATM   26  N6  UNL     1      29.917  76.915  -7.393  1.00  0.00    -0.064 NA
ENDBRANCH  17  18
ENDBRANCH   1  17
BRANCH   1  27
HETATM   27  C12 UNL     1      27.821  74.550  -5.989  1.00  0.00     0.112 A
HETATM   28  N7  UNL     1      28.892  74.272  -6.766  1.00  0.00    -0.187 N
HETATM   29  C13 UNL     1      29.076  73.105  -7.422  1.00  0.00     0.679 A
ATOM     30  H7  UNL     1      29.609  74.992  -6.864  1.00  0.00     0.184 HD
HETATM   31  N9  UNL     1      28.181  72.139  -7.330  1.00  0.00    -0.154 N
HETATM   32  C14 UNL     1      27.093  72.320  -6.588  1.00  0.00     0.295 A
ATOM     33  H9  UNL     1      28.324  71.258  -7.824  1.00  0.00     0.187 HD
HETATM   34  O1  UNL     1      26.259  71.387  -6.519  1.00  0.00    -0.265 OA
HETATM   35  C15 UNL     1      26.899  73.545  -5.902  1.00  0.00     0.200 A
BRANCH  29  36
HETATM   36  N8  UNL     1      30.143  72.914  -8.155  1.00  0.00    -0.234 N
ATOM     37  H82 UNL     1      30.102  73.125  -9.153  1.00  0.00     0.174 HD
ATOM     38  H81 UNL     1      31.003  72.557  -7.738  1.00  0.00     0.174 HD
ENDBRANCH  29  36
BRANCH  35  39
HETATM   39  N10 UNL     1      25.685  73.563  -5.177  1.00  0.00    -0.107 N
HETATM   40  O2  UNL     1      25.624  72.986  -4.085  1.00  0.00    -0.531 OA
HETATM   41  O3  UNL     1      24.623  74.266  -5.643  1.00  0.00    -0.531 OA
ENDBRANCH  35  39
ENDBRANCH   1  27
TORSDOF 7
ENDMDL