MODEL 3
REMARK VINA RESULT: -9.886836389      2.236      5.665
REMARK  8 active torsions:
REMARK  status: ('A' for Active; 'I' for Inactive)
REMARK    1  A    between atoms: N2_7  and  N3_8
REMARK    2  A    between atoms: C3_11  and  C4_12
REMARK    3  A    between atoms: C8_16  and  C9_17
REMARK       I    between atoms: C9_17  and  N4_19
REMARK    4  A    between atoms: N4_19  and  N5_21
REMARK    5  A    between atoms: N7_27  and  C11_28
REMARK    6  A    between atoms: C11_28  and  C12_29
REMARK    7  A    between atoms: C12_29  and  C13_30
REMARK    8  A    between atoms: C12_29  and  N10_39
ROOT
HETATM    1  N1  UNL     1      29.055  76.429  -6.297  1.00  0.00    -0.380 N
ATOM      2  H11 UNL     1      29.507  75.805  -6.966  1.00  0.00     0.157 HD
ATOM      3  H12 UNL     1      28.851  77.403  -6.520  1.00  0.00     0.157 HD
HETATM    4  C1  UNL     1      28.687  75.941  -5.142  1.00  0.00     0.176 A
HETATM    5  C2  UNL     1      28.062  76.803  -4.217  1.00  0.00     0.310 A
HETATM    6  O1  UNL     1      27.828  77.976  -4.510  1.00  0.00    -0.262 OA
HETATM    7  N2  UNL     1      27.715  76.330  -2.990  1.00  0.00    -0.220 N
HETATM    8  C3  UNL     1      27.973  75.059  -2.675  1.00  0.00     0.102 A
HETATM    9  C10 UNL     1      28.573  74.273  -3.589  1.00  0.00     0.132 A
HETATM   10  N7  UNL     1      28.955  74.664  -4.849  1.00  0.00    -0.310 N
ENDROOT
BRANCH   8  11
HETATM   11  C4  UNL     1      27.682  74.555  -1.329  1.00  0.00     0.063 A
HETATM   12  C5  UNL     1      26.413  74.165  -0.928  1.00  0.00     0.032 A
HETATM   13  C6  UNL     1      26.173  73.634   0.314  1.00  0.00     0.005 A
HETATM   14  C7  UNL     1      27.222  73.488   1.187  1.00  0.00     0.035 A
HETATM   15  C8  UNL     1      28.477  73.866   0.815  1.00  0.00     0.102 A
HETATM   16  N6  UNL     1      28.681  74.388  -0.430  1.00  0.00    -0.350 N
ATOM     17  H6  UNL     1      29.627  74.663  -0.694  1.00  0.00     0.166 HD
BRANCH  15  18
HETATM   18  C9  UNL     1      29.578  73.749   1.751  1.00  0.00     0.286 C
HETATM   19  O2  UNL     1      30.051  74.829   2.264  1.00  0.00    -0.264 OA
HETATM   20  N4  UNL     1      30.170  72.533   2.149  1.00  0.00    -0.271 N
ATOM     21  H4  UNL     1      29.835  71.646   1.774  1.00  0.00     0.189 HD
BRANCH  20  22
HETATM   22  N5  UNL     1      31.242  72.564   3.082  1.00  0.00    -0.342 N
ATOM     23  H52 UNL     1      31.561  73.458   3.454  1.00  0.00     0.176 HD
ATOM     24  H51 UNL     1      31.676  71.684   3.364  1.00  0.00     0.176 HD
ENDBRANCH  20  22
ENDBRANCH  15  18
ENDBRANCH   8  11
BRANCH   7  25
HETATM   25  N3  UNL     1      27.104  77.143  -2.047  1.00  0.00    -0.335 N
ATOM     26  H32 UNL     1      26.345  76.760  -1.483  1.00  0.00     0.177 HD
ATOM     27  H31 UNL     1      27.401  78.108  -1.902  1.00  0.00     0.177 HD
ENDBRANCH   7  25
BRANCH  10  28
HETATM   28  C11 UNL     1      29.525  73.729  -5.728  1.00  0.00     0.136 C
BRANCH  28  29
HETATM   29  C12 UNL     1      29.189  72.359  -5.880  1.00  0.00     0.151 C
BRANCH  29  30
HETATM   30  C13 UNL     1      29.698  71.210  -5.531  1.00  0.00     0.140 A
HETATM   31  N8  UNL     1      29.388  70.556  -4.255  1.00  0.00    -0.302 N
HETATM   32  C14 UNL     1      30.114  69.373  -4.082  1.00  0.00     0.327 A
ATOM     33  H8  UNL     1      28.722  70.921  -3.574  1.00  0.00     0.171 HD
HETATM   34  O3  UNL     1      30.166  68.518  -3.180  1.00  0.00    -0.247 OA
HETATM   35  N9  UNL     1      30.947  69.189  -5.251  1.00  0.00    -0.274 N
HETATM   36  C15 UNL     1      30.678  70.302  -6.105  1.00  0.00     0.278 A
ATOM     37  H9  UNL     1      31.593  68.420  -5.430  1.00  0.00     0.173 HD
HETATM   38  O4  UNL     1      31.267  70.398  -7.191  1.00  0.00    -0.265 OA
ENDBRANCH  29  30
BRANCH  29  39
HETATM   39  N10 UNL     1      27.909  72.210  -6.632  1.00  0.00    -0.112 N
HETATM   40  O5  UNL     1      27.106  71.425  -6.164  1.00  0.00    -0.532 OA
HETATM   41  O6  UNL     1      27.712  72.924  -7.743  1.00  0.00    -0.532 OA
ENDBRANCH  29  39
ENDBRANCH  28  29
ENDBRANCH  10  28
TORSDOF 8
ENDMDL