MODEL 3
REMARK VINA RESULT: -9.091482596      3.255      7.390
REMARK  9 active torsions:
REMARK  status: ('A' for Active; 'I' for Inactive)
REMARK    1  A    between atoms: C2_2  and  O1_3
REMARK    2  A    between atoms: C2_2  and  C3_5
REMARK    3  A    between atoms: C3_5  and  N1_6
REMARK    4  A    between atoms: C3_5  and  C4_10
REMARK    5  A    between atoms: N3_13  and  C5_14
REMARK    6  A    between atoms: C6_17  and  N5_18
REMARK    7  A    between atoms: N5_18  and  C7_20
REMARK    8  A    between atoms: C10_23  and  S1_24
REMARK    9  A    between atoms: S1_24  and  N6_25
ROOT
HETATM    1  C5  UNL     1      25.261  73.808  -2.369  1.00  0.00     0.737 A
HETATM    2  N4  UNL     1      24.993  73.379  -1.120  1.00  0.00    -0.019 N
ATOM      3  H4  UNL     1      24.149  72.830  -0.962  1.00  0.00     0.203 HD
HETATM    4  C6  UNL     1      25.795  73.645  -0.076  1.00  0.00     0.703 A
HETATM    5  N7  UNL     1      26.898  74.372  -0.335  1.00  0.00    -0.136 N
HETATM    6  C13 UNL     1      27.822  74.709   0.729  1.00  0.00     0.180 C
HETATM    7  C14 UNL     1      27.192  74.814  -1.572  1.00  0.00     0.354 A
HETATM    8  O4  UNL     1      28.236  75.488  -1.747  1.00  0.00    -0.245 OA
HETATM    9  N8  UNL     1      26.367  74.530  -2.595  1.00  0.00    -0.138 N
ATOM     10  H8  UNL     1      26.582  74.861  -3.535  1.00  0.00     0.189 HD
ENDROOT
BRANCH   1  11
HETATM   11  N3  UNL     1      24.386  73.507  -3.458  1.00  0.00     0.092 N
HETATM   12  N2  UNL     1      23.082  73.702  -3.474  1.00  0.00    -0.250 N
HETATM   13  C4  UNL     1      22.594  73.303  -4.657  1.00  0.00     0.146 A
ATOM     14  H2  UNL     1      22.533  74.095  -2.709  1.00  0.00     0.190 HD
HETATM   15  N10 UNL     1      23.627  72.851  -5.384  1.00  0.00    -0.175 N
HETATM   16  C15 UNL     1      24.740  72.982  -4.629  1.00  0.00     0.713 A
ATOM     17  H10 UNL     1      23.580  72.477  -6.332  1.00  0.00     0.185 HD
HETATM   18  N9  UNL     1      25.950  72.658  -4.967  1.00  0.00    -0.232 N
ATOM     19  H92 UNL     1      26.790  72.756  -4.397  1.00  0.00     0.174 HD
ATOM     20  H91 UNL     1      26.222  72.255  -5.865  1.00  0.00     0.174 HD
BRANCH  13  21
HETATM   21  C3  UNL     1      21.171  73.337  -5.122  1.00  0.00     0.280 C
BRANCH  21  22
HETATM   22  C2  UNL     1      20.794  74.775  -5.411  1.00  0.00     0.152 C
HETATM   23  C1  UNL     1      20.174  74.804  -6.812  1.00  0.00     0.042 C
BRANCH  22  24
HETATM   24  O1  UNL     1      21.889  75.615  -5.439  1.00  0.00    -0.393 OA
ATOM     25  H1  UNL     1      22.471  75.334  -4.743  1.00  0.00     0.210 HD
ENDBRANCH  22  24
ENDBRANCH  21  22
BRANCH  21  26
HETATM   26  N1  UNL     1      20.294  72.845  -4.080  1.00  0.00    -0.066 N
ATOM     27  H13 UNL     1      19.308  72.981  -4.297  1.00  0.00     0.275 HD
ATOM     28  H12 UNL     1      20.281  71.827  -4.023  1.00  0.00     0.275 HD
ATOM     29  H11 UNL     1      20.570  73.285  -3.201  1.00  0.00     0.275 HD
ENDBRANCH  21  26
ENDBRANCH  13  21
ENDBRANCH   1  11
BRANCH   4  30
HETATM   30  N5  UNL     1      25.580  73.261   1.110  1.00  0.00    -0.191 N
ATOM     31  H5  UNL     1      26.225  72.576   1.504  1.00  0.00     0.184 HD
BRANCH  30  32
HETATM   32  C7  UNL     1      24.513  73.703   1.938  1.00  0.00     0.049 A
HETATM   33  C8  UNL     1      23.192  73.387   1.698  1.00  0.00     0.031 A
HETATM   34  C9  UNL     1      22.182  73.837   2.529  1.00  0.00     0.027 A
HETATM   35  C10 UNL     1      22.448  74.623   3.634  1.00  0.00     0.079 A
HETATM   36  C11 UNL     1      23.768  74.942   3.877  1.00  0.00     0.027 A
HETATM   37  C12 UNL     1      24.773  74.488   3.042  1.00  0.00     0.031 A
BRANCH  35  38
HETATM   38  S1  UNL     1      21.167  75.193   4.685  1.00  0.00     0.256 S
HETATM   39  O2  UNL     1      20.041  74.205   4.753  1.00  0.00    -0.201 OA
HETATM   40  O3  UNL     1      21.668  75.381   6.093  1.00  0.00    -0.201 OA
BRANCH  38  41
HETATM   41  N6  UNL     1      20.539  76.701   4.158  1.00  0.00    -0.324 N
ATOM     42  H62 UNL     1      20.849  77.171   3.307  1.00  0.00     0.169 HD
ATOM     43  H61 UNL     1      19.829  77.058   4.798  1.00  0.00     0.169 HD
ENDBRANCH  38  41
ENDBRANCH  35  38
ENDBRANCH  30  32
ENDBRANCH   4  30
TORSDOF 9
ENDMDL