MODEL 2
REMARK VINA RESULT: -8.217106222      1.735      2.156
REMARK  9 active torsions:
REMARK  status: ('A' for Active; 'I' for Inactive)
REMARK    1  A    between atoms: N1_1  and  C1_4
REMARK    2  A    between atoms: N5_13  and  C4_14
REMARK    3  A    between atoms: C4_14  and  C5_15
REMARK    4  A    between atoms: N7_22  and  C9_23
REMARK    5  A    between atoms: C9_23  and  C10_24
REMARK    6  A    between atoms: C14_31  and  S1_32
REMARK    7  A    between atoms: S1_32  and  N9_33
REMARK    8  A    between atoms: S1_32  and  N10_37
REMARK    9  A    between atoms: N10_37  and  O3_39
ROOT
HETATM    1  C5  UNL     1      29.075  75.565  -5.563  1.00  0.00     0.268 C
HETATM    2  C6  UNL     1      30.228  75.257  -6.508  1.00  0.00     0.270 C
HETATM    3  N6  UNL     1      29.826  74.463  -7.636  1.00  0.00    -0.071 N
ATOM      4  H61 UNL     1      30.532  74.410  -8.370  1.00  0.00     0.277 HD
ATOM      5  H62 UNL     1      29.095  74.897  -8.199  1.00  0.00     0.277 HD
HETATM    6  C7  UNL     1      29.449  73.161  -7.095  1.00  0.00     0.262 C
HETATM    7  C8  UNL     1      29.138  73.227  -5.649  1.00  0.00     0.300 C
HETATM    8  N7  UNL     1      28.344  74.375  -5.235  1.00  0.00     0.103 N
ENDROOT
BRANCH   8   9
HETATM    9  C9  UNL     1      28.077  74.182  -3.841  1.00  0.00     0.331 C
BRANCH   9  10
HETATM   10  C10 UNL     1      26.684  73.943  -3.445  1.00  0.00     0.062 A
HETATM   11  N8  UNL     1      25.749  73.401  -4.239  1.00  0.00    -0.324 N
HETATM   12  C11 UNL     1      24.485  73.118  -3.867  1.00  0.00     0.245 A
ATOM     13  H8  UNL     1      26.015  73.186  -5.199  1.00  0.00     0.169 HD
HETATM   14  O1  UNL     1      23.676  72.611  -4.680  1.00  0.00    -0.268 OA
HETATM   15  C12 UNL     1      24.057  73.382  -2.584  1.00  0.00     0.076 A
HETATM   16  C13 UNL     1      24.963  73.936  -1.715  1.00  0.00     0.031 A
HETATM   17  C14 UNL     1      26.259  74.214  -2.138  1.00  0.00     0.084 A
BRANCH  17  18
HETATM   18  S1  UNL     1      27.380  74.917  -1.023  1.00  0.00     0.157 S
HETATM   19  O2  UNL     1      28.716  74.245  -1.217  1.00  0.00    -0.222 OA
BRANCH  18  20
HETATM   20  N9  UNL     1      26.880  74.940   0.600  1.00  0.00    -0.339 N
ATOM     21  H92 UNL     1      27.542  75.103   1.358  1.00  0.00     0.167 HD
ATOM     22  H91 UNL     1      25.883  74.781   0.754  1.00  0.00     0.167 HD
ENDBRANCH  18  20
BRANCH  18  23
HETATM   23  N10 UNL     1      27.605  76.445  -1.430  1.00  0.00    -0.207 N
ATOM     24  H10 UNL     1      28.514  76.894  -1.309  1.00  0.00     0.206 HD
BRANCH  23  25
HETATM   25  O3  UNL     1      26.535  77.138  -1.950  1.00  0.00    -0.281 OA
ATOM     26  H3  UNL     1      25.668  76.930  -1.623  1.00  0.00     0.245 HD
ENDBRANCH  23  25
ENDBRANCH  18  23
ENDBRANCH  17  18
ENDBRANCH   9  10
ENDBRANCH   8   9
BRANCH   1  27
HETATM   27  C4  UNL     1      28.364  76.774  -5.986  1.00  0.00     0.189 C
BRANCH  27  28
HETATM   28  N5  UNL     1      29.088  78.028  -5.782  1.00  0.00    -0.249 N
HETATM   29  C3  UNL     1      29.322  78.523  -4.518  1.00  0.00     0.219 A
HETATM   30  N4  UNL     1      29.946  79.677  -4.646  1.00  0.00    -0.183 N
HETATM   31  C2  UNL     1      30.123  79.947  -5.964  1.00  0.00     0.734 A
ATOM     32  H4  UNL     1      30.247  80.274  -3.875  1.00  0.00     0.185 HD
HETATM   33  N3  UNL     1      30.604  80.834  -6.845  1.00  0.00    -0.115 N
HETATM   34  N11 UNL     1      29.577  78.901  -6.621  1.00  0.00     0.095 N
HETATM   35  N2  UNL     1      30.379  80.387  -8.057  1.00  0.00    -0.116 N
ATOM     36  H3  UNL     1      31.068  81.711  -6.612  1.00  0.00     0.206 HD
HETATM   37  C1  UNL     1      29.737  79.180  -7.928  1.00  0.00     0.727 A
ATOM     38  H2  UNL     1      30.633  80.849  -8.930  1.00  0.00     0.206 HD
BRANCH  37  39
HETATM   39  N1  UNL     1      29.378  78.526  -8.957  1.00  0.00    -0.231 N
ATOM     40  H12 UNL     1      29.907  78.265  -9.789  1.00  0.00     0.174 HD
ATOM     41  H11 UNL     1      28.430  78.157  -9.031  1.00  0.00     0.174 HD
ENDBRANCH  37  39
ENDBRANCH  27  28
ENDBRANCH   1  27
TORSDOF 9
ENDMDL