MODEL 4
REMARK VINA RESULT: -8.483840704      5.292      9.594
REMARK  9 active torsions:
REMARK  status: ('A' for Active; 'I' for Inactive)
REMARK    1  A    between atoms: C3_6  and  N3_7
REMARK    2  A    between atoms: N3_7  and  C4_9
REMARK    3  A    between atoms: C5_12  and  N5_13
REMARK    4  A    between atoms: C7_15  and  N6_16
REMARK    5  A    between atoms: C9_21  and  N7_22
REMARK    6  A    between atoms: C11_29  and  N9_30
REMARK    7  A    between atoms: C13_32  and  N10_33
REMARK    8  A    between atoms: C15_38  and  N11_39
REMARK    9  A    between atoms: N11_39  and  C16_41
ROOT
HETATM    1  C4  UNL     1      28.616  75.431  -5.833  1.00  0.00     0.707 A
HETATM    2  N4  UNL     1      28.973  74.482  -6.708  1.00  0.00    -0.021 N
ATOM      3  H4  UNL     1      29.106  74.712  -7.693  1.00  0.00     0.203 HD
HETATM    4  C5  UNL     1      29.152  73.237  -6.278  1.00  0.00     0.709 A
HETATM    5  N8  UNL     1      28.982  72.914  -4.983  1.00  0.00    -0.021 N
ATOM      6  H8  UNL     1      29.127  71.951  -4.679  1.00  0.00     0.203 HD
HETATM    7  C11 UNL     1      28.626  73.843  -4.090  1.00  0.00     0.709 A
HETATM    8  N12 UNL     1      28.446  75.095  -4.523  1.00  0.00    -0.021 N
ATOM      9  H12 UNL     1      28.175  75.817  -3.857  1.00  0.00     0.203 HD
ENDROOT
BRANCH   4  10
HETATM   10  N5  UNL     1      29.528  72.221  -7.189  1.00  0.00    -0.213 N
HETATM   11  C6  UNL     1      30.485  72.549  -8.227  1.00  0.00     0.174 C
HETATM   12  C7  UNL     1      30.967  71.215  -8.802  1.00  0.00     0.204 C
HETATM   13  C8  UNL     1      31.285  70.329  -7.632  1.00  0.00     0.069 C
HETATM   14  C9  UNL     1      29.983  69.805  -7.065  1.00  0.00     0.204 C
HETATM   15  C10 UNL     1      28.954  70.898  -7.059  1.00  0.00     0.174 C
BRANCH  12  16
HETATM   16  N6  UNL     1      32.097  71.511  -9.635  1.00  0.00    -0.073 N
ATOM     17  H63 UNL     1      31.927  72.276 -10.289  1.00  0.00     0.274 HD
ATOM     18  H62 UNL     1      32.868  71.946  -9.128  1.00  0.00     0.274 HD
ATOM     19  H61 UNL     1      32.358  70.639 -10.095  1.00  0.00     0.274 HD
ENDBRANCH  12  16
BRANCH  14  20
HETATM   20  N7  UNL     1      30.279  69.375  -5.695  1.00  0.00    -0.073 N
ATOM     21  H73 UNL     1      30.165  68.371  -5.552  1.00  0.00     0.274 HD
ATOM     22  H72 UNL     1      31.270  69.423  -5.459  1.00  0.00     0.274 HD
ATOM     23  H71 UNL     1      29.688  69.941  -5.086  1.00  0.00     0.274 HD
ENDBRANCH  14  20
ENDBRANCH   4  10
BRANCH   1  24
HETATM   24  N3  UNL     1      28.451  76.617  -6.276  1.00  0.00    -0.218 N
ATOM     25  H3  UNL     1      27.515  76.946  -6.511  1.00  0.00     0.178 HD
BRANCH  24  26
HETATM   26  C3  UNL     1      29.578  77.490  -6.445  1.00  0.00     0.123 C
HETATM   27  C2  UNL     1      29.393  78.300  -7.702  1.00  0.00     0.146 C
HETATM   28  N2  UNL     1      30.135  79.503  -7.436  1.00  0.00    -0.380 N
HETATM   29  C1  UNL     1      30.238  79.712  -6.176  1.00  0.00     0.090 C
ATOM     30  H2  UNL     1      30.527  80.110  -8.156  1.00  0.00     0.160 HD
HETATM   31  N1  UNL     1      30.897  80.795  -5.524  1.00  0.00    -0.088 NA
HETATM   32  C18 UNL     1      29.552  78.616  -5.395  1.00  0.00     0.100 C
ENDBRANCH  24  26
ENDBRANCH   1  24
BRANCH   7  33
HETATM   33  N9  UNL     1      28.456  73.465  -2.732  1.00  0.00    -0.213 N
HETATM   34  C12 UNL     1      29.565  72.881  -2.007  1.00  0.00     0.174 C
HETATM   35  C13 UNL     1      29.316  72.956  -0.538  1.00  0.00     0.204 C
HETATM   36  C14 UNL     1      28.767  74.335  -0.218  1.00  0.00     0.061 C
HETATM   37  C15 UNL     1      27.416  74.547  -0.840  1.00  0.00     0.104 C
HETATM   38  C17 UNL     1      27.193  73.642  -2.037  1.00  0.00     0.166 C
BRANCH  35  39
HETATM   39  N10 UNL     1      28.486  71.881  -0.093  1.00  0.00    -0.073 N
ATOM     40 3H10 UNL     1      28.971  71.290   0.583  1.00  0.00     0.274 HD
ATOM     41 2H10 UNL     1      27.730  72.215   0.504  1.00  0.00     0.274 HD
ATOM     42 1H10 UNL     1      28.129  71.335  -0.878  1.00  0.00     0.274 HD
ENDBRANCH  35  39
BRANCH  37  43
HETATM   43  N11 UNL     1      26.364  74.420   0.133  1.00  0.00    -0.362 N
ATOM     44  H11 UNL     1      26.354  75.015   0.962  1.00  0.00     0.162 HD
BRANCH  43  45
HETATM   45  C16 UNL     1      25.345  73.461  -0.072  1.00  0.00     0.348 C
HETATM   46  O1  UNL     1      24.461  73.237   0.811  1.00  0.00    -0.284 OA
ENDBRANCH  43  45
ENDBRANCH  37  43
ENDBRANCH   7  33
TORSDOF 9
ENDMDL