MODEL 3
REMARK VINA RESULT: -8.821534137      3.217      5.634
REMARK  7 active torsions:
REMARK  status: ('A' for Active; 'I' for Inactive)
REMARK    1  A    between atoms: N3_8  and  C4_10
REMARK    2  A    between atoms: C4_10  and  C5_11
REMARK    3  A    between atoms: C5_11  and  C6_12
REMARK    4  A    between atoms: C6_12  and  S1_13
REMARK    5  A    between atoms: S1_13  and  C7_14
REMARK    6  A    between atoms: N6_20  and  N7_21
REMARK    7  A    between atoms: C11_30  and  N10_31
ROOT
HETATM    1  C1  UNL     1      30.613  73.048   2.914  1.00  0.00     0.165 C
HETATM    2  N1  UNL     1      30.614  72.925   1.484  1.00  0.00    -0.229 N
ATOM      3  H1  UNL     1      31.498  72.752   1.004  1.00  0.00     0.177 HD
HETATM    4  C2  UNL     1      29.536  73.024   0.786  1.00  0.00     0.706 A
HETATM    5  N2  UNL     1      29.582  72.896  -0.634  1.00  0.00    -0.021 N
ATOM      6  H2  UNL     1      30.474  72.726  -1.099  1.00  0.00     0.203 HD
HETATM    7  C3  UNL     1      28.390  73.004  -1.406  1.00  0.00     0.717 A
HETATM    8  N3  UNL     1      28.414  72.892  -2.669  1.00  0.00    -0.224 N
ATOM      9  H3  UNL     1      27.515  72.984  -3.142  1.00  0.00     0.177 HD
HETATM   10  N8  UNL     1      27.151  73.243  -0.742  1.00  0.00     0.064 N
HETATM   11  C9  UNL     1      26.042  73.326  -1.636  1.00  0.00     0.315 C
HETATM   12  O1  UNL     1      26.351  73.301  -2.847  1.00  0.00    -0.264 OA
HETATM   13  C10 UNL     1      24.623  73.434  -1.321  1.00  0.00     0.164 A
HETATM   14  N9  UNL     1      23.614  73.359  -2.208  1.00  0.00    -0.182 N
ATOM     15  H9  UNL     1      23.718  73.219  -3.213  1.00  0.00     0.184 HD
HETATM   16  C11 UNL     1      22.431  73.500  -1.546  1.00  0.00     0.680 A
HETATM   17  N11 UNL     1      22.663  73.666  -0.240  1.00  0.00    -0.173 N
ATOM     18  H11 UNL     1      21.969  73.795   0.496  1.00  0.00     0.186 HD
HETATM   19  C13 UNL     1      24.023  73.626  -0.092  1.00  0.00     0.169 A
HETATM   20  N12 UNL     1      24.710  73.758   1.136  1.00  0.00    -0.269 N
ATOM     21  H12 UNL     1      24.121  74.022   1.926  1.00  0.00     0.189 HD
HETATM   22  N13 UNL     1      26.050  73.590   1.449  1.00  0.00    -0.129 N
ATOM     23  H13 UNL     1      26.271  73.644   2.443  1.00  0.00     0.205 HD
HETATM   24  C14 UNL     1      27.067  73.377   0.675  1.00  0.00     0.735 A
HETATM   25  N14 UNL     1      28.288  73.262   1.424  1.00  0.00    -0.019 N
ATOM     26  H14 UNL     1      28.259  73.354   2.440  1.00  0.00     0.203 HD
ENDROOT
BRANCH   8  27
HETATM   27  C4  UNL     1      29.540  72.653  -3.513  1.00  0.00     0.139 C
BRANCH  27  28
HETATM   28  C5  UNL     1      29.348  73.418  -4.828  1.00  0.00     0.031 C
BRANCH  28  29
HETATM   29  C6  UNL     1      29.061  74.843  -4.462  1.00  0.00     0.084 C
BRANCH  29  30
HETATM   30  S1  UNL     1      28.839  75.880  -5.861  1.00  0.00    -0.091 SA
BRANCH  30  31
HETATM   31  C7  UNL     1      29.372  77.558  -5.735  1.00  0.00     0.181 A
HETATM   32  N4  UNL     1      30.294  78.036  -6.630  1.00  0.00    -0.277 N
HETATM   33  N5  UNL     1      30.505  79.300  -6.360  1.00  0.00    -0.292 N
ATOM     34  H4  UNL     1      30.738  77.500  -7.375  1.00  0.00     0.189 HD
HETATM   35  C8  UNL     1      29.750  79.656  -5.320  1.00  0.00     0.225 A
ATOM     36  H5  UNL     1      31.145  79.914  -6.864  1.00  0.00     0.187 HD
HETATM   37  N6  UNL     1      29.056  78.565  -4.948  1.00  0.00    -0.234 N
BRANCH  37  38
HETATM   38  N7  UNL     1      28.121  78.513  -3.905  1.00  0.00    -0.336 N
ATOM     39  H72 UNL     1      28.295  78.795  -2.941  1.00  0.00     0.177 HD
ATOM     40  H71 UNL     1      27.153  78.206  -3.997  1.00  0.00     0.177 HD
ENDBRANCH  37  38
ENDBRANCH  30  31
ENDBRANCH  29  30
ENDBRANCH  28  29
ENDBRANCH  27  28
ENDBRANCH   8  27
BRANCH  16  41
HETATM   41  N10 UNL     1      21.300  73.464  -2.144  1.00  0.00    -0.230 N
HETATM   42  C12 UNL     1      20.058  73.994  -1.641  1.00  0.00     0.165 C
ATOM     43  H10 UNL     1      21.275  73.018  -3.062  1.00  0.00     0.177 HD
ENDBRANCH  16  41
TORSDOF 7
ENDMDL