MODEL 4
REMARK VINA RESULT: -8.248188417      1.458      1.919
REMARK  9 active torsions:
REMARK  status: ('A' for Active; 'I' for Inactive)
REMARK    1  A    between atoms: N1_1  and  N2_4
REMARK    2  A    between atoms: N2_4  and  C1_5
REMARK    3  A    between atoms: C1_5  and  O1_6
REMARK    4  A    between atoms: N4_9  and  N5_10
REMARK    5  A    between atoms: N6_13  and  S1_14
REMARK    6  A    between atoms: S1_14  and  C2_15
REMARK    7  A    between atoms: C2_15  and  C3_16
REMARK    8  A    between atoms: C6_19  and  S2_20
REMARK    9  A    between atoms: S2_20  and  N7_23
ROOT
HETATM    1  C2  UNL     1      22.680  73.594  -0.629  1.00  0.00     0.137 C
ENDROOT
BRANCH   1   2
HETATM    2  S1  UNL     1      23.205  73.386   1.078  1.00  0.00    -0.024 SA
BRANCH   2   3
HETATM    3  N6  UNL     1      22.787  74.520   2.255  1.00  0.00    -0.176 N
HETATM    4  N4  UNL     1      23.707  75.367   2.985  1.00  0.00    -0.032 NA
HETATM    5  N3  UNL     1      23.366  74.903   4.290  1.00  0.00    -0.056 NA
HETATM    6  C1  UNL     1      21.903  75.009   4.322  1.00  0.00     0.325 C
HETATM    7  C13 UNL     1      21.531  74.899   2.873  1.00  0.00     0.320 C
HETATM    8  O4  UNL     1      20.453  75.067   2.272  1.00  0.00    -0.264 OA
BRANCH   4   9
HETATM    9  N5  UNL     1      25.012  74.923   2.706  1.00  0.00    -0.329 NA
ATOM     10  H52 UNL     1      25.296  74.298   3.461  1.00  0.00     0.174 HD
ATOM     11  H51 UNL     1      25.650  75.685   2.933  1.00  0.00     0.174 HD
ENDBRANCH   4   9
BRANCH   6  12
HETATM   12  N2  UNL     1      21.323  73.876   5.011  1.00  0.00    -0.081 NA
BRANCH  12  13
HETATM   13  N1  UNL     1      19.922  73.884   4.982  1.00  0.00    -0.344 N
ATOM     14  H12 UNL     1      19.383  73.544   4.185  1.00  0.00     0.172 HD
ATOM     15  H11 UNL     1      19.512  74.262   5.836  1.00  0.00     0.172 HD
ENDBRANCH  12  13
ENDBRANCH   6  12
BRANCH   6  16
HETATM   16  O1  UNL     1      21.488  76.214   4.835  1.00  0.00    -0.351 OA
ATOM     17  H1  UNL     1      20.698  76.538   4.420  1.00  0.00     0.214 HD
ENDBRANCH   6  16
ENDBRANCH   2   3
ENDBRANCH   1   2
BRANCH   1  18
HETATM   18  C3  UNL     1      23.912  73.575  -1.485  1.00  0.00    -0.047 A
HETATM   19  C4  UNL     1      23.939  73.623  -2.828  1.00  0.00     0.009 A
HETATM   20  C5  UNL     1      25.167  73.698  -3.541  1.00  0.00     0.025 A
HETATM   21  C6  UNL     1      26.390  73.730  -2.891  1.00  0.00     0.074 A
HETATM   22  C11 UNL     1      26.331  73.674  -1.504  1.00  0.00     0.025 A
HETATM   23  C12 UNL     1      25.146  73.604  -0.820  1.00  0.00     0.009 A
BRANCH  21  24
HETATM   24  S2  UNL     1      27.922  73.915  -3.744  1.00  0.00     0.244 S
HETATM   25  O2  UNL     1      28.802  74.812  -2.887  1.00  0.00    -0.206 OA
HETATM   26  O3  UNL     1      28.635  72.558  -3.692  1.00  0.00    -0.206 OA
BRANCH  24  27
HETATM   27  N7  UNL     1      27.773  74.403  -5.334  1.00  0.00    -0.197 NA
HETATM   28  C7  UNL     1      27.507  75.767  -5.613  1.00  0.00     0.152 C
HETATM   29  C8  UNL     1      28.730  76.644  -5.574  1.00  0.00     0.075 C
HETATM   30  N8  UNL     1      29.945  75.959  -5.479  1.00  0.00    -0.380 N
HETATM   31  C9  UNL     1      30.128  74.667  -5.958  1.00  0.00     0.075 C
ATOM     32  H8  UNL     1      30.736  76.429  -5.037  1.00  0.00     0.164 HD
HETATM   33  C10 UNL     1      28.840  73.896  -6.202  1.00  0.00     0.152 C
ENDBRANCH  24  27
ENDBRANCH  21  24
ENDBRANCH   1  18
TORSDOF 9
ENDMDL