MODEL 2
REMARK VINA RESULT: -9.953307732      2.898      8.510
REMARK  6 active torsions:
REMARK  status: ('A' for Active; 'I' for Inactive)
REMARK    1  A    between atoms: C1_2  and  C2_4
REMARK    2  A    between atoms: C4_9  and  N3_10
REMARK    3  A    between atoms: N3_10  and  N4_12
REMARK    4  A    between atoms: N4_12  and  C5_14
REMARK    5  A    between atoms: C9_18  and  S1_19
REMARK    6  A    between atoms: S1_19  and  N5_20
ROOT
HETATM    1  C2  UNL     1      21.903  74.287   3.615  1.00  0.00     0.117 C
HETATM    2  C3  UNL     1      23.214  74.425   4.074  1.00  0.00     0.276 C
HETATM    3  O2  UNL     1      23.333  74.907   5.211  1.00  0.00    -0.267 OA
HETATM    4  N2  UNL     1      24.305  74.071   3.362  1.00  0.00    -0.154 N
ATOM      5  H2  UNL     1      25.184  74.372   3.782  1.00  0.00     0.187 HD
HETATM    6  C4  UNL     1      24.459  73.394   2.199  1.00  0.00     0.701 C
HETATM    7  N6  UNL     1      23.475  73.176   1.284  1.00  0.00    -0.174 N
ATOM      8  H6  UNL     1      23.644  72.459   0.579  1.00  0.00     0.186 HD
HETATM    9  C11 UNL     1      22.273  73.840   1.231  1.00  0.00     0.142 A
HETATM   10  N7  UNL     1      21.781  73.995  -0.003  1.00  0.00    -0.293 N
ATOM     11  H7  UNL     1      22.284  73.611  -0.803  1.00  0.00     0.172 HD
HETATM   12  C12 UNL     1      20.623  74.655  -0.192  1.00  0.00     0.328 A
HETATM   13  O5  UNL     1      20.178  74.785  -1.380  1.00  0.00    -0.247 OA
HETATM   14  N8  UNL     1      19.935  75.174   0.838  1.00  0.00    -0.275 N
ATOM     15  H8  UNL     1      19.061  75.669   0.659  1.00  0.00     0.173 HD
HETATM   16  C13 UNL     1      20.379  75.051   2.099  1.00  0.00     0.264 A
HETATM   17  O6  UNL     1      19.776  75.521   3.066  1.00  0.00    -0.267 OA
HETATM   18  C14 UNL     1      21.552  74.379   2.277  1.00  0.00     0.098 A
ENDROOT
BRANCH   6  19
HETATM   19  N3  UNL     1      25.761  72.914   1.979  1.00  0.00    -0.131 N
ATOM     20  H3  UNL     1      25.871  71.915   2.154  1.00  0.00     0.205 HD
BRANCH  19  21
HETATM   21  N4  UNL     1      26.900  73.536   1.576  1.00  0.00    -0.287 N
ATOM     22  H4  UNL     1      27.369  74.064   2.312  1.00  0.00     0.187 HD
BRANCH  21  23
HETATM   23  C5  UNL     1      27.551  73.588   0.335  1.00  0.00     0.050 A
HETATM   24  C6  UNL     1      28.532  72.698  -0.011  1.00  0.00     0.031 A
HETATM   25  C7  UNL     1      29.153  72.836  -1.259  1.00  0.00     0.004 A
HETATM   26  C8  UNL     1      28.778  73.849  -2.119  1.00  0.00     0.025 A
HETATM   27  C9  UNL     1      27.792  74.755  -1.789  1.00  0.00     0.081 A
HETATM   28  C10 UNL     1      27.189  74.615  -0.566  1.00  0.00     0.056 A
BRANCH  27  29
HETATM   29  S1  UNL     1      27.378  76.021  -2.909  1.00  0.00     0.256 S
HETATM   30  O3  UNL     1      28.613  76.309  -3.753  1.00  0.00    -0.201 OA
HETATM   31  O4  UNL     1      26.279  75.516  -3.812  1.00  0.00    -0.201 OA
BRANCH  29  32
HETATM   32  N5  UNL     1      26.901  77.483  -2.150  1.00  0.00    -0.324 N
ATOM     33  H52 UNL     1      27.502  77.976  -1.489  1.00  0.00     0.169 HD
ATOM     34  H51 UNL     1      25.972  77.802  -2.424  1.00  0.00     0.169 HD
ENDBRANCH  29  32
ENDBRANCH  27  29
ENDBRANCH  21  23
ENDBRANCH  19  21
ENDBRANCH   6  19
BRANCH   1  35
HETATM   35  C1  UNL     1      20.882  74.074   4.588  1.00  0.00     0.271 C
HETATM   36  N1  UNL     1      20.663  75.062   5.578  1.00  0.00    -0.057 NA
HETATM   37  O1  UNL     1      20.183  73.054   4.592  1.00  0.00    -0.271 OA
ENDBRANCH   1  35
TORSDOF 6
ENDMDL