MODEL 3
REMARK VINA RESULT: -8.937717072      1.293      1.401
REMARK  7 active torsions:
REMARK  status: ('A' for Active; 'I' for Inactive)
REMARK    1  A    between atoms: C2_3  and  N2_4
REMARK    2  A    between atoms: C4_6  and  N3_7
REMARK    3  A    between atoms: C5_9  and  C6_10
REMARK    4  A    between atoms: C9_20  and  C10_21
REMARK       I    between atoms: C10_21  and  N7_23
REMARK    5  A    between atoms: N7_23  and  C11_25
REMARK    6  A    between atoms: C12_31  and  N11_32
REMARK    7  A    between atoms: C13_37  and  N14_38
ROOT
HETATM    1  N1  UNL     1      34.309  66.926  -6.328  1.00  0.00    -0.196 NA
HETATM    2  C1  UNL     1      33.632  67.579  -6.998  1.00  0.00     0.079 C
HETATM    3  C2  UNL     1      32.791  68.415  -7.843  1.00  0.00     0.251 C
ENDROOT
BRANCH   3   4
HETATM    4  N2  UNL     1      31.869  69.196  -7.040  1.00  0.00    -0.349 N
HETATM    5  C3  UNL     1      31.247  70.322  -7.436  1.00  0.00     0.123 A
HETATM    6  C4  UNL     1      30.446  70.801  -6.422  1.00  0.00     0.082 A
HETATM    7  C13 UNL     1      30.593  69.923  -5.368  1.00  0.00     0.146 A
HETATM    8  C14 UNL     1      31.486  68.931  -5.779  1.00  0.00     0.130 A
BRANCH   6   9
HETATM    9  N3  UNL     1      29.611  71.949  -6.386  1.00  0.00    -0.363 N
HETATM   10  C5  UNL     1      28.366  71.886  -6.705  1.00  0.00     0.105 C
ATOM     11  H3  UNL     1      30.007  72.845  -6.101  1.00  0.00     0.165 HD
BRANCH  10  12
HETATM   12  C6  UNL     1      27.565  73.140  -6.638  1.00  0.00     0.237 A
HETATM   13  N4  UNL     1      28.397  74.312  -6.701  1.00  0.00    -0.348 N
HETATM   14  C7  UNL     1      28.308  75.008  -5.625  1.00  0.00     0.168 A
ATOM     15  H4  UNL     1      28.983  74.559  -7.499  1.00  0.00     0.163 HD
HETATM   16  C8  UNL     1      28.765  76.222  -4.916  1.00  0.00     0.147 A
HETATM   17  N12 UNL     1      27.407  74.368  -4.739  1.00  0.00    -0.217 N
HETATM   18  N5  UNL     1      29.595  77.049  -5.424  1.00  0.00    -0.382 N
HETATM   19  N6  UNL     1      28.095  76.194  -3.672  1.00  0.00    -0.320 N
ATOM     20  H52 UNL     1      30.079  77.069  -6.322  1.00  0.00     0.157 HD
ATOM     21  H51 UNL     1      29.911  77.886  -4.935  1.00  0.00     0.157 HD
HETATM   22  C9  UNL     1      27.333  75.164  -3.562  1.00  0.00     0.197 A
ATOM     23  H6  UNL     1      28.202  76.906  -2.949  1.00  0.00     0.169 HD
HETATM   24  N13 UNL     1      26.939  73.208  -5.355  1.00  0.00    -0.099 NA
BRANCH  22  25
HETATM   25  C10 UNL     1      26.488  74.821  -2.395  1.00  0.00     0.293 C
HETATM   26  O1  UNL     1      25.279  74.546  -2.551  1.00  0.00    -0.264 OA
HETATM   27  N7  UNL     1      27.032  74.801  -1.083  1.00  0.00    -0.302 N
ATOM     28  H7  UNL     1      26.825  75.558  -0.431  1.00  0.00     0.171 HD
BRANCH  27  29
HETATM   29  C11 UNL     1      27.792  73.815  -0.717  1.00  0.00     0.167 A
HETATM   30  N8  UNL     1      27.838  72.554  -1.204  1.00  0.00    -0.266 N
HETATM   31  N9  UNL     1      28.759  71.854  -0.550  1.00  0.00    -0.019 NA
ATOM     32  H8  UNL     1      27.253  72.195  -1.959  1.00  0.00     0.186 HD
HETATM   33  N10 UNL     1      29.324  72.627   0.361  1.00  0.00    -0.267 N
HETATM   34  C12 UNL     1      28.754  73.836   0.285  1.00  0.00     0.158 A
ATOM     35  H10 UNL     1      30.064  72.351   1.006  1.00  0.00     0.186 HD
BRANCH  34  36
HETATM   36  N11 UNL     1      29.007  74.887   0.991  1.00  0.00    -0.382 N
ATOM     37 2H11 UNL     1      29.105  75.852   0.676  1.00  0.00     0.157 HD
ATOM     38 1H11 UNL     1      29.143  74.856   2.001  1.00  0.00     0.157 HD
ENDBRANCH  34  36
ENDBRANCH  27  29
ENDBRANCH  22  25
ENDBRANCH  10  12
ENDBRANCH   6   9
BRANCH   7  39
HETATM   39  N14 UNL     1      29.943  70.027  -4.099  1.00  0.00    -0.112 N
HETATM   40  O2  UNL     1      29.729  68.970  -3.452  1.00  0.00    -0.532 OA
HETATM   41  O3  UNL     1      29.581  71.266  -3.642  1.00  0.00    -0.532 OA
ENDBRANCH   7  39
ENDBRANCH   3   4
TORSDOF 7
ENDMDL