MODEL 2
REMARK VINA RESULT: -9.230680746      2.357      8.308
REMARK  6 active torsions:
REMARK  status: ('A' for Active; 'I' for Inactive)
REMARK    1  A    between atoms: C5_9  and  C6_10
REMARK       I    between atoms: C6_10  and  N4_12
REMARK    2  A    between atoms: N4_12  and  C7_14
REMARK    3  A    between atoms: C7_14  and  C8_15
REMARK    4  A    between atoms: N5_19  and  N6_20
REMARK    5  A    between atoms: C10_23  and  C11_24
REMARK    6  A    between atoms: C13_30  and  N10_31
ROOT
HETATM    1  N1  UNL     1      32.172  75.490  -7.062  1.00  0.00    -0.191 NA
HETATM    2  C1  UNL     1      31.243  75.101  -6.451  1.00  0.00     0.103 C
HETATM    3  C2  UNL     1      30.113  74.599  -5.714  1.00  0.00     0.093 A
HETATM    4  C3  UNL     1      29.857  73.260  -5.457  1.00  0.00     0.134 A
HETATM    5  N2  UNL     1      28.729  73.205  -4.757  1.00  0.00    -0.287 N
ATOM      6  H2  UNL     1      28.282  72.353  -4.419  1.00  0.00     0.188 HD
HETATM    7  N3  UNL     1      28.273  74.457  -4.568  1.00  0.00    -0.172 N
HETATM    8  C4  UNL     1      29.100  75.347  -5.144  1.00  0.00     0.116 A
HETATM    9  C5  UNL     1      28.607  76.614  -4.933  1.00  0.00     0.083 A
HETATM   10  C9  UNL     1      27.453  76.433  -4.208  1.00  0.00     0.160 A
HETATM   11  N5  UNL     1      27.282  75.119  -4.006  1.00  0.00    -0.163 N
ENDROOT
BRANCH   9  12
HETATM   12  C6  UNL     1      29.205  77.870  -5.389  1.00  0.00     0.256 C
HETATM   13  O1  UNL     1      29.185  78.857  -4.592  1.00  0.00    -0.268 OA
HETATM   14  N4  UNL     1      29.791  78.016  -6.657  1.00  0.00    -0.347 N
ATOM     15  H4  UNL     1      29.807  77.216  -7.290  1.00  0.00     0.163 HD
BRANCH  14  16
HETATM   16  C7  UNL     1      30.366  79.253  -7.084  1.00  0.00     0.236 C
BRANCH  16  17
HETATM   17  C8  UNL     1      29.830  79.738  -8.364  1.00  0.00     0.191 C
HETATM   18  O2  UNL     1      29.638  80.946  -8.611  1.00  0.00    -0.647 OA
HETATM   19  O3  UNL     1      29.529  78.771  -9.337  1.00  0.00    -0.647 OA
ENDBRANCH  16  17
ENDBRANCH  14  16
ENDBRANCH   9  12
BRANCH  11  20
HETATM   20  N6  UNL     1      26.192  74.570  -3.294  1.00  0.00    -0.166 N
HETATM   21  N7  UNL     1      25.006  74.213  -3.746  1.00  0.00    -0.270 N
HETATM   22  C10 UNL     1      24.249  73.732  -2.744  1.00  0.00     0.145 A
ATOM     23  H7  UNL     1      24.706  74.290  -4.718  1.00  0.00     0.189 HD
HETATM   24  C12 UNL     1      25.008  73.794  -1.600  1.00  0.00     0.118 A
HETATM   25  N9  UNL     1      24.835  73.478  -0.311  1.00  0.00    -0.187 N
HETATM   26  C15 UNL     1      26.249  74.332  -1.959  1.00  0.00     0.174 A
HETATM   27  C13 UNL     1      25.821  73.670   0.605  1.00  0.00     0.679 A
ATOM     28  H9  UNL     1      23.944  73.084  -0.009  1.00  0.00     0.184 HD
HETATM   29  N11 UNL     1      27.022  74.184   0.290  1.00  0.00    -0.154 N
HETATM   30  C14 UNL     1      27.221  74.509  -0.998  1.00  0.00     0.292 A
ATOM     31  H11 UNL     1      27.748  74.320   0.994  1.00  0.00     0.187 HD
HETATM   32  O5  UNL     1      28.313  74.992  -1.369  1.00  0.00    -0.265 OA
BRANCH  22  33
HETATM   33  C11 UNL     1      22.869  73.231  -2.833  1.00  0.00     0.285 C
HETATM   34  N8  UNL     1      22.308  72.792  -4.049  1.00  0.00    -0.056 NA
HETATM   35  O4  UNL     1      22.130  73.175  -1.815  1.00  0.00    -0.269 OA
ENDBRANCH  22  33
BRANCH  27  36
HETATM   36  N10 UNL     1      25.560  73.335   1.818  1.00  0.00    -0.234 N
ATOM     37 2H10 UNL     1      24.646  73.541   2.222  1.00  0.00     0.174 HD
ATOM     38 1H10 UNL     1      26.301  72.862   2.336  1.00  0.00     0.174 HD
ENDBRANCH  27  36
ENDBRANCH  11  20
TORSDOF 6
ENDMDL