MODEL 4
REMARK VINA RESULT: -8.721421610      1.554      1.718
REMARK  6 active torsions:
REMARK  status: ('A' for Active; 'I' for Inactive)
REMARK    1  A    between atoms: C4_10  and  S1_11
REMARK    2  A    between atoms: S1_11  and  C5_12
REMARK    3  A    between atoms: C6_15  and  C7_16
REMARK    4  A    between atoms: C8_21  and  N6_22
REMARK    5  A    between atoms: C12_28  and  C13_29
REMARK    6  A    between atoms: C15_34  and  N9_35
ROOT
HETATM    1  C5  UNL     1      28.272  74.591  -4.916  1.00  0.00     0.120 A
HETATM    2  N3  UNL     1      28.881  73.880  -5.913  1.00  0.00    -0.329 N
ATOM      3  H3  UNL     1      28.970  74.173  -6.885  1.00  0.00     0.168 HD
HETATM    4  C6  UNL     1      29.338  72.742  -5.401  1.00  0.00     0.174 A
HETATM    5  N5  UNL     1      29.015  72.745  -4.101  1.00  0.00    -0.322 N
ATOM      6  H5  UNL     1      29.242  71.991  -3.453  1.00  0.00     0.169 HD
HETATM    7  C8  UNL     1      28.349  73.878  -3.751  1.00  0.00     0.140 A
ENDROOT
BRANCH   1   8
HETATM    8  S1  UNL     1      27.511  76.170  -5.160  1.00  0.00    -0.079 SA
BRANCH   8   9
HETATM    9  C4  UNL     1      28.333  77.030  -6.490  1.00  0.00     0.072 C
HETATM   10  C3  UNL     1      29.105  78.078  -6.287  1.00  0.00     0.087 C
HETATM   11  C2  UNL     1      29.315  78.576  -4.942  1.00  0.00     0.261 C
HETATM   12  C14 UNL     1      29.754  78.746  -7.405  1.00  0.00     0.203 C
HETATM   13  N2  UNL     1      30.157  79.713  -4.768  1.00  0.00    -0.310 N
HETATM   14  O1  UNL     1      28.775  78.032  -3.945  1.00  0.00    -0.267 OA
HETATM   15  C1  UNL     1      30.789  80.364  -5.848  1.00  0.00     0.116 C
ATOM     16  H2  UNL     1      30.309  80.071  -3.824  1.00  0.00     0.170 HD
HETATM   17  N1  UNL     1      31.730  81.213  -5.615  1.00  0.00    -0.387 N
HETATM   18  C15 UNL     1      30.394  80.094  -7.250  1.00  0.00     0.324 C
ATOM     19  H12 UNL     1      32.002  81.398  -4.649  1.00  0.00     0.157 HD
ATOM     20  H11 UNL     1      32.187  81.683  -6.396  1.00  0.00     0.157 HD
HETATM   21  O4  UNL     1      29.811  78.233  -8.549  1.00  0.00    -0.289 OA
BRANCH  18  22
HETATM   22  N9  UNL     1      29.542  81.143  -7.779  1.00  0.00    -0.061 N
ATOM     23  H93 UNL     1      29.788  82.053  -7.390  1.00  0.00     0.275 HD
ATOM     24  H92 UNL     1      29.746  81.329  -8.761  1.00  0.00     0.275 HD
ATOM     25  H91 UNL     1      28.553  80.934  -7.638  1.00  0.00     0.275 HD
ENDBRANCH  18  22
ENDBRANCH   8   9
ENDBRANCH   1   8
BRANCH   7  26
HETATM   26  N6  UNL     1      27.874  74.120  -2.437  1.00  0.00    -0.345 N
HETATM   27  C9  UNL     1      26.431  74.035  -2.215  1.00  0.00     0.169 C
HETATM   28  C10 UNL     1      26.122  73.868  -0.789  1.00  0.00     0.075 C
HETATM   29  N7  UNL     1      26.792  74.493   0.097  1.00  0.00    -0.398 N
HETATM   30  C11 UNL     1      27.864  75.367  -0.366  1.00  0.00     0.153 C
ATOM     31  H7  UNL     1      26.587  74.386   1.091  1.00  0.00     0.158 HD
HETATM   32  C12 UNL     1      28.680  74.457  -1.311  1.00  0.00     0.193 C
BRANCH  32  33
HETATM   33  C13 UNL     1      29.063  73.299  -0.461  1.00  0.00     0.255 C
HETATM   34  N8  UNL     1      28.936  72.003  -0.990  1.00  0.00    -0.060 NA
HETATM   35  O3  UNL     1      29.493  73.472   0.708  1.00  0.00    -0.275 OA
ENDBRANCH  32  33
ENDBRANCH   7  26
BRANCH   4  36
HETATM   36  C7  UNL     1      30.060  71.660  -6.086  1.00  0.00     0.298 C
HETATM   37  N4  UNL     1      30.381  70.468  -5.405  1.00  0.00    -0.054 NA
HETATM   38  O2  UNL     1      30.391  71.800  -7.279  1.00  0.00    -0.268 OA
ENDBRANCH   4  36
TORSDOF 6
ENDMDL