MODEL 1
REMARK VINA RESULT: -8.059227788      0.000      0.000
REMARK  12 active torsions:
REMARK  status: ('A' for Active; 'I' for Inactive)
REMARK    1  A    between atoms: O1_2  and  C2_3
REMARK    2  A    between atoms: C2_3  and  O2_4
REMARK    3  A    between atoms: C2_3  and  C3_6
REMARK    4  A    between atoms: C10_18  and  O4_19
REMARK    5  A    between atoms: O4_19  and  C11_20
REMARK    6  A    between atoms: C11_20  and  C12_21
REMARK    7  A    between atoms: C12_21  and  N3_22
REMARK    8  A    between atoms: C12_21  and  C13_26
REMARK    9  A    between atoms: N7_39  and  C19_40
REMARK   10  A    between atoms: C19_40  and  O6_41
REMARK   11  A    between atoms: O6_41  and  C20_42
REMARK   12  A    between atoms: C22_47  and  C23_48
ROOT
HETATM    1  C3  UNL     1      28.054  75.488  -1.472  1.00  0.00     0.240 C
HETATM    2  N1  UNL     1      28.174  74.052  -1.391  1.00  0.00    -0.341 N
ATOM      3  H1  UNL     1      28.872  73.753  -0.711  1.00  0.00     0.163 HD
HETATM    4  C4  UNL     1      27.548  72.965  -2.037  1.00  0.00     0.241 C
HETATM    5  O3  UNL     1      28.265  71.949  -1.932  1.00  0.00    -0.271 OA
HETATM    6  C5  UNL     1      26.297  72.671  -2.798  1.00  0.00     0.185 C
HETATM    7  C6  UNL     1      25.219  72.947  -1.741  1.00  0.00     0.036 C
HETATM    8  C7  UNL     1      23.957  72.967  -2.318  1.00  0.00     0.008 C
HETATM    9  C8  UNL     1      22.556  73.226  -2.224  1.00  0.00     0.044 C
HETATM   10  C9  UNL     1      21.972  73.717  -3.577  1.00  0.00     0.058 C
HETATM   11  N2  UNL     1      21.731  72.825  -4.591  1.00  0.00    -0.377 N
ATOM     12  H2  UNL     1      21.133  72.016  -4.424  1.00  0.00     0.161 HD
HETATM   13  C10 UNL     1      22.342  73.036  -5.941  1.00  0.00     0.222 C
HETATM   14  C14 UNL     1      23.745  72.885  -5.762  1.00  0.00     0.094 C
HETATM   15  C15 UNL     1      25.031  72.784  -6.315  1.00  0.00     0.258 C
HETATM   16  N5  UNL     1      24.911  71.722  -7.335  1.00  0.00    -0.062 N
ATOM     17  H51 UNL     1      24.097  71.133  -7.158  1.00  0.00     0.278 HD
ATOM     18  H52 UNL     1      25.646  71.023  -7.225  1.00  0.00     0.278 HD
HETATM   19  C16 UNL     1      24.892  72.242  -8.668  1.00  0.00     0.253 C
HETATM   20  C17 UNL     1      26.336  72.139  -9.181  1.00  0.00     0.148 C
HETATM   21  N6  UNL     1      27.175  72.427  -8.054  1.00  0.00    -0.384 N
ATOM     22  H6  UNL     1      27.586  73.352  -7.924  1.00  0.00     0.160 HD
HETATM   23  C18 UNL     1      27.410  71.399  -7.144  1.00  0.00     0.186 C
HETATM   24  N7  UNL     1      26.997  71.453  -5.799  1.00  0.00    -0.285 N
HETATM   25  C21 UNL     1      26.025  72.215  -5.234  1.00  0.00     0.126 C
HETATM   26  N8  UNL     1      26.258  73.120  -4.119  1.00  0.00    -0.295 N
HETATM   27  C22 UNL     1      26.826  74.358  -4.439  1.00  0.00     0.233 C
HETATM   28  O11 UNL     1      26.498  75.421  -3.543  1.00  0.00    -0.253 OA
HETATM   29  C24 UNL     1      27.090  75.978  -2.421  1.00  0.00     0.293 C
HETATM   30  O12 UNL     1      26.692  77.138  -2.208  1.00  0.00    -0.262 OA
ENDROOT
BRANCH  13  31
HETATM   31  O4  UNL     1      21.843  74.230  -6.381  1.00  0.00    -0.364 OA
BRANCH  31  32
HETATM   32  C11 UNL     1      22.097  74.357  -7.742  1.00  0.00     0.212 C
BRANCH  32  33
HETATM   33  C12 UNL     1      22.409  75.775  -8.146  1.00  0.00     0.295 C
BRANCH  33  34
HETATM   34  N3  UNL     1      22.901  75.739  -9.511  1.00  0.00    -0.065 N
ATOM     35  H33 UNL     1      23.796  75.260  -9.599  1.00  0.00     0.275 HD
ATOM     36  H32 UNL     1      22.359  75.120 -10.113  1.00  0.00     0.275 HD
ATOM     37  H31 UNL     1      22.928  76.701  -9.850  1.00  0.00     0.275 HD
ENDBRANCH  33  34
BRANCH  33  38
HETATM   38  C13 UNL     1      21.130  76.527  -8.162  1.00  0.00     0.263 C
HETATM   39  N4  UNL     1      21.082  77.755  -7.446  1.00  0.00    -0.060 NA
HETATM   40  O5  UNL     1      20.097  76.154  -8.758  1.00  0.00    -0.274 OA
ENDBRANCH  33  38
ENDBRANCH  32  33
ENDBRANCH  31  32
ENDBRANCH  13  31
BRANCH  24  41
HETATM   41  C19 UNL     1      27.730  70.439  -5.133  1.00  0.00     0.249 C
BRANCH  41  42
HETATM   42  O6  UNL     1      29.101  70.723  -4.887  1.00  0.00    -0.248 OA
BRANCH  42  43
HETATM   43  C20 UNL     1      30.058  69.858  -4.453  1.00  0.00     0.338 C
HETATM   44  O7  UNL     1      31.199  69.868  -4.952  1.00  0.00    -0.623 OA
HETATM   45  O8  UNL     1      29.763  68.957  -3.443  1.00  0.00    -0.623 OA
ENDBRANCH  42  43
ENDBRANCH  41  42
ENDBRANCH  24  41
BRANCH  27  46
HETATM   46  C23 UNL     1      28.208  74.534  -4.821  1.00  0.00     0.253 C
HETATM   47  O9  UNL     1      29.260  74.009  -4.460  1.00  0.00    -0.641 OA
HETATM   48  O10 UNL     1      28.483  75.507  -5.836  1.00  0.00    -0.641 OA
ENDBRANCH  27  46
BRANCH   1  49
HETATM   49  C2  UNL     1      27.920  76.022  -0.057  1.00  0.00     0.288 C
BRANCH  49  50
HETATM   50  O1  UNL     1      29.091  75.727   0.681  1.00  0.00    -0.364 OA
HETATM   51  C1  UNL     1      28.901  74.654   1.547  1.00  0.00     0.204 C
ENDBRANCH  49  50
BRANCH  49  52
HETATM   52  O2  UNL     1      26.886  75.448   0.659  1.00  0.00    -0.369 OA
ATOM     53  H2  UNL     1      26.298  76.165   0.865  1.00  0.00     0.212 HD
ENDBRANCH  49  52
ENDBRANCH   1  49
TORSDOF 12
ENDMDL