MODEL 4
REMARK VINA RESULT: -8.475322989      1.179      1.558
REMARK  14 active torsions:
REMARK  status: ('A' for Active; 'I' for Inactive)
REMARK    1  A    between atoms: N1_2  and  C2_4
REMARK    2  A    between atoms: C3_7  and  N3_8
REMARK    3  A    between atoms: N3_8  and  C4_10
REMARK    4  A    between atoms: C5_11  and  N4_12
REMARK    5  A    between atoms: N6_27  and  C10_28
REMARK    6  A    between atoms: C11_29  and  C12_30
REMARK    7  A    between atoms: C14_36  and  C15_37
REMARK    8  A    between atoms: C15_37  and  O7_38
REMARK    9  A    between atoms: C15_37  and  C16_40
REMARK   10  A    between atoms: C16_40  and  O8_41
REMARK   11  A    between atoms: C16_40  and  C17_43
REMARK   12  A    between atoms: C17_43  and  O9_44
REMARK   13  A    between atoms: C17_43  and  C18_46
REMARK   14  A    between atoms: C18_46  and  O10_47
ROOT
HETATM    1  C2  UNL     1      26.135  72.649  -5.244  1.00  0.00     0.139 A
HETATM    2  N2  UNL     1      26.648  73.593  -4.405  1.00  0.00    -0.175 N
ATOM      3  H2  UNL     1      26.026  74.217  -3.890  1.00  0.00     0.186 HD
HETATM    4  C3  UNL     1      27.979  73.696  -4.264  1.00  0.00     0.682 A
HETATM    5  N5  UNL     1      28.815  72.885  -4.930  1.00  0.00    -0.174 N
ATOM      6  H5  UNL     1      29.821  72.992  -4.797  1.00  0.00     0.186 HD
HETATM    7  C8  UNL     1      28.358  71.921  -5.784  1.00  0.00     0.156 A
HETATM    8  C9  UNL     1      26.994  71.832  -5.915  1.00  0.00     0.112 A
HETATM    9  S2  UNL     1      27.240  70.570  -6.997  1.00  0.00     0.002 SA
HETATM   10  N6  UNL     1      28.830  70.945  -6.608  1.00  0.00    -0.266 N
ENDROOT
BRANCH  10  11
HETATM   11  C10 UNL     1      30.093  70.416  -7.016  1.00  0.00     0.062 A
HETATM   12  C11 UNL     1      30.703  70.551  -8.203  1.00  0.00     0.139 A
HETATM   13  N7  UNL     1      31.948  69.876  -8.174  1.00  0.00    -0.294 N
HETATM   14  C13 UNL     1      32.999  69.649  -9.105  1.00  0.00     0.251 C
HETATM   15  C20 UNL     1      32.136  69.296  -6.846  1.00  0.00     0.191 A
HETATM   16  O6  UNL     1      33.157  70.485 -10.012  1.00  0.00    -0.271 OA
HETATM   17  C14 UNL     1      33.862  68.418  -8.946  1.00  0.00     0.208 C
HETATM   18  N8  UNL     1      32.983  67.447  -8.344  1.00  0.00    -0.343 N
HETATM   19  C19 UNL     1      32.386  67.851  -7.106  1.00  0.00     0.242 C
ATOM     20  H8  UNL     1      32.799  66.538  -8.769  1.00  0.00     0.163 HD
HETATM   21  O11 UNL     1      32.067  67.017  -6.234  1.00  0.00    -0.271 OA
HETATM   22  C21 UNL     1      30.904  69.595  -6.091  1.00  0.00     0.096 A
BRANCH  12  23
HETATM   23  C12 UNL     1      30.113  71.303  -9.301  1.00  0.00     0.229 C
HETATM   24  O4  UNL     1      29.608  70.635 -10.275  1.00  0.00    -0.643 OA
HETATM   25  O5  UNL     1      30.069  72.689  -9.349  1.00  0.00    -0.643 OA
ENDBRANCH  12  23
BRANCH  17  26
HETATM   26  C15 UNL     1      34.495  68.066 -10.228  1.00  0.00     0.181 C
BRANCH  26  27
HETATM   27  O7  UNL     1      33.630  67.824 -11.284  1.00  0.00    -0.390 OA
ATOM     28  H7  UNL     1      34.016  67.419 -12.051  1.00  0.00     0.210 HD
ENDBRANCH  26  27
BRANCH  26  29
HETATM   29  C16 UNL     1      35.687  67.198 -10.232  1.00  0.00     0.180 C
BRANCH  29  30
HETATM   30  O8  UNL     1      36.064  66.664  -9.008  1.00  0.00    -0.390 OA
ATOM     31  H8  UNL     1      35.980  65.723  -8.916  1.00  0.00     0.210 HD
ENDBRANCH  29  30
BRANCH  29  32
HETATM   32  C17 UNL     1      35.670  66.130 -11.287  1.00  0.00     0.173 C
BRANCH  32  33
HETATM   33  O9  UNL     1      34.889  65.040 -11.025  1.00  0.00    -0.391 OA
ATOM     34  H9  UNL     1      35.234  64.201 -11.308  1.00  0.00     0.210 HD
ENDBRANCH  32  33
BRANCH  32  35
HETATM   35  C18 UNL     1      37.094  65.608 -11.543  1.00  0.00     0.198 C
BRANCH  35  36
HETATM   36  O10 UNL     1      37.336  64.544 -10.689  1.00  0.00    -0.398 OA
ATOM     37  H10 UNL     1      38.030  64.788 -10.089  1.00  0.00     0.209 HD
ENDBRANCH  35  36
ENDBRANCH  32  35
ENDBRANCH  29  32
ENDBRANCH  26  29
ENDBRANCH  17  26
ENDBRANCH  10  11
BRANCH   4  38
HETATM   38  N3  UNL     1      28.455  74.598  -3.464  1.00  0.00    -0.203 N
ATOM     39  H3  UNL     1      28.740  75.496  -3.852  1.00  0.00     0.179 HD
BRANCH  38  40
HETATM   40  C4  UNL     1      28.595  74.379  -2.041  1.00  0.00     0.280 C
HETATM   41  C5  UNL     1      28.410  72.907  -1.755  1.00  0.00     0.225 C
HETATM   42  C6  UNL     1      27.137  72.656  -0.965  1.00  0.00     0.063 C
HETATM   43  C7  UNL     1      27.246  73.393   0.354  1.00  0.00     0.192 C
HETATM   44  O1  UNL     1      26.787  74.695   0.167  1.00  0.00    -0.274 OA
HETATM   45  S1  UNL     1      27.354  75.363  -1.241  1.00  0.00     0.289 S
HETATM   46  O2  UNL     1      26.228  75.669  -2.213  1.00  0.00    -0.196 OA
HETATM   47  O3  UNL     1      27.989  76.700  -0.898  1.00  0.00    -0.196 OA
BRANCH  41  48
HETATM   48  N4  UNL     1      29.540  72.397  -0.989  1.00  0.00    -0.072 N
ATOM     49  H43 UNL     1      30.395  72.921  -1.176  1.00  0.00     0.274 HD
ATOM     50  H42 UNL     1      29.452  72.606   0.006  1.00  0.00     0.274 HD
ATOM     51  H41 UNL     1      29.660  71.398  -1.160  1.00  0.00     0.274 HD
ENDBRANCH  41  48
ENDBRANCH  38  40
ENDBRANCH   4  38
BRANCH   1  52
HETATM   52  N1  UNL     1      24.722  72.557  -5.380  1.00  0.00    -0.379 N
HETATM   53  C1  UNL     1      23.842  72.956  -4.321  1.00  0.00     0.147 C
ATOM     54  H1  UNL     1      24.327  72.200  -6.250  1.00  0.00     0.160 HD
ENDBRANCH   1  52
TORSDOF 14
ENDMDL