MODEL 2
REMARK VINA RESULT: -9.750922496      1.812      2.849
REMARK  16 active torsions:
REMARK  status: ('A' for Active; 'I' for Inactive)
REMARK    1  A    between atoms: O1_2  and  N1_3
REMARK    2  A    between atoms: N1_3  and  O2_4
REMARK    3  A    between atoms: N1_3  and  C2_6
REMARK    4  A    between atoms: C3_9  and  N3_10
REMARK    5  A    between atoms: C5_16  and  N5_17
REMARK    6  A    between atoms: N5_17  and  S1_19
REMARK    7  A    between atoms: S1_19  and  N6_22
REMARK    8  A    between atoms: N6_22  and  C6_24
REMARK    9  A    between atoms: C6_24  and  C7_25
REMARK   10  A    between atoms: C6_24  and  C14_40
REMARK   11  A    between atoms: C7_25  and  C8_27
REMARK   12  A    between atoms: C9_28  and  C10_29
REMARK   13  A    between atoms: C12_33  and  N8_34
REMARK   14  A    between atoms: C15_42  and  N10_43
REMARK   15  A    between atoms: C20_52  and  O9_53
REMARK   16  A    between atoms: C21_55  and  O10_56
ROOT
HETATM    1  C6  UNL     1      27.175  74.463  -2.906  1.00  0.00     0.209 C
ENDROOT
BRANCH   1   2
HETATM    2  N6  UNL     1      26.387  74.506  -1.664  1.00  0.00    -0.287 N
ATOM      3  H6  UNL     1      26.686  75.009  -0.828  1.00  0.00     0.174 HD
BRANCH   2   4
HETATM    4  S1  UNL     1      24.931  73.635  -1.759  1.00  0.00     0.321 S
HETATM    5  O3  UNL     1      23.754  74.564  -1.952  1.00  0.00    -0.182 OA
HETATM    6  O4  UNL     1      24.891  72.684  -2.923  1.00  0.00    -0.182 OA
BRANCH   4   7
HETATM    7  N5  UNL     1      24.674  72.798  -0.272  1.00  0.00    -0.250 N
ATOM      8  H5  UNL     1      24.790  71.785  -0.251  1.00  0.00     0.182 HD
BRANCH   7   9
HETATM    9  C5  UNL     1      24.306  73.471   0.924  1.00  0.00     0.165 A
HETATM   10  C2  UNL     1      25.273  74.019   1.719  1.00  0.00     0.205 A
HETATM   11  N2  UNL     1      24.977  74.676   2.872  1.00  0.00    -0.321 N
HETATM   12  C3  UNL     1      23.688  74.787   3.240  1.00  0.00     0.116 A
ATOM     13  H2  UNL     1      25.718  75.076   3.448  1.00  0.00     0.169 HD
HETATM   14  C4  UNL     1      22.703  74.239   2.447  1.00  0.00     0.138 A
HETATM   15  N4  UNL     1      23.022  73.582   1.290  1.00  0.00    -0.345 N
ATOM     16  H4  UNL     1      22.286  73.180   0.709  1.00  0.00     0.167 HD
BRANCH  10  17
HETATM   17  N1  UNL     1      26.630  73.901   1.312  1.00  0.00    -0.106 N
BRANCH  17  18
HETATM   18  O1  UNL     1      27.364  75.023   1.132  1.00  0.00    -0.257 OA
HETATM   19  C1  UNL     1      28.754  75.003   1.377  1.00  0.00     0.240 C
ENDBRANCH  17  18
BRANCH  17  20
HETATM   20  O2  UNL     1      27.064  72.743   1.144  1.00  0.00    -0.261 OA
ATOM     21  H2  UNL     1      26.515  71.971   1.076  1.00  0.00     0.247 HD
ENDBRANCH  17  20
ENDBRANCH  10  17
BRANCH  12  22
HETATM   22  N3  UNL     1      23.387  75.412   4.338  1.00  0.00    -0.384 N
ATOM     23  H32 UNL     1      22.543  75.175   4.859  1.00  0.00     0.157 HD
ATOM     24  H31 UNL     1      24.003  76.148   4.683  1.00  0.00     0.157 HD
ENDBRANCH  12  22
ENDBRANCH   7   9
ENDBRANCH   4   7
ENDBRANCH   2   4
ENDBRANCH   1   2
BRANCH   1  25
HETATM   25  C7  UNL     1      28.510  73.895  -2.607  1.00  0.00     0.228 C
HETATM   26  O5  UNL     1      29.153  74.259  -1.554  1.00  0.00    -0.281 OA
BRANCH  25  27
HETATM   27  C8  UNL     1      29.110  72.941  -3.468  1.00  0.00    -0.020 C
HETATM   28  C9  UNL     1      29.643  72.093  -4.183  1.00  0.00    -0.039 C
BRANCH  28  29
HETATM   29  C10 UNL     1      30.259  71.108  -5.021  1.00  0.00     0.102 A
HETATM   30  C11 UNL     1      30.649  69.865  -4.521  1.00  0.00     0.128 A
HETATM   31  N7  UNL     1      31.227  68.948  -5.317  1.00  0.00    -0.349 N
HETATM   32  C12 UNL     1      31.451  69.189  -6.618  1.00  0.00     0.114 A
ATOM     33  H7  UNL     1      31.501  68.049  -4.923  1.00  0.00     0.167 HD
HETATM   34  C13 UNL     1      31.072  70.413  -7.125  1.00  0.00     0.137 A
HETATM   35  N9  UNL     1      30.497  71.324  -6.332  1.00  0.00    -0.354 N
ATOM     36  H9  UNL     1      30.227  72.221  -6.735  1.00  0.00     0.166 HD
BRANCH  32  37
HETATM   37  N8  UNL     1      32.012  68.283  -7.364  1.00  0.00    -0.384 N
ATOM     38  H82 UNL     1      32.856  67.792  -7.068  1.00  0.00     0.157 HD
ATOM     39  H81 UNL     1      31.611  68.045  -8.271  1.00  0.00     0.157 HD
ENDBRANCH  32  37
ENDBRANCH  28  29
ENDBRANCH  25  27
ENDBRANCH   1  25
BRANCH   1  40
HETATM   40  C14 UNL     1      27.161  75.830  -3.472  1.00  0.00     0.187 C
HETATM   41  O6  UNL     1      28.426  76.099  -4.010  1.00  0.00    -0.353 OA
HETATM   42  C15 UNL     1      28.670  77.434  -3.968  1.00  0.00     0.263 C
HETATM   43  C20 UNL     1      27.471  78.113  -3.367  1.00  0.00     0.198 C
HETATM   44  C21 UNL     1      26.923  76.959  -2.496  1.00  0.00     0.182 C
BRANCH  42  45
HETATM   45  N10 UNL     1      29.022  78.000  -5.257  1.00  0.00    -0.280 N
HETATM   46  C16 UNL     1      28.569  77.497  -6.402  1.00  0.00     0.104 A
HETATM   47  C17 UNL     1      28.917  78.055  -7.632  1.00  0.00     0.092 A
HETATM   48  C18 UNL     1      29.755  79.159  -7.631  1.00  0.00     0.250 A
HETATM   49  O7  UNL     1      30.088  79.688  -8.745  1.00  0.00    -0.268 OA
HETATM   50  N11 UNL     1      30.199  79.649  -6.459  1.00  0.00    -0.275 N
HETATM   51  C19 UNL     1      29.835  79.074  -5.302  1.00  0.00     0.331 A
ATOM     52  H11 UNL     1      30.816  80.461  -6.449  1.00  0.00     0.173 HD
HETATM   53  O8  UNL     1      30.268  79.557  -4.223  1.00  0.00    -0.246 OA
ENDBRANCH  42  45
BRANCH  43  54
HETATM   54  O9  UNL     1      26.510  78.438  -4.314  1.00  0.00    -0.388 OA
ATOM     55  H9  UNL     1      25.916  77.719  -4.495  1.00  0.00     0.210 HD
ENDBRANCH  43  54
BRANCH  44  56
HETATM   56  O10 UNL     1      27.748  76.927  -1.393  1.00  0.00    -0.390 OA
ATOM     57  H10 UNL     1      27.328  77.207  -0.588  1.00  0.00     0.210 HD
ENDBRANCH  44  56
ENDBRANCH   1  40
TORSDOF 16
ENDMDL