MODEL 2
REMARK VINA RESULT: -9.953416019      5.297      9.106
REMARK  11 active torsions:
REMARK  status: ('A' for Active; 'I' for Inactive)
REMARK    1  A    between atoms: C2_2  and  C4_4
REMARK    2  A    between atoms: C8_15  and  C9_16
REMARK    3  A    between atoms: N5_19  and  O2_21
REMARK    4  A    between atoms: O2_21  and  C11_22
REMARK    5  A    between atoms: C11_22  and  C12_23
REMARK    6  A    between atoms: C13_26  and  C14_27
REMARK       I    between atoms: N7_30  and  C15_31
REMARK    7  A    between atoms: C16_36  and  C17_37
REMARK    8  A    between atoms: C17_37  and  N10_38
REMARK    9  A    between atoms: C20_43  and  N12_44
REMARK   10  A    between atoms: C21_47  and  N14_48
REMARK   11  A    between atoms: C22_53  and  N16_54
ROOT
HETATM    1  C9  UNL     1      24.564  73.713  -3.943  1.00  0.00     0.179 C
HETATM    2  O1  UNL     1      23.842  73.798  -2.739  1.00  0.00    -0.326 OA
HETATM    3  C10 UNL     1      24.519  73.421  -1.599  1.00  0.00     0.172 C
HETATM    4  N5  UNL     1      24.040  73.167  -0.461  1.00  0.00    -0.246 N
ATOM      5  H5  UNL     1      24.721  72.903   0.253  1.00  0.00     0.196 HD
HETATM    6  C13 UNL     1      26.027  73.313  -1.791  1.00  0.00     0.265 C
HETATM    7  N7  UNL     1      26.364  74.453  -2.605  1.00  0.00    -0.325 N
HETATM    8  C15 UNL     1      27.132  75.492  -2.055  1.00  0.00     0.185 C
HETATM    9  N8  UNL     1      26.623  76.546  -1.515  1.00  0.00    -0.374 N
ATOM     10  H81 UNL     1      27.181  77.300  -1.116  1.00  0.00     0.158 HD
ATOM     11  H82 UNL     1      25.606  76.622  -1.496  1.00  0.00     0.158 HD
HETATM   12  N9  UNL     1      28.554  75.385  -2.081  1.00  0.00    -0.064 NA
HETATM   13  C16 UNL     1      25.855  74.439  -3.993  1.00  0.00     0.148 C
ENDROOT
BRANCH  13  14
HETATM   14  C17 UNL     1      25.804  75.800  -4.561  1.00  0.00     0.300 C
BRANCH  14  15
HETATM   15  N10 UNL     1      26.886  75.959  -5.550  1.00  0.00     0.099 N
HETATM   16  C18 UNL     1      27.802  74.836  -5.224  1.00  0.00     0.292 C
HETATM   17  C19 UNL     1      28.745  74.711  -6.400  1.00  0.00     0.151 C
HETATM   18  N11 UNL     1      29.356  76.002  -6.585  1.00  0.00    -0.375 N
HETATM   19  C20 UNL     1      28.902  77.089  -6.063  1.00  0.00     0.146 C
ATOM     20  H11 UNL     1      30.195  76.059  -7.162  1.00  0.00     0.160 HD
HETATM   21  C23 UNL     1      27.685  77.140  -5.200  1.00  0.00     0.350 C
BRANCH  19  22
HETATM   22  N12 UNL     1      29.640  78.286  -6.354  1.00  0.00    -0.058 N
HETATM   23  N13 UNL     1      30.340  79.029  -5.525  1.00  0.00    -0.109 N
HETATM   24  C21 UNL     1      30.883  80.078  -6.185  1.00  0.00     0.706 A
ATOM     25  H13 UNL     1      30.456  78.841  -4.529  1.00  0.00     0.207 HD
HETATM   26  N15 UNL     1      30.505  79.980  -7.465  1.00  0.00    -0.020 N
HETATM   27  C22 UNL     1      29.735  78.867  -7.561  1.00  0.00     0.713 A
ATOM     28  H15 UNL     1      30.749  80.619  -8.222  1.00  0.00     0.203 HD
BRANCH  24  29
HETATM   29  N14 UNL     1      31.625  81.016  -5.710  1.00  0.00    -0.233 N
ATOM     30 2H14 UNL     1      31.545  81.400  -4.768  1.00  0.00     0.174 HD
ATOM     31 1H14 UNL     1      32.386  81.511  -6.175  1.00  0.00     0.174 HD
ENDBRANCH  24  29
BRANCH  27  32
HETATM   32  N16 UNL     1      29.218  78.495  -8.674  1.00  0.00    -0.232 N
ATOM     33 2H16 UNL     1      29.794  78.219  -9.469  1.00  0.00     0.174 HD
ATOM     34 1H16 UNL     1      28.233  78.418  -8.926  1.00  0.00     0.174 HD
ENDBRANCH  27  32
ENDBRANCH  19  22
ENDBRANCH  14  15
ENDBRANCH  13  14
BRANCH   1  35
HETATM   35  C8  UNL     1      23.667  73.813  -5.156  1.00  0.00     0.132 A
HETATM   36  N4  UNL     1      24.063  72.734  -6.021  1.00  0.00    -0.365 N
HETATM   37  C7  UNL     1      23.380  71.810  -6.531  1.00  0.00     0.133 A
ATOM     38  H4  UNL     1      25.054  72.717  -6.259  1.00  0.00     0.161 HD
HETATM   39  C6  UNL     1      22.032  71.758  -6.262  1.00  0.00     0.114 A
HETATM   40  N3  UNL     1      23.905  70.848  -7.346  1.00  0.00    -0.330 N
HETATM   41  C5  UNL     1      21.204  70.763  -6.796  1.00  0.00     0.148 A
HETATM   42  N17 UNL     1      21.551  72.642  -5.512  1.00  0.00    -0.382 N
HETATM   43  N1  UNL     1      21.800  69.863  -7.582  1.00  0.00    -0.332 N
HETATM   44  N2  UNL     1      19.816  70.762  -6.485  1.00  0.00    -0.080 NA
HETATM   45  C4  UNL     1      23.121  69.890  -7.862  1.00  0.00     0.087 A
ATOM     46  H1  UNL     1      21.232  69.121  -7.990  1.00  0.00     0.168 HD
HETATM   47  C24 UNL     1      22.215  73.733  -4.873  1.00  0.00     0.147 A
ATOM     48  H17 UNL     1      20.548  72.572  -5.335  1.00  0.00     0.160 HD
ATOM     49  H3  UNL     1      24.902  70.859  -7.564  1.00  0.00     0.168 HD
BRANCH  45  50
HETATM   50  C2  UNL     1      23.733  68.870  -8.744  1.00  0.00     0.045 C
HETATM   51  C1  UNL     1      24.994  69.378  -9.407  1.00  0.00     0.017 C
HETATM   52  C3  UNL     1      24.114  67.708  -7.818  1.00  0.00     0.017 C
ENDBRANCH  45  50
ENDBRANCH   1  35
BRANCH   6  53
HETATM   53  C14 UNL     1      26.680  73.196  -0.499  1.00  0.00     0.205 C
HETATM   54  O4  UNL     1      26.535  73.871   0.535  1.00  0.00    -0.646 OA
HETATM   55  O5  UNL     1      27.641  72.154  -0.368  1.00  0.00    -0.646 OA
ENDBRANCH   6  53
BRANCH   4  56
HETATM   56  O2  UNL     1      22.755  73.194  -0.054  1.00  0.00    -0.270 OA
BRANCH  56  57
HETATM   57  C11 UNL     1      22.353  73.966   1.037  1.00  0.00     0.300 C
BRANCH  57  58
HETATM   58  C12 UNL     1      23.347  73.904   2.152  1.00  0.00     0.257 C
HETATM   59  N6  UNL     1      23.527  74.991   3.032  1.00  0.00    -0.060 NA
HETATM   60  O3  UNL     1      24.044  72.870   2.322  1.00  0.00    -0.274 OA
ENDBRANCH  57  58
ENDBRANCH  56  57
ENDBRANCH   4  56
TORSDOF 11
ENDMDL