MODEL 4
REMARK VINA RESULT: -9.854726708      3.446      5.071
REMARK  14 active torsions:
REMARK  status: ('A' for Active; 'I' for Inactive)
REMARK    1  A    between atoms: C2_7  and  N3_8
REMARK    2  A    between atoms: C4_10  and  N4_11
REMARK    3  A    between atoms: N4_11  and  C5_13
REMARK    4  A    between atoms: C5_13  and  O1_14
REMARK    5  A    between atoms: C5_13  and  C6_16
REMARK    6  A    between atoms: C6_16  and  N5_17
REMARK    7  A    between atoms: C6_16  and  C7_21
REMARK    8  A    between atoms: C7_21  and  C8_22
REMARK    9  A    between atoms: C8_22  and  N6_23
REMARK       I    between atoms: N6_23  and  C9_25
REMARK   10  A    between atoms: C9_25  and  C10_27
REMARK   11  A    between atoms: C10_27  and  N7_28
REMARK   12  A    between atoms: C10_27  and  C11_32
REMARK   13  A    between atoms: C18_47  and  C19_48
REMARK   14  A    between atoms: C20_53  and  N12_54
ROOT
HETATM    1  N3  UNL     1      29.871  71.539  -6.468  1.00  0.00    -0.253 N
HETATM    2  C3  UNL     1      29.094  72.700  -6.799  1.00  0.00     0.168 C
HETATM    3  C4  UNL     1      29.517  73.833  -5.909  1.00  0.00     0.103 C
HETATM    4  C14 UNL     1      29.215  73.609  -4.467  1.00  0.00     0.043 C
HETATM    5  C15 UNL     1      29.971  72.491  -3.827  1.00  0.00     0.165 C
HETATM    6  S1  UNL     1      29.762  71.007  -4.807  1.00  0.00     0.234 S
HETATM    7  O3  UNL     1      28.394  70.472  -4.519  1.00  0.00    -0.205 OA
HETATM    8  O4  UNL     1      30.834  70.034  -4.471  1.00  0.00    -0.205 OA
ENDROOT
BRANCH   1   9
HETATM    9  C2  UNL     1      30.694  70.815  -7.355  1.00  0.00     0.164 A
HETATM   10  N2  UNL     1      30.830  69.498  -7.192  1.00  0.00    -0.321 N
HETATM   11  C1  UNL     1      31.550  68.656  -7.913  1.00  0.00     0.119 A
ATOM     12  H2  UNL     1      30.315  69.089  -6.413  1.00  0.00     0.169 HD
HETATM   13  N1  UNL     1      31.548  67.405  -7.588  1.00  0.00    -0.385 N
HETATM   14  C22 UNL     1      32.331  68.971  -9.015  1.00  0.00     0.112 A
ATOM     15  H12 UNL     1      30.973  67.173  -6.777  1.00  0.00     0.157 HD
ATOM     16  H11 UNL     1      32.103  66.756  -8.145  1.00  0.00     0.157 HD
HETATM   17  C16 UNL     1      32.475  70.237  -9.532  1.00  0.00     0.113 A
HETATM   18  C21 UNL     1      33.045  67.969  -9.685  1.00  0.00     0.301 A
HETATM   19  S2  UNL     1      31.579  71.432  -8.672  1.00  0.00    -0.034 SA
HETATM   20  N8  UNL     1      33.241  70.458 -10.588  1.00  0.00    -0.183 N
HETATM   21  C17 UNL     1      33.929  69.494 -11.234  1.00  0.00     0.709 A
ATOM     22  H8  UNL     1      33.316  71.414 -10.934  1.00  0.00     0.185 HD
HETATM   23  N9  UNL     1      34.698  69.749 -12.302  1.00  0.00    -0.170 N
HETATM   24  N13 UNL     1      33.810  68.244 -10.754  1.00  0.00     0.061 N
HETATM   25  C18 UNL     1      35.392  68.773 -12.952  1.00  0.00     0.201 A
ATOM     26  H9  UNL     1      34.765  70.709 -12.639  1.00  0.00     0.186 HD
HETATM   27  N11 UNL     1      35.268  67.525 -12.467  1.00  0.00    -0.170 N
HETATM   28  C20 UNL     1      34.497  67.265 -11.396  1.00  0.00     0.702 A
ATOM     29  H11 UNL     1      35.769  66.760 -12.920  1.00  0.00     0.186 HD
HETATM   30  O6  UNL     1      32.969  66.774  -9.277  1.00  0.00    -0.265 OA
BRANCH  25  31
HETATM   31  C19 UNL     1      36.217  69.069 -14.108  1.00  0.00     0.299 C
HETATM   32  N10 UNL     1      36.136  68.273 -15.273  1.00  0.00    -0.054 NA
HETATM   33  O5  UNL     1      37.000  70.041 -14.050  1.00  0.00    -0.268 OA
ENDBRANCH  25  31
BRANCH  28  34
HETATM   34  N12 UNL     1      34.374  66.061 -10.923  1.00  0.00    -0.233 N
ATOM     35 2H12 UNL     1      35.166  65.433 -11.059  1.00  0.00     0.174 HD
ATOM     36 1H12 UNL     1      33.527  65.762 -10.441  1.00  0.00     0.174 HD
ENDBRANCH  28  34
ENDBRANCH   1   9
BRANCH   3  37
HETATM   37  N4  UNL     1      28.707  75.010  -6.309  1.00  0.00    -0.366 N
ATOM     38  H4  UNL     1      27.757  74.885  -6.657  1.00  0.00     0.161 HD
BRANCH  37  39
HETATM   39  C5  UNL     1      29.257  76.291  -6.204  1.00  0.00     0.146 C
BRANCH  39  40
HETATM   40  O1  UNL     1      29.922  76.656  -7.276  1.00  0.00    -0.348 OA
ATOM     41  H1  UNL     1      30.391  75.939  -7.685  1.00  0.00     0.219 HD
ENDBRANCH  39  40
BRANCH  39  42
HETATM   42  C6  UNL     1      29.201  77.258  -5.101  1.00  0.00     0.281 C
BRANCH  42  43
HETATM   43  N5  UNL     1      29.856  78.532  -5.537  1.00  0.00    -0.064 N
ATOM     44  H53 UNL     1      29.856  78.641  -6.550  1.00  0.00     0.275 HD
ATOM     45  H52 UNL     1      29.298  79.354  -5.304  1.00  0.00     0.275 HD
ATOM     46  H51 UNL     1      30.795  78.575  -5.141  1.00  0.00     0.275 HD
ENDBRANCH  42  43
BRANCH  42  47
HETATM   47  C7  UNL     1      27.858  77.649  -4.674  1.00  0.00     0.031 C
BRANCH  47  48
HETATM   48  C8  UNL     1      27.362  77.577  -3.299  1.00  0.00     0.089 C
BRANCH  48  49
HETATM   49  N6  UNL     1      27.403  76.381  -2.570  1.00  0.00    -0.336 N
HETATM   50  C9  UNL     1      27.592  76.092  -1.230  1.00  0.00     0.252 C
HETATM   51  O2  UNL     1      27.797  76.876  -0.274  1.00  0.00    -0.271 OA
ATOM     52  H6  UNL     1      27.264  75.551  -3.147  1.00  0.00     0.168 HD
BRANCH  50  53
HETATM   53  C10 UNL     1      27.567  74.637  -0.759  1.00  0.00     0.279 C
BRANCH  53  54
HETATM   54  N7  UNL     1      26.924  73.799  -1.787  1.00  0.00    -0.066 N
ATOM     55  H73 UNL     1      25.951  74.062  -1.947  1.00  0.00     0.275 HD
ATOM     56  H72 UNL     1      27.282  73.994  -2.722  1.00  0.00     0.275 HD
ATOM     57  H71 UNL     1      27.021  72.816  -1.534  1.00  0.00     0.275 HD
ENDBRANCH  53  54
BRANCH  53  58
HETATM   58  C11 UNL     1      28.939  74.079  -0.575  1.00  0.00     0.025 A
HETATM   59  C12 UNL     1      29.261  72.723  -0.132  1.00  0.00     0.007 A
HETATM   60  C13 UNL     1      29.359  73.831   0.894  1.00  0.00     0.007 A
ENDBRANCH  53  58
ENDBRANCH  50  53
ENDBRANCH  48  49
ENDBRANCH  47  48
ENDBRANCH  42  47
ENDBRANCH  39  42
ENDBRANCH  37  39
ENDBRANCH   3  37
TORSDOF 14
ENDMDL