MODEL 3
REMARK VINA RESULT: -8.682894616      3.023      5.119
REMARK  12 active torsions:
REMARK  status: ('A' for Active; 'I' for Inactive)
REMARK    1  A    between atoms: N1_2  and  C2_5
REMARK    2  A    between atoms: C4_9  and  C5_10
REMARK    3  A    between atoms: C6_13  and  S1_14
REMARK    4  A    between atoms: S1_14  and  S2_15
REMARK    5  A    between atoms: S2_15  and  C7_16
REMARK    6  A    between atoms: C9_21  and  N4_22
REMARK    7  A    between atoms: C10_26  and  N5_27
REMARK    8  A    between atoms: N5_27  and  C11_29
REMARK    9  A    between atoms: C11_29  and  C12_33
REMARK   10  A    between atoms: N8_37  and  C14_38
REMARK   11  A    between atoms: C16_45  and  N11_46
REMARK   12  A    between atoms: C18_52  and  C19_53
ROOT
HETATM    1  C7  UNL     1      30.684  71.277  -7.816  1.00  0.00     0.282 C
HETATM    2  N3  UNL     1      31.789  70.330  -7.874  1.00  0.00    -0.057 N
ATOM      3  H31 UNL     1      32.708  70.738  -7.705  1.00  0.00     0.278 HD
ATOM      4  H32 UNL     1      32.001  69.981  -8.809  1.00  0.00     0.278 HD
HETATM    5  C8  UNL     1      31.392  69.297  -6.911  1.00  0.00     0.268 C
HETATM    6  C9  UNL     1      31.000  70.170  -5.720  1.00  0.00     0.234 C
HETATM    7  C10 UNL     1      30.180  71.246  -6.410  1.00  0.00     0.156 C
ENDROOT
BRANCH   7   8
HETATM    8  N5  UNL     1      30.319  72.518  -5.720  1.00  0.00    -0.366 N
ATOM      9  H5  UNL     1      31.233  72.945  -5.566  1.00  0.00     0.161 HD
BRANCH   8  10
HETATM   10  C11 UNL     1      29.127  73.133  -5.272  1.00  0.00     0.108 C
HETATM   11  N6  UNL     1      28.377  72.454  -4.466  1.00  0.00    -0.385 N
ATOM     12  H62 UNL     1      28.655  71.515  -4.179  1.00  0.00     0.157 HD
ATOM     13  H61 UNL     1      27.517  72.898  -4.144  1.00  0.00     0.157 HD
BRANCH  10  14
HETATM   14  C12 UNL     1      28.732  74.471  -5.682  1.00  0.00     0.042 A
HETATM   15  C13 UNL     1      27.466  74.982  -5.683  1.00  0.00     0.124 A
HETATM   16  N7  UNL     1      27.575  76.250  -6.136  1.00  0.00    -0.290 N
HETATM   17  N8  UNL     1      28.816  76.549  -6.412  1.00  0.00    -0.096 N
ATOM     18  H7  UNL     1      26.790  76.892  -6.248  1.00  0.00     0.187 HD
HETATM   19  C17 UNL     1      29.577  75.456  -6.141  1.00  0.00     0.151 A
BRANCH  17  20
HETATM   20  C14 UNL     1      29.289  77.790  -6.906  1.00  0.00     0.721 A
HETATM   21  N9  UNL     1      28.828  78.281  -8.088  1.00  0.00    -0.138 N
HETATM   22  C15 UNL     1      29.272  79.458  -8.564  1.00  0.00     0.352 A
ATOM     23  H9  UNL     1      28.137  77.751  -8.619  1.00  0.00     0.189 HD
HETATM   24  O4  UNL     1      28.838  79.910  -9.664  1.00  0.00    -0.246 OA
HETATM   25  N10 UNL     1      30.182  80.177  -7.881  1.00  0.00    -0.141 N
HETATM   26  C16 UNL     1      30.645  79.711  -6.721  1.00  0.00     0.694 A
ATOM     27  H10 UNL     1      30.514  81.070  -8.247  1.00  0.00     0.189 HD
HETATM   28  N12 UNL     1      30.197  78.524  -6.241  1.00  0.00    -0.020 N
ATOM     29  H12 UNL     1      30.560  78.180  -5.352  1.00  0.00     0.203 HD
BRANCH  26  30
HETATM   30  N11 UNL     1      31.524  80.377  -6.033  1.00  0.00    -0.234 N
ATOM     31 2H11 UNL     1      31.201  81.025  -5.315  1.00  0.00     0.174 HD
ATOM     32 1H11 UNL     1      32.523  80.260  -6.201  1.00  0.00     0.174 HD
ENDBRANCH  26  30
ENDBRANCH  17  20
ENDBRANCH  10  14
ENDBRANCH   8  10
ENDBRANCH   7   8
BRANCH   1  33
HETATM   33  S2  UNL     1      29.361  70.812  -8.959  1.00  0.00    -0.057 SA
BRANCH  33  34
HETATM   34  S1  UNL     1      29.066  72.359 -10.423  1.00  0.00    -0.056 SA
BRANCH  34  35
HETATM   35  C6  UNL     1      30.399  72.237 -11.605  1.00  0.00     0.046 C
HETATM   36  C4  UNL     1      31.349  73.114 -11.624  1.00  0.00     0.131 C
HETATM   37  N2  UNL     1      32.446  73.033 -12.564  1.00  0.00    -0.292 N
HETATM   38  C3  UNL     1      33.836  73.209 -12.742  1.00  0.00     0.259 C
HETATM   39  C20 UNL     1      32.225  72.608 -13.944  1.00  0.00     0.196 C
HETATM   40  C2  UNL     1      33.727  72.564 -14.094  1.00  0.00     0.310 C
HETATM   41  O1  UNL     1      34.818  73.695 -12.089  1.00  0.00    -0.271 OA
HETATM   42  S3  UNL     1      31.424  70.983 -13.849  1.00  0.00    -0.121 SA
HETATM   43  C18 UNL     1      30.209  71.100 -12.553  1.00  0.00     0.181 C
BRANCH  36  44
HETATM   44  C5  UNL     1      31.370  74.265 -10.738  1.00  0.00     0.228 C
HETATM   45  O2  UNL     1      30.958  75.364 -11.160  1.00  0.00    -0.643 OA
HETATM   46  O3  UNL     1      31.829  74.223  -9.424  1.00  0.00    -0.643 OA
ENDBRANCH  36  44
BRANCH  40  47
HETATM   47  N1  UNL     1      34.242  73.427 -15.146  1.00  0.00    -0.063 N
HETATM   48  C1  UNL     1      35.148  72.692 -15.994  1.00  0.00     0.268 C
ATOM     49  H12 UNL     1      34.673  74.271 -14.770  1.00  0.00     0.277 HD
ATOM     50  H11 UNL     1      33.492  73.866 -15.680  1.00  0.00     0.277 HD
ENDBRANCH  40  47
BRANCH  43  51
HETATM   51  C19 UNL     1      28.822  71.217 -13.073  1.00  0.00     0.250 C
HETATM   52  N13 UNL     1      28.507  72.320 -13.911  1.00  0.00    -0.061 NA
HETATM   53  O5  UNL     1      27.910  70.394 -12.812  1.00  0.00    -0.275 OA
ENDBRANCH  43  51
ENDBRANCH  34  35
ENDBRANCH  33  34
ENDBRANCH   1  33
BRANCH   6  54
HETATM   54  N4  UNL     1      30.131  69.454  -4.806  1.00  0.00    -0.071 N
ATOM     55  H43 UNL     1      30.663  68.988  -4.071  1.00  0.00     0.274 HD
ATOM     56  H42 UNL     1      29.589  70.095  -4.226  1.00  0.00     0.274 HD
ATOM     57  H41 UNL     1      29.528  68.799  -5.304  1.00  0.00     0.274 HD
ENDBRANCH   6  54
TORSDOF 12
ENDMDL