MODEL 5
REMARK VINA RESULT: -9.190242430      4.410      8.759
REMARK  17 active torsions:
REMARK  status: ('A' for Active; 'I' for Inactive)
REMARK    1  A    between atoms: N1_1  and  C1_4
REMARK    2  A    between atoms: C2_7  and  C3_8
REMARK    3  A    between atoms: C3_8  and  O1_9
REMARK    4  A    between atoms: C3_8  and  C4_11
REMARK    5  A    between atoms: C4_11  and  N3_12
REMARK    6  A    between atoms: C4_11  and  N10_42
REMARK    7  A    between atoms: N3_12  and  N4_14
REMARK    8  A    between atoms: N4_14  and  N5_16
REMARK    9  A    between atoms: N6_19  and  N7_20
REMARK   10  A    between atoms: C7_22  and  C8_23
REMARK   11  A    between atoms: C9_24  and  O2_25
REMARK   12  A    between atoms: C13_36  and  C14_37
REMARK   13  A    between atoms: C14_37  and  O5_38
REMARK   14  A    between atoms: C14_37  and  O6_40
REMARK   15  A    between atoms: C16_44  and  S1_45
REMARK   16  A    between atoms: S1_45  and  N11_46
REMARK   17  A    between atoms: C19_53  and  O9_54
ROOT
HETATM    1  N3  UNL     1      27.514  73.282  -5.467  1.00  0.00    -0.272 N
ATOM      2  H3  UNL     1      27.455  72.339  -5.082  1.00  0.00     0.190 HD
ENDROOT
BRANCH   1   3
HETATM    3  C4  UNL     1      28.410  74.059  -4.943  1.00  0.00     0.165 C
BRANCH   3   4
HETATM    4  C3  UNL     1      28.946  75.143  -5.653  1.00  0.00     0.139 C
BRANCH   4   5
HETATM    5  C2  UNL     1      28.974  76.591  -5.347  1.00  0.00     0.078 A
HETATM    6  N2  UNL     1      29.855  77.386  -5.947  1.00  0.00    -0.334 N
HETATM    7  C1  UNL     1      29.856  78.676  -5.644  1.00  0.00     0.142 A
ATOM      8  H2  UNL     1      30.516  77.012  -6.628  1.00  0.00     0.168 HD
HETATM    9  S2  UNL     1      28.627  78.840  -4.505  1.00  0.00    -0.064 SA
HETATM   10  C20 UNL     1      28.134  77.176  -4.455  1.00  0.00     0.085 A
BRANCH   7  11
HETATM   11  N1  UNL     1      30.652  79.609  -6.139  1.00  0.00    -0.380 N
ATOM     12  H12 UNL     1      30.623  80.050  -7.058  1.00  0.00     0.158 HD
ATOM     13  H11 UNL     1      31.445  80.049  -5.671  1.00  0.00     0.158 HD
ENDBRANCH   7  11
ENDBRANCH   4   5
BRANCH   4  14
HETATM   14  O1  UNL     1      29.531  74.853  -6.795  1.00  0.00    -0.355 OA
ATOM     15  H1  UNL     1      30.332  75.344  -6.933  1.00  0.00     0.218 HD
ENDBRANCH   4  14
ENDBRANCH   3   4
BRANCH   3  16
HETATM   16  N10 UNL     1      28.726  73.645  -3.593  1.00  0.00    -0.284 N
HETATM   17  C15 UNL     1      28.343  74.361  -2.517  1.00  0.00     0.126 A
HETATM   18  C16 UNL     1      28.555  74.000  -1.213  1.00  0.00     0.095 A
HETATM   19  C17 UNL     1      29.214  72.812  -0.985  1.00  0.00     0.031 A
HETATM   20  C18 UNL     1      29.620  72.053  -2.075  1.00  0.00     0.058 A
HETATM   21  C19 UNL     1      29.372  72.478  -3.362  1.00  0.00     0.147 A
BRANCH  18  22
HETATM   22  S1  UNL     1      28.029  74.982   0.139  1.00  0.00     0.258 S
HETATM   23  O7  UNL     1      26.899  74.352   0.883  1.00  0.00    -0.201 OA
HETATM   24  O8  UNL     1      29.180  75.190   1.070  1.00  0.00    -0.201 OA
BRANCH  22  25
HETATM   25  N11 UNL     1      27.566  76.566  -0.442  1.00  0.00    -0.324 N
ATOM     26 2H11 UNL     1      27.041  76.737  -1.298  1.00  0.00     0.169 HD
ATOM     27 1H11 UNL     1      27.904  77.276   0.209  1.00  0.00     0.169 HD
ENDBRANCH  22  25
ENDBRANCH  18  22
BRANCH  21  28
HETATM   28  O9  UNL     1      29.789  71.702  -4.434  1.00  0.00    -0.346 OA
ATOM     29  H9  UNL     1      30.239  72.111  -5.163  1.00  0.00     0.219 HD
ENDBRANCH  21  28
ENDBRANCH   3  16
ENDBRANCH   1   3
BRANCH   1  30
HETATM   30  N4  UNL     1      26.650  73.574  -6.460  1.00  0.00    -0.260 N
ATOM     31  H4  UNL     1      26.986  73.898  -7.367  1.00  0.00     0.202 HD
BRANCH  30  32
HETATM   32  N5  UNL     1      25.254  73.419  -6.208  1.00  0.00    -0.204 NA
HETATM   33  C5  UNL     1      25.074  72.375  -5.267  1.00  0.00     0.137 C
HETATM   34  C6  UNL     1      24.058  72.613  -4.198  1.00  0.00     0.158 C
HETATM   35  N6  UNL     1      24.177  73.923  -3.608  1.00  0.00    -0.325 N
HETATM   36  C12 UNL     1      24.611  75.023  -4.434  1.00  0.00     0.169 C
HETATM   37  C13 UNL     1      24.687  74.688  -5.881  1.00  0.00     0.155 C
BRANCH  35  38
HETATM   38  N7  UNL     1      23.876  74.087  -2.269  1.00  0.00    -0.313 N
HETATM   39  C7  UNL     1      22.927  73.474  -1.665  1.00  0.00     0.128 C
ATOM     40  H7  UNL     1      24.446  74.737  -1.728  1.00  0.00     0.185 HD
BRANCH  39  41
HETATM   41  C8  UNL     1      22.633  73.667  -0.254  1.00  0.00     0.100 A
HETATM   42  C9  UNL     1      23.544  73.310   0.731  1.00  0.00     0.161 A
HETATM   43  N8  UNL     1      23.234  73.504   2.011  1.00  0.00    -0.288 N
HETATM   44  C10 UNL     1      22.061  74.037   2.410  1.00  0.00     0.329 A
ATOM     45  H8  UNL     1      23.915  73.237   2.722  1.00  0.00     0.172 HD
HETATM   46  O3  UNL     1      21.814  74.200   3.652  1.00  0.00    -0.247 OA
HETATM   47  N9  UNL     1      21.160  74.391   1.478  1.00  0.00    -0.275 N
HETATM   48  C11 UNL     1      21.437  74.211   0.177  1.00  0.00     0.265 A
ATOM     49  H9  UNL     1      20.267  74.795   1.759  1.00  0.00     0.173 HD
HETATM   50  O4  UNL     1      20.597  74.541  -0.701  1.00  0.00    -0.267 OA
BRANCH  42  51
HETATM   51  O2  UNL     1      24.768  72.758   0.365  1.00  0.00    -0.345 OA
ATOM     52  H2  UNL     1      25.451  72.661   1.018  1.00  0.00     0.219 HD
ENDBRANCH  42  51
ENDBRANCH  39  41
ENDBRANCH  35  38
BRANCH  37  53
HETATM   53  C14 UNL     1      23.360  74.850  -6.599  1.00  0.00     0.275 C
BRANCH  53  54
HETATM   54  O5  UNL     1      23.587  75.276  -7.916  1.00  0.00    -0.370 OA
ATOM     55  H5  UNL     1      23.512  76.222  -7.962  1.00  0.00     0.212 HD
ENDBRANCH  53  54
BRANCH  53  56
HETATM   56  O6  UNL     1      22.579  75.844  -6.004  1.00  0.00    -0.370 OA
ATOM     57  H6  UNL     1      23.034  76.677  -5.987  1.00  0.00     0.212 HD
ENDBRANCH  53  56
ENDBRANCH  37  53
ENDBRANCH  30  32
ENDBRANCH   1  30
TORSDOF 17
ENDMDL