MODEL 5
REMARK VINA RESULT: -9.310673844      1.811      3.901
REMARK  13 active torsions:
REMARK  status: ('A' for Active; 'I' for Inactive)
REMARK    1  A    between atoms: O1_2  and  C2_3
REMARK       I    between atoms: N1_5  and  C4_6
REMARK       I    between atoms: C4_6  and  N2_7
REMARK    2  A    between atoms: C5_12  and  N5_13
REMARK    3  A    between atoms: N5_13  and  C6_15
REMARK    4  A    between atoms: C8_21  and  N8_22
REMARK       I    between atoms: N8_22  and  C9_24
REMARK    5  A    between atoms: C9_24  and  C10_26
REMARK    6  A    between atoms: C10_26  and  S1_27
REMARK    7  A    between atoms: S1_27  and  C11_28
REMARK    8  A    between atoms: C11_28  and  C12_29
REMARK    9  A    between atoms: C13_31  and  N9_32
REMARK   10  A    between atoms: C17_41  and  O5_42
REMARK   11  A    between atoms: C20_48  and  N13_49
REMARK       I    between atoms: N13_49  and  C21_51
REMARK   12  A    between atoms: C21_51  and  C22_53
REMARK   13  A    between atoms: C22_53  and  N14_54
ROOT
HETATM    1  C11 UNL     1      27.163  76.409  -5.081  1.00  0.00     0.108 C
ENDROOT
BRANCH   1   2
HETATM    2  S1  UNL     1      25.539  75.642  -5.288  1.00  0.00    -0.157 SA
BRANCH   2   3
HETATM    3  C10 UNL     1      25.648  73.875  -5.589  1.00  0.00     0.177 C
BRANCH   3   4
HETATM    4  C9  UNL     1      25.691  73.157  -4.299  1.00  0.00     0.245 C
HETATM    5  N8  UNL     1      24.605  73.263  -3.405  1.00  0.00    -0.158 N
ATOM      6  H8  UNL     1      23.665  73.396  -3.779  1.00  0.00     0.187 HD
HETATM    7  O2  UNL     1      26.685  72.454  -3.993  1.00  0.00    -0.272 OA
BRANCH   5   8
HETATM    8  C8  UNL     1      24.771  73.195  -2.120  1.00  0.00     0.700 A
HETATM    9  N7  UNL     1      23.747  73.261  -1.261  1.00  0.00    -0.186 N
HETATM   10  C7  UNL     1      24.031  73.173   0.049  1.00  0.00     0.215 A
ATOM     11  H7  UNL     1      22.788  73.374  -1.589  1.00  0.00     0.185 HD
HETATM   12  N6  UNL     1      25.279  73.024   0.516  1.00  0.00    -0.187 N
HETATM   13  C6  UNL     1      26.322  72.957  -0.358  1.00  0.00     0.695 A
ATOM     14  H6  UNL     1      25.446  72.962   1.521  1.00  0.00     0.185 HD
HETATM   15  N15 UNL     1      26.031  73.046  -1.672  1.00  0.00    -0.022 N
ATOM     16  H15 UNL     1      26.792  72.998  -2.350  1.00  0.00     0.203 HD
BRANCH  13  17
HETATM   17  N5  UNL     1      27.515  72.814   0.073  1.00  0.00    -0.200 N
ATOM     18  H5  UNL     1      27.709  72.092   0.768  1.00  0.00     0.180 HD
BRANCH  17  19
HETATM   19  C5  UNL     1      28.589  73.637  -0.391  1.00  0.00     0.272 C
HETATM   20  C2  UNL     1      28.506  74.921   0.393  1.00  0.00     0.103 C
HETATM   21  C3  UNL     1      29.318  74.775   1.424  1.00  0.00     0.151 C
HETATM   22  N1  UNL     1      29.931  73.480   1.372  1.00  0.00    -0.238 N
HETATM   23  C4  UNL     1      30.439  72.754   2.479  1.00  0.00     0.204 C
HETATM   24  N4  UNL     1      29.898  73.146   0.007  1.00  0.00    -0.099 NA
HETATM   25  N2  UNL     1      29.720  71.842   3.055  1.00  0.00    -0.372 N
HETATM   26  N3  UNL     1      31.741  72.998   2.993  1.00  0.00    -0.062 NA
ATOM     27  H22 UNL     1      28.786  71.667   2.686  1.00  0.00     0.158 HD
ATOM     28  H21 UNL     1      30.086  71.320   3.851  1.00  0.00     0.158 HD
BRANCH  20  29
HETATM   29  O1  UNL     1      27.721  76.030   0.073  1.00  0.00    -0.355 OA
HETATM   30  C1  UNL     1      27.567  76.380  -1.293  1.00  0.00     0.209 C
ENDBRANCH  20  29
ENDBRANCH  17  19
ENDBRANCH  13  17
ENDBRANCH   5   8
ENDBRANCH   3   4
ENDBRANCH   2   3
ENDBRANCH   1   2
BRANCH   1  31
HETATM   31  C12 UNL     1      28.242  75.685  -5.804  1.00  0.00     0.156 C
HETATM   32  O3  UNL     1      29.099  75.071  -4.911  1.00  0.00    -0.358 OA
HETATM   33  C13 UNL     1      30.300  74.859  -5.569  1.00  0.00     0.233 C
HETATM   34  C19 UNL     1      30.366  75.798  -6.751  1.00  0.00     0.082 C
HETATM   35  C20 UNL     1      29.105  76.638  -6.563  1.00  0.00     0.118 C
BRANCH  33  36
HETATM   36  N9  UNL     1      30.428  73.476  -5.973  1.00  0.00    -0.300 N
HETATM   37  C14 UNL     1      30.765  73.007  -7.181  1.00  0.00     0.188 A
HETATM   38  N10 UNL     1      30.773  71.652  -7.137  1.00  0.00    -0.345 N
HETATM   39  C15 UNL     1      30.437  71.244  -5.886  1.00  0.00     0.147 A
ATOM     40  H10 UNL     1      30.995  71.036  -7.919  1.00  0.00     0.167 HD
HETATM   41  C16 UNL     1      30.290  70.018  -5.285  1.00  0.00     0.279 A
HETATM   42  C18 UNL     1      30.224  72.421  -5.169  1.00  0.00     0.146 A
HETATM   43  O4  UNL     1      30.485  68.974  -5.941  1.00  0.00    -0.265 OA
HETATM   44  N11 UNL     1      29.939  69.967  -3.996  1.00  0.00    -0.287 N
HETATM   45  C17 UNL     1      29.722  71.084  -3.262  1.00  0.00     0.225 A
ATOM     46  H11 UNL     1      29.830  69.056  -3.550  1.00  0.00     0.172 HD
HETATM   47  N12 UNL     1      29.871  72.267  -3.872  1.00  0.00    -0.306 N
ATOM     48  H12 UNL     1      29.707  73.110  -3.320  1.00  0.00     0.171 HD
BRANCH  45  49
HETATM   49  O5  UNL     1      29.359  70.948  -1.932  1.00  0.00    -0.332 OA
ATOM     50  H5  UNL     1      30.004  71.139  -1.261  1.00  0.00     0.221 HD
ENDBRANCH  45  49
ENDBRANCH  33  36
BRANCH  35  51
HETATM   51  N13 UNL     1      29.482  77.767  -5.742  1.00  0.00    -0.352 N
HETATM   52  C21 UNL     1      30.019  78.960  -6.263  1.00  0.00     0.243 C
HETATM   53  O6  UNL     1      30.186  79.076  -7.496  1.00  0.00    -0.272 OA
ATOM     54  H13 UNL     1      29.352  77.696  -4.733  1.00  0.00     0.163 HD
BRANCH  52  55
HETATM   55  C22 UNL     1      30.381  80.064  -5.361  1.00  0.00     0.332 C
BRANCH  55  56
HETATM   56  N14 UNL     1      31.543  80.734  -5.857  1.00  0.00    -0.071 N
ATOM     57 3H14 UNL     1      32.251  80.080  -6.190  1.00  0.00     0.274 HD
ATOM     58 2H14 UNL     1      31.361  81.215  -6.738  1.00  0.00     0.274 HD
ATOM     59 1H14 UNL     1      31.908  81.366  -5.145  1.00  0.00     0.274 HD
ENDBRANCH  55  56
ENDBRANCH  52  55
ENDBRANCH  35  51
ENDBRANCH   1  31
TORSDOF 13
ENDMDL