MODEL 1
REMARK VINA RESULT: -10.818695977      0.000      0.000
REMARK  12 active torsions:
REMARK  status: ('A' for Active; 'I' for Inactive)
REMARK    1  A    between atoms: C2_3  and  C10_19
REMARK    2  A    between atoms: C3_4  and  O1_5
REMARK    3  A    between atoms: O1_5  and  C4_6
REMARK    4  A    between atoms: C9_16  and  O5_17
REMARK    5  A    between atoms: C10_19  and  N3_20
REMARK    6  A    between atoms: N3_20  and  S1_22
REMARK    7  A    between atoms: S1_22  and  N4_25
REMARK    8  A    between atoms: C12_27  and  N5_28
REMARK       I    between atoms: N5_28  and  C13_30
REMARK    9  A    between atoms: C13_30  and  C14_32
REMARK   10  A    between atoms: C14_32  and  O9_33
REMARK   11  A    between atoms: C14_32  and  C15_35
REMARK   12  A    between atoms: C18_42  and  N8_43
ROOT
HETATM    1  N1  UNL     1      29.505  79.163  -4.789  1.00  0.00    -0.192 NA
HETATM    2  C1  UNL     1      28.851  78.255  -4.473  1.00  0.00     0.098 C
HETATM    3  C2  UNL     1      28.034  77.136  -4.056  1.00  0.00     0.062 C
HETATM    4  C3  UNL     1      27.437  77.103  -2.886  1.00  0.00     0.158 C
ENDROOT
BRANCH   3   5
HETATM    5  C10 UNL     1      27.847  75.972  -4.971  1.00  0.00     0.185 C
BRANCH   5   6
HETATM    6  N3  UNL     1      28.723  74.906  -4.581  1.00  0.00    -0.296 N
ATOM      7  H3  UNL     1      29.140  74.775  -3.660  1.00  0.00     0.174 HD
BRANCH   6   8
HETATM    8  S1  UNL     1      28.944  73.882  -5.960  1.00  0.00     0.339 S
HETATM    9  O6  UNL     1      30.026  74.487  -6.808  1.00  0.00    -0.181 OA
HETATM   10  O7  UNL     1      27.640  73.808  -6.705  1.00  0.00    -0.181 OA
BRANCH   8  11
HETATM   11  N4  UNL     1      29.427  72.332  -5.405  1.00  0.00    -0.170 N
HETATM   12  C11 UNL     1      30.201  71.488  -6.142  1.00  0.00     0.166 A
HETATM   13  C12 UNL     1      30.370  70.366  -5.372  1.00  0.00     0.123 A
HETATM   14  C21 UNL     1      29.685  70.558  -4.167  1.00  0.00     0.289 A
HETATM   15  O11 UNL     1      29.590  69.763  -3.183  1.00  0.00    -0.264 OA
HETATM   16  N11 UNL     1      29.132  71.774  -4.249  1.00  0.00    -0.247 N
ATOM     17  H11 UNL     1      28.564  72.207  -3.522  1.00  0.00     0.191 HD
BRANCH  13  18
HETATM   18  N5  UNL     1      31.091  69.170  -5.652  1.00  0.00    -0.319 N
HETATM   19  C13 UNL     1      32.007  68.989  -6.715  1.00  0.00     0.257 C
HETATM   20  O8  UNL     1      32.233  69.947  -7.503  1.00  0.00    -0.270 OA
ATOM     21  H5  UNL     1      30.933  68.375  -5.032  1.00  0.00     0.169 HD
BRANCH  19  22
HETATM   22  C14 UNL     1      32.685  67.714  -6.910  1.00  0.00     0.261 C
BRANCH  22  23
HETATM   23  O9  UNL     1      31.753  66.656  -7.010  1.00  0.00    -0.380 OA
ATOM     24  H9  UNL     1      32.195  65.825  -7.139  1.00  0.00     0.211 HD
ENDBRANCH  22  23
BRANCH  22  25
HETATM   25  C15 UNL     1      33.443  67.676  -8.186  1.00  0.00     0.064 A
HETATM   26  C16 UNL     1      32.883  67.512  -9.426  1.00  0.00     0.118 A
HETATM   27  N6  UNL     1      33.664  67.497 -10.550  1.00  0.00    -0.348 N
HETATM   28  C17 UNL     1      34.995  67.639 -10.508  1.00  0.00     0.153 A
ATOM     29  H6  UNL     1      33.213  67.374 -11.457  1.00  0.00     0.167 HD
HETATM   30  N7  UNL     1      35.769  67.626 -11.607  1.00  0.00    -0.174 N
HETATM   31  C20 UNL     1      35.566  67.803  -9.266  1.00  0.00     0.147 A
HETATM   32  C18 UNL     1      37.118  67.768 -11.553  1.00  0.00     0.680 A
ATOM     33  H7  UNL     1      35.324  67.504 -12.517  1.00  0.00     0.186 HD
HETATM   34  N9  UNL     1      37.692  67.930 -10.346  1.00  0.00    -0.154 N
HETATM   35  C19 UNL     1      36.941  67.948  -9.231  1.00  0.00     0.290 A
ATOM     36  H9  UNL     1      38.704  68.040 -10.277  1.00  0.00     0.187 HD
HETATM   37  O10 UNL     1      37.472  68.099  -8.101  1.00  0.00    -0.265 OA
HETATM   38  N10 UNL     1      34.808  67.819  -8.162  1.00  0.00    -0.348 N
ATOM     39  H10 UNL     1      35.268  67.942  -7.259  1.00  0.00     0.166 HD
BRANCH  32  40
HETATM   40  N8  UNL     1      37.830  67.750 -12.637  1.00  0.00    -0.234 N
ATOM     41  H82 UNL     1      37.408  67.928 -13.548  1.00  0.00     0.174 HD
ATOM     42  H81 UNL     1      38.830  67.555 -12.599  1.00  0.00     0.174 HD
ENDBRANCH  32  40
ENDBRANCH  22  25
ENDBRANCH  19  22
ENDBRANCH  13  18
ENDBRANCH   8  11
ENDBRANCH   6   8
ENDBRANCH   5   6
ENDBRANCH   3   5
BRANCH   4  43
HETATM   43  O1  UNL     1      26.664  76.040  -2.499  1.00  0.00    -0.328 OA
BRANCH  43  44
HETATM   44  C4  UNL     1      26.963  75.106  -1.510  1.00  0.00     0.295 C
HETATM   45  O2  UNL     1      28.320  75.066  -1.294  1.00  0.00    -0.356 OA
HETATM   46  C5  UNL     1      28.775  73.983  -0.588  1.00  0.00     0.205 C
HETATM   47  C6  UNL     1      27.738  73.254   0.206  1.00  0.00     0.183 C
HETATM   48  O3  UNL     1      27.183  74.004   1.262  1.00  0.00    -0.294 OA
HETATM   49  C8  UNL     1      26.601  72.811  -0.655  1.00  0.00     0.152 C
HETATM   50  C7  UNL     1      25.847  73.610   1.403  1.00  0.00     0.361 C
HETATM   51  O4  UNL     1      25.152  73.912   2.403  1.00  0.00    -0.238 OA
HETATM   52  N2  UNL     1      25.453  72.847   0.262  1.00  0.00    -0.327 N
ATOM     53  H2  UNL     1      24.544  72.409   0.112  1.00  0.00     0.165 HD
HETATM   54  C9  UNL     1      26.370  73.747  -1.807  1.00  0.00     0.199 C
BRANCH  54  55
HETATM   55  O5  UNL     1      26.755  73.225  -3.019  1.00  0.00    -0.388 OA
ATOM     56  H5  UNL     1      27.690  73.274  -3.180  1.00  0.00     0.210 HD
ENDBRANCH  54  55
ENDBRANCH  43  44
ENDBRANCH   4  43
TORSDOF 12
ENDMDL