MODEL 1
REMARK VINA RESULT: -9.542170494      0.000      0.000
REMARK  16 active torsions:
REMARK  status: ('A' for Active; 'I' for Inactive)
REMARK    1  A    between atoms: C3_5  and  N2_6
REMARK    2  A    between atoms: N2_6  and  N3_8
REMARK    3  A    between atoms: N3_8  and  C4_10
REMARK    4  A    between atoms: C7_13  and  O1_14
REMARK    5  A    between atoms: C12_24  and  C13_25
REMARK    6  A    between atoms: C13_25  and  N5_26
REMARK    7  A    between atoms: C14_27  and  N6_28
REMARK    8  A    between atoms: N7_31  and  C15_32
REMARK    9  A    between atoms: C15_32  and  C16_33
REMARK   10  A    between atoms: C15_32  and  C18_37
REMARK   11  A    between atoms: C16_33  and  C17_34
REMARK   12  A    between atoms: C18_37  and  O5_38
REMARK   13  A    between atoms: C18_37  and  C19_40
REMARK   14  A    between atoms: C19_40  and  O6_41
REMARK   15  A    between atoms: C19_40  and  C20_43
REMARK   16  A    between atoms: C20_43  and  O7_44
ROOT
HETATM    1  N5  UNL     1      28.990  72.953  -2.940  1.00  0.00    -0.169 N
HETATM    2  C14 UNL     1      28.640  74.141  -3.462  1.00  0.00     0.683 A
HETATM    3  N7  UNL     1      28.476  74.104  -4.788  1.00  0.00    -0.158 N
HETATM    4  C21 UNL     1      28.724  72.842  -5.132  1.00  0.00     0.163 A
HETATM    5  C22 UNL     1      29.050  72.083  -3.975  1.00  0.00     0.165 A
HETATM    6  C23 UNL     1      29.319  70.739  -4.051  1.00  0.00     0.280 A
HETATM    7  O8  UNL     1      29.594  70.056  -3.049  1.00  0.00    -0.265 OA
HETATM    8  N8  UNL     1      29.270  70.150  -5.280  1.00  0.00    -0.273 N
ATOM      9  H8  UNL     1      29.466  69.154  -5.373  1.00  0.00     0.173 HD
HETATM   10  C24 UNL     1      28.969  70.867  -6.354  1.00  0.00     0.330 A
HETATM   11  O9  UNL     1      28.939  70.270  -7.487  1.00  0.00    -0.246 OA
HETATM   12  N9  UNL     1      28.694  72.199  -6.313  1.00  0.00    -0.287 N
HETATM   13  C25 UNL     1      28.383  72.912  -7.518  1.00  0.00     0.163 C
ENDROOT
BRANCH   1  14
HETATM   14  C13 UNL     1      29.307  72.637  -1.585  1.00  0.00     0.196 C
BRANCH  14  15
HETATM   15  C12 UNL     1      28.403  72.977  -0.478  1.00  0.00     0.027 A
HETATM   16  C2  UNL     1      28.529  73.326   0.836  1.00  0.00     0.022 A
HETATM   17  C1  UNL     1      29.892  73.410   1.521  1.00  0.00     0.069 C
HETATM   18  N1  UNL     1      27.438  73.614   1.520  1.00  0.00    -0.338 N
HETATM   19  C3  UNL     1      26.262  73.561   0.927  1.00  0.00     0.164 A
ATOM     20  H1  UNL     1      27.504  73.876   2.503  1.00  0.00     0.168 HD
HETATM   21  S1  UNL     1      26.662  73.094  -0.642  1.00  0.00    -0.053 SA
BRANCH  19  22
HETATM   22  N2  UNL     1      25.073  73.811   1.455  1.00  0.00    -0.279 N
ATOM     23  H2  UNL     1      24.938  74.652   2.015  1.00  0.00     0.189 HD
BRANCH  22  24
HETATM   24  N3  UNL     1      24.005  72.940   1.254  1.00  0.00    -0.293 N
ATOM     25  H3  UNL     1      24.147  71.942   1.407  1.00  0.00     0.187 HD
BRANCH  24  26
HETATM   26  C4  UNL     1      22.729  73.396   0.844  1.00  0.00     0.129 A
HETATM   27  C5  UNL     1      22.215  73.462  -0.383  1.00  0.00     0.027 A
HETATM   28  C6  UNL     1      22.722  73.128  -1.608  1.00  0.00     0.052 A
HETATM   29  C10 UNL     1      20.928  73.973  -0.331  1.00  0.00     0.048 A
HETATM   30  C7  UNL     1      21.951  73.305  -2.739  1.00  0.00     0.066 A
HETATM   31  C8  UNL     1      20.668  73.811  -2.715  1.00  0.00     0.039 A
HETATM   32  C9  UNL     1      20.162  74.146  -1.478  1.00  0.00     0.033 A
HETATM   33  N4  UNL     1      20.582  74.242   0.884  1.00  0.00    -0.321 N
HETATM   34  C11 UNL     1      21.671  73.907   1.725  1.00  0.00     0.275 A
ATOM     35  H4  UNL     1      19.686  74.626   1.184  1.00  0.00     0.169 HD
HETATM   36  O2  UNL     1      21.673  74.043   2.965  1.00  0.00    -0.266 OA
BRANCH  30  37
HETATM   37  O1  UNL     1      22.480  72.960  -3.991  1.00  0.00    -0.361 OA
ATOM     38  H1  UNL     1      21.943  73.064  -4.767  1.00  0.00     0.217 HD
ENDBRANCH  30  37
ENDBRANCH  24  26
ENDBRANCH  22  24
ENDBRANCH  19  22
ENDBRANCH  14  15
ENDBRANCH   1  14
BRANCH   2  39
HETATM   39  N6  UNL     1      28.390  75.150  -2.726  1.00  0.00    -0.234 N
ATOM     40  H62 UNL     1      28.535  75.185  -1.716  1.00  0.00     0.174 HD
ATOM     41  H61 UNL     1      28.102  76.046  -3.120  1.00  0.00     0.174 HD
ENDBRANCH   2  39
BRANCH   3  42
HETATM   42  C15 UNL     1      28.125  75.200  -5.584  1.00  0.00     0.151 C
BRANCH  42  43
HETATM   43  C16 UNL     1      28.876  76.496  -5.178  1.00  0.00     0.142 C
BRANCH  43  44
HETATM   44  C17 UNL     1      29.557  77.089  -6.333  1.00  0.00     0.174 C
HETATM   45  O3  UNL     1      30.322  76.400  -7.012  1.00  0.00    -0.648 OA
HETATM   46  O4  UNL     1      29.329  78.406  -6.639  1.00  0.00    -0.648 OA
ENDBRANCH  43  44
ENDBRANCH  42  43
BRANCH  42  47
HETATM   47  C18 UNL     1      26.646  75.611  -5.372  1.00  0.00     0.173 C
BRANCH  47  48
HETATM   48  O5  UNL     1      26.533  76.520  -4.326  1.00  0.00    -0.391 OA
ATOM     49  H5  UNL     1      25.740  76.361  -3.826  1.00  0.00     0.210 HD
ENDBRANCH  47  48
BRANCH  47  50
HETATM   50  C19 UNL     1      25.776  74.425  -5.053  1.00  0.00     0.172 C
BRANCH  50  51
HETATM   51  O6  UNL     1      25.278  74.415  -3.771  1.00  0.00    -0.391 OA
ATOM     52  H6  UNL     1      24.619  73.750  -3.612  1.00  0.00     0.210 HD
ENDBRANCH  50  51
BRANCH  50  53
HETATM   53  C20 UNL     1      24.564  74.572  -5.996  1.00  0.00     0.198 C
BRANCH  53  54
HETATM   54  O7  UNL     1      23.601  75.408  -5.432  1.00  0.00    -0.398 OA
ATOM     55  H7  UNL     1      22.741  75.220  -5.792  1.00  0.00     0.209 HD
ENDBRANCH  53  54
ENDBRANCH  50  53
ENDBRANCH  47  50
ENDBRANCH  42  47
ENDBRANCH   3  42
TORSDOF 16
ENDMDL