MODEL 4
REMARK VINA RESULT: -7.144701642      4.249      6.086
REMARK  3 active torsions:
REMARK  status: ('A' for Active; 'I' for Inactive)
REMARK    1  A    between atoms: C2_2  and  C3_3
REMARK    2  A    between atoms: C3_3  and  C4_4
REMARK    3  A    between atoms: N1_7  and  C7_8
ROOT
HETATM    1  C7  UNL     1      30.131  -6.490  59.757  1.00  0.00     0.223 C
HETATM    2  C8  UNL     1      30.941  -5.544  58.934  1.00  0.00     0.039 C
HETATM    3  C9  UNL     1      30.925  -5.885  57.489  1.00  0.00     0.046 C
HETATM    4  C10 UNL     1      30.607  -7.322  57.194  1.00  0.00     0.099 C
HETATM    5  C11 UNL     1      29.308  -7.760  57.858  1.00  0.00     0.046 C
HETATM    6  C12 UNL     1      28.881  -6.806  58.954  1.00  0.00     0.039 C
HETATM    7  N2  UNL     1      30.519  -7.607  55.823  1.00  0.00    -0.360 N
ATOM      8  H2  UNL     1      29.755  -7.202  55.282  1.00  0.00     0.162 HD
HETATM    9  C13 UNL     1      31.340  -8.335  55.252  1.00  0.00     0.080 C
HETATM   10  C14 UNL     1      31.222  -8.629  53.767  1.00  0.00     0.089 C
HETATM   11  N3  UNL     1      32.391  -8.887  56.024  1.00  0.00    -0.318 N
ATOM     12  H3  UNL     1      33.194  -9.424  55.698  1.00  0.00     0.175 HD
HETATM   13  S1  UNL     1      31.989  -8.430  57.684  1.00  0.00    -0.022 SA
ENDROOT
BRANCH   1  14
HETATM   14  N1  UNL     1      29.848  -6.065  61.091  1.00  0.00     0.093 N
HETATM   15  C6  UNL     1      28.789  -5.075  60.993  1.00  0.00     0.273 C
HETATM   16  C5  UNL     1      29.147  -3.833  61.737  1.00  0.00     0.035 C
HETATM   17  C4  UNL     1      29.364  -4.235  63.201  1.00  0.00    -0.011 C
HETATM   18  C16 UNL     1      30.520  -5.179  63.218  1.00  0.00     0.035 C
HETATM   19  C15 UNL     1      30.979  -5.587  61.829  1.00  0.00     0.273 C
BRANCH  17  20
HETATM   20  C3  UNL     1      29.579  -2.976  63.992  1.00  0.00     0.004 C
BRANCH  20  21
HETATM   21  C2  UNL     1      31.019  -2.825  64.417  1.00  0.00    -0.004 C
HETATM   22  C1  UNL     1      31.165  -2.580  65.887  1.00  0.00     0.005 C
ENDBRANCH  20  21
ENDBRANCH  17  20
ENDBRANCH   1  14
TORSDOF 3
ENDMDL