MODEL 2
REMARK VINA RESULT: -7.377859520      3.884      6.929
REMARK  6 active torsions:
REMARK  status: ('A' for Active; 'I' for Inactive)
REMARK    1  A    between atoms: C2_2  and  C3_4
REMARK    2  A    between atoms: C7_8  and  C8_9
REMARK    3  A    between atoms: C8_9  and  O3_11
REMARK    4  A    between atoms: O3_11  and  C9_12
REMARK    5  A    between atoms: C13_16  and  C15_18
REMARK    6  A    between atoms: C15_18  and  O4_19
ROOT
HETATM    1  C8  UNL     1      29.641  -6.415  61.465  1.00  0.00     0.263 C
HETATM    2  O2  UNL     1      28.484  -6.875  61.315  1.00  0.00    -0.265 OA
ENDROOT
BRANCH   1   3
HETATM    3  C7  UNL     1      29.871  -4.973  61.088  1.00  0.00     0.086 C
HETATM    4  C6  UNL     1      28.854  -4.178  61.856  1.00  0.00     0.015 C
HETATM    5  C5  UNL     1      29.478  -3.904  63.233  1.00  0.00     0.002 C
HETATM    6  C4  UNL     1      30.530  -2.842  62.920  1.00  0.00     0.012 C
HETATM    7  C3  UNL     1      31.613  -3.384  62.029  1.00  0.00     0.056 C
HETATM    8  C17 UNL     1      31.272  -4.583  61.252  1.00  0.00     0.027 C
BRANCH   7   9
HETATM    9  C2  UNL     1      32.068  -2.272  61.165  1.00  0.00     0.127 C
HETATM   10  C1  UNL     1      33.370  -1.635  61.427  1.00  0.00     0.091 C
HETATM   11  O1  UNL     1      31.373  -1.895  60.257  1.00  0.00    -0.298 OA
ENDBRANCH   7   9
ENDBRANCH   1   3
BRANCH   1  12
HETATM   12  O3  UNL     1      30.685  -7.185  61.957  1.00  0.00    -0.316 OA
BRANCH  12  13
HETATM   13  C9  UNL     1      30.736  -7.418  63.346  1.00  0.00     0.132 C
HETATM   14  C10 UNL     1      30.261  -8.803  63.702  1.00  0.00     0.032 C
HETATM   15  C11 UNL     1      30.632  -9.080  65.130  1.00  0.00     0.003 C
HETATM   16  C12 UNL     1      31.057  -7.857  65.893  1.00  0.00     0.011 C
HETATM   17  C13 UNL     1      32.254  -7.181  65.313  1.00  0.00    -0.020 C
HETATM   18  C14 UNL     1      32.243  -5.725  65.787  1.00  0.00     0.017 C
HETATM   19  C16 UNL     1      32.156  -7.163  63.817  1.00  0.00     0.044 C
BRANCH  17  20
HETATM   20  C15 UNL     1      33.565  -7.767  65.793  1.00  0.00     0.173 C
BRANCH  20  21
HETATM   21  O4  UNL     1      33.504  -8.287  67.062  1.00  0.00    -0.400 OA
ATOM     22  H4  UNL     1      34.355  -8.505  67.425  1.00  0.00     0.209 HD
ENDBRANCH  20  21
ENDBRANCH  17  20
ENDBRANCH  12  13
ENDBRANCH   1  12
TORSDOF 6
ENDMDL