MODEL 1
REMARK VINA RESULT: -7.514469746      0.000      0.000
REMARK  5 active torsions:
REMARK  status: ('A' for Active; 'I' for Inactive)
REMARK    1  A    between atoms: C4_4  and  C5_5
REMARK    2  A    between atoms: C5_5  and  C6_6
REMARK    3  A    between atoms: C6_6  and  C7_7
REMARK    4  A    between atoms: C7_7  and  O1_8
REMARK    5  A    between atoms: C10_14  and  C11_15
ROOT
HETATM    1  C7  UNL     1      31.455  -5.931  59.417  1.00  0.00     0.167 C
HETATM    2  C8  UNL     1      32.568  -5.465  60.335  1.00  0.00     0.295 C
HETATM    3  O2  UNL     1      33.772  -5.561  60.098  1.00  0.00    -0.262 OA
HETATM    4  O3  UNL     1      31.986  -4.927  61.470  1.00  0.00    -0.312 OA
HETATM    5  C9  UNL     1      30.580  -4.939  61.243  1.00  0.00     0.151 C
HETATM    6  C10 UNL     1      29.767  -4.932  62.472  1.00  0.00     0.020 C
HETATM    7  C14 UNL     1      28.729  -6.038  62.517  1.00  0.00     0.015 C
HETATM    8  C15 UNL     1      28.048  -6.218  61.183  1.00  0.00     0.079 C
HETATM    9  C16 UNL     1      29.087  -6.462  60.118  1.00  0.00     0.137 C
HETATM   10  O4  UNL     1      28.688  -6.796  59.052  1.00  0.00    -0.297 OA
HETATM   11  C17 UNL     1      30.462  -6.263  60.507  1.00  0.00     0.130 C
ENDROOT
BRANCH   1  12
HETATM   12  C6  UNL     1      31.877  -7.046  58.593  1.00  0.00     0.134 C
BRANCH  12  13
HETATM   13  C5  UNL     1      31.874  -7.150  57.334  1.00  0.00    -0.152 C
BRANCH  13  14
HETATM   14  C4  UNL     1      31.877  -7.266  55.948  1.00  0.00     0.053 C
HETATM   15  C2  UNL     1      31.150  -8.281  55.408  1.00  0.00    -0.081 C
HETATM   16  C1  UNL     1      31.100  -8.473  53.949  1.00  0.00     0.043 C
HETATM   17  C3  UNL     1      30.426  -9.173  56.313  1.00  0.00     0.043 C
ENDBRANCH  13  14
ENDBRANCH  12  13
ENDBRANCH   1  12
BRANCH   1  18
HETATM   18  O1  UNL     1      31.009  -4.802  58.743  1.00  0.00    -0.378 OA
ATOM     19  H1  UNL     1      31.017  -3.988  59.233  1.00  0.00     0.211 HD
ENDBRANCH   1  18
BRANCH   6  20
HETATM   20  C11 UNL     1      29.185  -3.564  62.739  1.00  0.00    -0.016 C
HETATM   21  C12 UNL     1      29.375  -2.665  61.509  1.00  0.00     0.010 C
HETATM   22  C13 UNL     1      29.704  -2.840  63.917  1.00  0.00     0.010 C
ENDBRANCH   6  20
TORSDOF 5
ENDMDL