MODEL 4
REMARK VINA RESULT: -6.818105232      3.349      7.219
REMARK  4 active torsions:
REMARK  status: ('A' for Active; 'I' for Inactive)
REMARK    1  A    between atoms: C1_2  and  C2_3
REMARK       I    between atoms: C1_2  and  N2_11
REMARK    2  A    between atoms: C2_3  and  S1_4
REMARK    3  A    between atoms: S1_4  and  C3_5
REMARK    4  A    between atoms: N2_11  and  C6_13
ROOT
HETATM    1  O1  UNL     1      32.259  -4.896  59.792  1.00  0.00    -0.273 OA
HETATM    2  C1  UNL     1      31.593  -4.100  59.078  1.00  0.00     0.227 C
HETATM    3  N2  UNL     1      30.810  -4.647  58.060  1.00  0.00    -0.356 N
ATOM      4  H2  UNL     1      30.267  -4.010  57.477  1.00  0.00     0.162 HD
ENDROOT
BRANCH   3   5
HETATM    5  C6  UNL     1      30.724  -6.094  57.778  1.00  0.00     0.084 C
HETATM    6  C7  UNL     1      31.657  -6.412  56.692  1.00  0.00     0.025 C
HETATM    7  C8  UNL     1      32.421  -7.699  56.825  1.00  0.00     0.002 C
HETATM    8  C9  UNL     1      31.695  -8.826  57.445  1.00  0.00     0.000 C
HETATM    9  C10 UNL     1      31.078  -9.778  56.440  1.00  0.00     0.000 C
HETATM   10  C11 UNL     1      29.996  -9.130  55.618  1.00  0.00     0.000 C
HETATM   11  C12 UNL     1      28.899  -8.555  56.447  1.00  0.00     0.000 C
HETATM   12  C13 UNL     1      28.824  -7.031  56.370  1.00  0.00     0.002 C
HETATM   13  C14 UNL     1      29.304  -6.443  57.649  1.00  0.00     0.025 C
ENDBRANCH   3   5
BRANCH   2  14
HETATM   14  C2  UNL     1      31.623  -2.644  59.292  1.00  0.00     0.184 C
BRANCH  14  15
HETATM   15  S1  UNL     1      32.490  -2.194  60.812  1.00  0.00    -0.096 SA
BRANCH  15  16
HETATM   16  C3  UNL     1      31.541  -2.631  62.232  1.00  0.00     0.108 C
HETATM   17  N1  UNL     1      31.927  -2.731  63.411  1.00  0.00    -0.358 N
HETATM   18  C4  UNL     1      31.048  -3.089  64.422  1.00  0.00     0.072 C
ATOM     19  H1  UNL     1      32.904  -2.547  63.637  1.00  0.00     0.166 HD
HETATM   20  C5  UNL     1      29.609  -2.796  64.058  1.00  0.00     0.126 C
HETATM   21  S2  UNL     1      29.793  -3.000  62.226  1.00  0.00    -0.100 SA
ENDBRANCH  15  16
ENDBRANCH  14  15
ENDBRANCH   2  14
TORSDOF 4
ENDMDL