MODEL 1
REMARK VINA RESULT: -6.326218376      0.000      0.000
REMARK  4 active torsions:
REMARK  status: ('A' for Active; 'I' for Inactive)
REMARK    1  A    between atoms: C3_4  and  N1_5
REMARK       I    between atoms: N1_5  and  C4_7
REMARK    2  A    between atoms: C4_7  and  C5_9
REMARK    3  A    between atoms: C5_9  and  S2_10
REMARK    4  A    between atoms: S2_10  and  C6_11
ROOT
HETATM    1  N1  UNL     1      28.869  -4.312  62.398  1.00  0.00    -0.306 N
ATOM      2  H1  UNL     1      28.243  -3.882  63.078  1.00  0.00     0.171 HD
HETATM    3  C4  UNL     1      28.674  -5.671  61.943  1.00  0.00     0.232 C
HETATM    4  O1  UNL     1      28.073  -5.858  60.860  1.00  0.00    -0.272 OA
ENDROOT
BRANCH   1   5
HETATM    5  C3  UNL     1      29.889  -3.660  61.894  1.00  0.00     0.152 A
HETATM    6  S1  UNL     1      31.254  -2.986  62.660  1.00  0.00    -0.056 SA
HETATM    7  C2  UNL     1      32.026  -2.350  61.277  1.00  0.00     0.017 A
HETATM    8  C1  UNL     1      33.326  -1.600  61.161  1.00  0.00     0.059 C
HETATM    9  C12 UNL     1      31.162  -2.705  60.277  1.00  0.00     0.095 A
HETATM   10  N2  UNL     1      30.089  -3.366  60.609  1.00  0.00    -0.330 N
HETATM   11  S3  UNL     1      31.551  -2.243  58.556  1.00  0.00    -0.032 SA
ATOM     12  H2  UNL     1      29.415  -3.654  59.899  1.00  0.00     0.168 HD
ENDBRANCH   1   5
BRANCH   3  13
HETATM   13  C5  UNL     1      29.162  -6.811  62.719  1.00  0.00     0.177 C
BRANCH  13  14
HETATM   14  S2  UNL     1      30.414  -7.760  61.851  1.00  0.00    -0.155 SA
BRANCH  14  15
HETATM   15  C6  UNL     1      31.881  -6.791  61.531  1.00  0.00     0.047 C
HETATM   16  C7  UNL     1      33.151  -7.429  62.031  1.00  0.00     0.015 C
HETATM   17  C8  UNL     1      34.107  -7.766  60.911  1.00  0.00     0.001 C
HETATM   18  C9  UNL     1      34.459  -6.560  60.072  1.00  0.00     0.000 C
HETATM   19  C10 UNL     1      33.283  -5.618  59.927  1.00  0.00     0.001 C
HETATM   20  C11 UNL     1      31.976  -6.384  60.074  1.00  0.00     0.015 C
ENDBRANCH  14  15
ENDBRANCH  13  14
ENDBRANCH   3  13
TORSDOF 4
ENDMDL