MODEL 4
REMARK VINA RESULT: -7.849906470      2.806      4.002
REMARK  4 active torsions:
REMARK  status: ('A' for Active; 'I' for Inactive)
REMARK    1  A    between atoms: C2_2  and  C3_4
REMARK    2  A    between atoms: C4_5  and  C5_6
REMARK    3  A    between atoms: C5_6  and  C6_7
REMARK    4  A    between atoms: C14_15  and  O2_16
ROOT
HETATM    1  C6  UNL     1      31.537  -3.691  60.721  1.00  0.00     0.028 A
HETATM    2  C7  UNL     1      32.233  -4.883  60.835  1.00  0.00    -0.036 A
HETATM    3  C8  UNL     1      33.566  -5.073  60.307  1.00  0.00     0.050 C
HETATM    4  C9  UNL     1      31.541  -5.939  61.423  1.00  0.00     0.012 A
HETATM    5  C10 UNL     1      32.133  -7.167  61.601  1.00  0.00    -0.040 A
HETATM    6  C11 UNL     1      33.510  -7.409  61.231  1.00  0.00     0.050 C
HETATM    7  C12 UNL     1      31.358  -8.181  62.205  1.00  0.00    -0.021 A
HETATM    8  C13 UNL     1      32.015  -9.487  62.378  1.00  0.00     0.052 C
HETATM    9  C14 UNL     1      30.078  -7.947  62.597  1.00  0.00     0.080 A
HETATM   10  C15 UNL     1      29.474  -6.731  62.430  1.00  0.00     0.007 A
HETATM   11  C16 UNL     1      28.065  -6.512  62.875  1.00  0.00     0.054 C
HETATM   12  C17 UNL     1      30.211  -5.725  61.843  1.00  0.00     0.099 A
HETATM   13  O3  UNL     1      29.655  -4.554  61.678  1.00  0.00    -0.274 OA
HETATM   14  C18 UNL     1      30.245  -3.543  61.147  1.00  0.00     0.295 A
HETATM   15  O4  UNL     1      29.644  -2.417  61.014  1.00  0.00    -0.259 OA
ENDROOT
BRANCH   1  16
HETATM   16  C5  UNL     1      32.223  -2.497  60.190  1.00  0.00     0.072 C
BRANCH  16  17
HETATM   17  C4  UNL     1      33.004  -1.820  61.249  1.00  0.00    -0.018 C
HETATM   18  C3  UNL     1      33.705  -0.728  61.071  1.00  0.00     0.046 C
BRANCH  18  19
HETATM   19  C2  UNL     1      34.461  -0.092  62.140  1.00  0.00     0.145 C
HETATM   20  C1  UNL     1      34.360  -0.589  63.545  1.00  0.00     0.096 C
HETATM   21  O1  UNL     1      35.203   0.885  61.869  1.00  0.00    -0.294 OA
ENDBRANCH  18  19
ENDBRANCH  16  17
ENDBRANCH   1  16
BRANCH   9  22
HETATM   22  O2  UNL     1      29.367  -8.983  63.184  1.00  0.00    -0.359 OA
ATOM     23  H2  UNL     1      29.747  -9.423  63.935  1.00  0.00     0.217 HD
ENDBRANCH   9  22
TORSDOF 4
ENDMDL