MODEL 5
REMARK VINA RESULT: -7.550736377      3.210      5.337
REMARK  5 active torsions:
REMARK  status: ('A' for Active; 'I' for Inactive)
REMARK    1  A    between atoms: C2_2  and  C4_4
REMARK    2  A    between atoms: C4_4  and  O2_6
REMARK    3  A    between atoms: O2_6  and  C5_7
REMARK    4  A    between atoms: C5_7  and  C6_8
REMARK    5  A    between atoms: C6_8  and  C7_9
ROOT
HETATM    1  C7  UNL     1      29.261  -5.647  61.376  1.00  0.00    -0.081 C
HETATM    2  C8  UNL     1      30.415  -5.704  60.763  1.00  0.00    -0.011 C
HETATM    3  C9  UNL     1      31.317  -6.796  60.292  1.00  0.00     0.103 C
HETATM    4  C10 UNL     1      31.371  -7.968  61.209  1.00  0.00     0.172 C
HETATM    5  O3  UNL     1      32.720  -8.103  60.789  1.00  0.00    -0.345 OA
HETATM    6  C11 UNL     1      32.728  -6.701  60.883  1.00  0.00     0.171 C
HETATM    7  C12 UNL     1      33.727  -5.965  60.114  1.00  0.00     0.080 C
HETATM    8  O4  UNL     1      32.509  -6.372  62.213  1.00  0.00    -0.342 OA
HETATM    9  C13 UNL     1      31.620  -7.408  62.583  1.00  0.00     0.088 C
HETATM   10  C14 UNL     1      32.459  -8.422  63.343  1.00  0.00     0.049 C
HETATM   11  C15 UNL     1      30.425  -6.958  63.319  1.00  0.00     0.041 C
HETATM   12  C16 UNL     1      29.134  -7.558  62.875  1.00  0.00     0.007 C
HETATM   13  C17 UNL     1      28.374  -6.776  61.850  1.00  0.00     0.034 C
ENDROOT
BRANCH   1  14
HETATM   14  C6  UNL     1      28.720  -4.315  61.656  1.00  0.00     0.060 C
BRANCH  14  15
HETATM   15  C5  UNL     1      29.378  -3.531  62.739  1.00  0.00     0.183 C
BRANCH  15  16
HETATM   16  O2  UNL     1      30.268  -2.547  62.253  1.00  0.00    -0.321 OA
BRANCH  16  17
HETATM   17  C4  UNL     1      31.627  -2.578  62.341  1.00  0.00     0.262 C
HETATM   18  O1  UNL     1      32.161  -2.605  63.480  1.00  0.00    -0.265 OA
BRANCH  17  19
HETATM   19  C2  UNL     1      32.505  -2.580  61.126  1.00  0.00     0.077 C
HETATM   20  C1  UNL     1      31.677  -2.369  59.872  1.00  0.00     0.020 C
HETATM   21  C3  UNL     1      33.455  -1.415  61.248  1.00  0.00     0.020 C
ENDBRANCH  17  19
ENDBRANCH  16  17
ENDBRANCH  15  16
ENDBRANCH  14  15
ENDBRANCH   1  14
TORSDOF 5
ENDMDL