MODEL 4
REMARK VINA RESULT: -7.283010008      1.868      2.899
REMARK  4 active torsions:
REMARK  status: ('A' for Active; 'I' for Inactive)
REMARK    1  A    between atoms: C2_2  and  C3_3
REMARK    2  A    between atoms: C2_2  and  C13_19
REMARK    3  A    between atoms: C3_3  and  N1_4
REMARK    4  A    between atoms: C13_19  and  C14_20
ROOT
HETATM    1  N1  UNL     1      28.858  -6.324  59.593  1.00  0.00    -0.373 N
HETATM    2  C4  UNL     1      28.166  -6.779  58.465  1.00  0.00     0.066 C
HETATM    3  C5  UNL     1      28.920  -7.771  57.610  1.00  0.00     0.083 C
HETATM    4  C6  UNL     1      30.400  -7.632  57.748  1.00  0.00     0.079 C
HETATM    5  C7  UNL     1      30.791  -6.218  58.129  1.00  0.00     0.083 C
HETATM    6  C8  UNL     1      30.201  -5.919  59.483  1.00  0.00     0.066 C
HETATM    7  C9  UNL     1      30.904  -8.653  58.730  1.00  0.00     0.067 C
HETATM    8  C10 UNL     1      31.846  -9.537  57.917  1.00  0.00     0.169 C
HETATM    9  C11 UNL     1      32.943  -9.978  58.742  1.00  0.00     0.072 C
HETATM   10  N2  UNL     1      33.812 -10.351  59.405  1.00  0.00    -0.196 NA
HETATM   11  C12 UNL     1      32.294  -8.569  56.873  1.00  0.00     0.130 C
HETATM   12  N3  UNL     1      33.479  -8.419  56.446  1.00  0.00    -0.382 N
ATOM     13  H31 UNL     1      33.785  -7.758  55.732  1.00  0.00     0.158 HD
ATOM     14  H32 UNL     1      34.344  -8.894  56.702  1.00  0.00     0.158 HD
HETATM   15  O1  UNL     1      31.098  -7.913  56.519  1.00  0.00    -0.326 OA
ENDROOT
BRANCH   1  16
HETATM   16  C3  UNL     1      28.261  -6.399  60.868  1.00  0.00     0.131 C
BRANCH  16  17
HETATM   17  C2  UNL     1      29.247  -6.172  62.029  1.00  0.00     0.000 C
HETATM   18  C1  UNL     1      29.198  -7.455  62.825  1.00  0.00     0.011 C
BRANCH  17  19
HETATM   19  C13 UNL     1      28.752  -4.980  62.756  1.00  0.00     0.014 C
BRANCH  19  20
HETATM   20  C14 UNL     1      29.595  -3.757  62.722  1.00  0.00    -0.051 C
HETATM   21  C15 UNL     1      29.573  -2.947  63.998  1.00  0.00     0.014 C
HETATM   22  C16 UNL     1      29.405  -2.875  61.525  1.00  0.00     0.014 C
HETATM   23  C17 UNL     1      31.049  -4.272  62.615  1.00  0.00     0.014 C
ENDBRANCH  19  20
ENDBRANCH  17  19
ENDBRANCH  16  17
ENDBRANCH   1  16
TORSDOF 4
ENDMDL