MODEL 4
REMARK VINA RESULT: -8.142723633      2.681      6.356
REMARK  3 active torsions:
REMARK  status: ('A' for Active; 'I' for Inactive)
REMARK    1  A    between atoms: C2_2  and  C3_3
REMARK    2  A    between atoms: C5_5  and  C6_6
REMARK    3  A    between atoms: C7_7  and  C8_8
ROOT
HETATM    1  C8  UNL     1      29.040  -6.053  62.176  1.00  0.00     0.056 C
HETATM    2  C9  UNL     1      27.888  -6.993  62.707  1.00  0.00     0.033 C
HETATM    3  C10 UNL     1      30.282  -6.728  62.638  1.00  0.00    -0.004 C
HETATM    4  C11 UNL     1      31.582  -6.096  62.544  1.00  0.00     0.024 C
HETATM    5  C12 UNL     1      32.636  -6.385  61.784  1.00  0.00     0.175 C
HETATM    6  O1  UNL     1      32.686  -7.416  60.871  1.00  0.00    -0.209 OA
HETATM    7  O2  UNL     1      31.892  -8.011  60.089  1.00  0.00    -0.225 OA
HETATM    8  C13 UNL     1      31.585  -7.628  58.822  1.00  0.00     0.100 A
HETATM    9  C14 UNL     1      30.052  -7.260  58.660  1.00  0.00     0.072 C
HETATM   10  C15 UNL     1      29.839  -6.658  59.958  1.00  0.00     0.028 C
HETATM   11  C16 UNL     1      28.762  -6.114  60.682  1.00  0.00     0.161 C
HETATM   12  O3  UNL     1      27.693  -5.703  60.337  1.00  0.00    -0.292 OA
HETATM   13  C17 UNL     1      32.515  -7.268  57.763  1.00  0.00     0.044 A
HETATM   14  C18 UNL     1      32.014  -8.656  57.751  1.00  0.00     0.044 A
ENDROOT
BRANCH   1  15
HETATM   15  C7  UNL     1      28.827  -4.796  62.824  1.00  0.00    -0.005 C
HETATM   16  C6  UNL     1      29.234  -3.583  62.616  1.00  0.00    -0.002 C
BRANCH  16  17
HETATM   17  C5  UNL     1      30.096  -3.114  61.581  1.00  0.00     0.006 C
HETATM   18  C3  UNL     1      31.307  -2.614  61.904  1.00  0.00    -0.063 C
HETATM   19  C4  UNL     1      31.726  -2.558  63.311  1.00  0.00     0.048 C
BRANCH  18  20
HETATM   20  C2  UNL     1      32.150  -2.151  60.856  1.00  0.00    -0.004 C
HETATM   21  C1  UNL     1      33.366  -1.716  61.070  1.00  0.00     0.012 C
ENDBRANCH  18  20
ENDBRANCH  16  17
ENDBRANCH   1  15
TORSDOF 3
ENDMDL