MODEL 4
REMARK VINA RESULT: -7.913635644      3.797      6.947
REMARK  3 active torsions:
REMARK  status: ('A' for Active; 'I' for Inactive)
REMARK    1  A    between atoms: C4_7  and  C5_8
REMARK    2  A    between atoms: C5_8  and  N2_9
REMARK    3  A    between atoms: N2_9  and  C6_11
ROOT
HETATM    1  N2  UNL     1      31.673  -4.203  62.712  1.00  0.00    -0.410 N
ATOM      2  H2  UNL     1      32.364  -4.352  63.448  1.00  0.00     0.154 HD
ENDROOT
BRANCH   1   3
HETATM    3  C5  UNL     1      31.540  -2.958  62.039  1.00  0.00     0.153 C
BRANCH   3   4
HETATM    4  C4  UNL     1      32.860  -2.234  61.878  1.00  0.00     0.197 C
HETATM    5  C3  UNL     1      32.826  -1.407  60.624  1.00  0.00     0.107 A
HETATM    6  C2  UNL     1      33.623  -0.260  60.531  1.00  0.00     0.045 A
HETATM    7  O1  UNL     1      32.193  -1.487  59.503  1.00  0.00    -0.305 OA
HETATM    8  N1  UNL     1      33.382   0.250  59.327  1.00  0.00    -0.348 N
HETATM    9  C17 UNL     1      34.502   0.165  61.636  1.00  0.00     0.086 C
HETATM   10  C1  UNL     1      32.487  -0.516  58.683  1.00  0.00     0.233 A
ATOM     11  H1  UNL     1      33.811   1.096  58.950  1.00  0.00     0.167 HD
HETATM   12  C16 UNL     1      34.392  -0.853  62.748  1.00  0.00     0.175 C
HETATM   13  O2  UNL     1      33.096  -1.324  62.910  1.00  0.00    -0.377 OA
ENDBRANCH   3   4
ENDBRANCH   1   3
BRANCH   1  14
HETATM   14  C6  UNL     1      30.783  -5.227  62.294  1.00  0.00     0.026 C
HETATM   15  C7  UNL     1      29.428  -5.050  62.946  1.00  0.00     0.035 C
HETATM   16  C8  UNL     1      28.436  -6.079  62.446  1.00  0.00    -0.012 C
HETATM   17  C9  UNL     1      28.989  -7.457  62.752  1.00  0.00     0.009 C
HETATM   18  C13 UNL     1      28.204  -5.941  60.977  1.00  0.00     0.009 C
HETATM   19  C10 UNL     1      30.270  -7.606  61.976  1.00  0.00    -0.012 C
HETATM   20  C11 UNL     1      30.075  -7.430  60.499  1.00  0.00     0.009 C
HETATM   21  C15 UNL     1      31.267  -6.622  62.553  1.00  0.00     0.035 C
HETATM   22  C12 UNL     1      29.547  -6.038  60.260  1.00  0.00    -0.012 C
HETATM   23  C14 UNL     1      30.546  -5.057  60.788  1.00  0.00     0.035 C
ENDBRANCH   1  14
TORSDOF 3
ENDMDL