MODEL 5
REMARK VINA RESULT: -6.779013843      2.382      5.461
REMARK  4 active torsions:
REMARK  status: ('A' for Active; 'I' for Inactive)
REMARK    1  A    between atoms: C2_2  and  C3_3
REMARK    2  A    between atoms: C3_3  and  N1_4
REMARK       I    between atoms: N1_4  and  C4_6
REMARK       I    between atoms: C4_6  and  N2_8
REMARK       I    between atoms: N2_8  and  C5_10
REMARK       I    between atoms: C5_10  and  N3_12
REMARK    3  A    between atoms: C11_18  and  C12_19
REMARK    4  A    between atoms: C13_20  and  C14_21
ROOT
HETATM    1  N1  UNL     1     -71.324 -53.066 -71.561  1.00  0.00    -0.339 N
ATOM      2  H1  UNL     1     -70.620 -52.599 -70.989  1.00  0.00     0.164 HD
HETATM    3  C4  UNL     1     -72.117 -52.323 -72.447  1.00  0.00     0.324 C
HETATM    4  O1  UNL     1     -72.987 -52.981 -73.135  1.00  0.00    -0.247 OA
HETATM    5  N2  UNL     1     -72.081 -50.931 -72.685  1.00  0.00    -0.261 N
ATOM      6  H2  UNL     1     -72.746 -50.581 -73.375  1.00  0.00     0.175 HD
HETATM    7  C5  UNL     1     -71.255 -49.974 -72.098  1.00  0.00     0.327 C
HETATM    8  O2  UNL     1     -70.428 -50.410 -71.210  1.00  0.00    -0.247 OA
HETATM    9  N3  UNL     1     -71.210 -48.607 -72.346  1.00  0.00    -0.318 N
HETATM   10  C6  UNL     1     -70.264 -47.738 -71.535  1.00  0.00     0.133 C
HETATM   11  C7  UNL     1     -69.761 -46.727 -72.527  1.00  0.00     0.006 C
HETATM   12  C8  UNL     1     -69.832 -45.320 -71.979  1.00  0.00     0.012 C
HETATM   13  C9  UNL     1     -70.560 -46.919 -73.761  1.00  0.00     0.022 C
HETATM   14  C10 UNL     1     -70.963 -45.665 -74.461  1.00  0.00     0.013 C
HETATM   15  C11 UNL     1     -71.815 -47.654 -73.185  1.00  0.00     0.173 C
ENDROOT
BRANCH  15  16
HETATM   16  C12 UNL     1     -72.579 -48.106 -74.303  1.00  0.00    -0.075 C
HETATM   17  C13 UNL     1     -73.251 -48.536 -75.237  1.00  0.00    -0.070 C
BRANCH  17  18
HETATM   18  C14 UNL     1     -74.027 -49.018 -76.338  1.00  0.00    -0.018 C
HETATM   19  C15 UNL     1     -74.636 -48.164 -77.124  1.00  0.00     0.028 C
HETATM   20  C16 UNL     1     -74.174 -50.463 -76.637  1.00  0.00     0.057 C
ENDBRANCH  17  18
ENDBRANCH  15  16
BRANCH   1  21
HETATM   21  C3  UNL     1     -71.510 -54.523 -71.458  1.00  0.00     0.150 C
BRANCH  21  22
HETATM   22  C2  UNL     1     -70.286 -55.221 -71.007  1.00  0.00    -0.018 C
HETATM   23  C1  UNL     1     -69.177 -54.540 -70.820  1.00  0.00     0.008 C
ENDBRANCH  21  22
ENDBRANCH   1  21
TORSDOF 4
ENDMDL