MODEL 5
REMARK VINA RESULT: -6.041179259      1.127      2.260
REMARK  5 active torsions:
REMARK  status: ('A' for Active; 'I' for Inactive)
REMARK    1  A    between atoms: C3_3  and  C4_4
REMARK    2  A    between atoms: C4_4  and  N1_5
REMARK    3  A    between atoms: N1_5  and  C6_7
REMARK    4  A    between atoms: C6_7  and  N2_9
REMARK       I    between atoms: C7_11  and  N3_12
REMARK       I    between atoms: C7_11  and  N4_17
REMARK       I    between atoms: N3_12  and  C8_14
REMARK    5  A    between atoms: N4_17  and  C10_19
ROOT
HETATM    1  C1  UNL     1     -70.043 -50.796 -71.485  1.00  0.00     0.012 C
HETATM    2  C2  UNL     1     -69.817 -49.653 -71.801  1.00  0.00    -0.116 C
HETATM    3  C3  UNL     1     -69.559 -48.263 -72.189  1.00  0.00     0.113 C
ENDROOT
BRANCH   3   4
HETATM    4  C4  UNL     1     -69.786 -48.151 -73.680  1.00  0.00     0.136 C
BRANCH   4   5
HETATM    5  N1  UNL     1     -70.868 -47.242 -73.994  1.00  0.00    -0.361 N
HETATM    6  C5  UNL     1     -70.637 -45.820 -74.160  1.00  0.00     0.152 C
BRANCH   5   7
HETATM    7  C6  UNL     1     -72.178 -47.736 -74.145  1.00  0.00     0.188 C
HETATM    8  S1  UNL     1     -73.267 -47.463 -72.969  1.00  0.00    -0.040 SA
BRANCH   7   9
HETATM    9  N2  UNL     1     -72.530 -48.450 -75.293  1.00  0.00    -0.166 N
HETATM   10  C7  UNL     1     -72.756 -49.724 -75.358  1.00  0.00     0.683 C
HETATM   11  N3  UNL     1     -72.664 -50.551 -74.228  1.00  0.00    -0.160 N
HETATM   12  N4  UNL     1     -73.095 -50.258 -76.615  1.00  0.00    -0.218 N
HETATM   13  C8  UNL     1     -72.902 -51.936 -74.246  1.00  0.00     0.231 C
ATOM     14  H3  UNL     1     -72.410 -50.120 -73.338  1.00  0.00     0.187 HD
HETATM   15  C9  UNL     1     -72.791 -52.782 -73.011  1.00  0.00     0.118 C
HETATM   16  O1  UNL     1     -73.218 -52.521 -75.303  1.00  0.00    -0.273 OA
ATOM     17  H4  UNL     1     -72.518 -51.003 -77.006  1.00  0.00     0.178 HD
ATOM     18  H2  UNL     1     -72.617 -47.919 -76.161  1.00  0.00     0.186 HD
BRANCH  12  19
HETATM   19  C10 UNL     1     -74.230 -49.788 -77.369  1.00  0.00     0.036 C
HETATM   20  C11 UNL     1     -75.456 -50.536 -76.888  1.00  0.00     0.038 C
HETATM   21  C12 UNL     1     -74.364 -48.306 -77.212  1.00  0.00     0.038 C
HETATM   22  C13 UNL     1     -73.955 -50.127 -78.837  1.00  0.00     0.038 C
ENDBRANCH  12  19
ENDBRANCH   7   9
ENDBRANCH   5   7
ENDBRANCH   4   5
ENDBRANCH   3   4
TORSDOF 5
ENDMDL