MODEL 5
REMARK VINA RESULT: -6.370206956      6.978      9.812
REMARK  5 active torsions:
REMARK  status: ('A' for Active; 'I' for Inactive)
REMARK    1  A    between atoms: C2_2  and  C5_5
REMARK    2  A    between atoms: C5_5  and  C6_6
REMARK    3  A    between atoms: C6_6  and  N1_7
REMARK    4  A    between atoms: N1_7  and  C7_9
REMARK    5  A    between atoms: C7_9  and  N2_11
REMARK       I    between atoms: N3_15  and  C11_16
ROOT
HETATM    1  N2  UNL     1     -70.740 -54.918 -71.174  1.00  0.00    -0.357 N
HETATM    2  C8  UNL     1     -71.429 -53.733 -71.566  1.00  0.00     0.127 C
HETATM    3  C9  UNL     1     -71.572 -52.683 -70.490  1.00  0.00     0.040 C
HETATM    4  C10 UNL     1     -70.299 -52.313 -69.805  1.00  0.00     0.129 C
HETATM    5  N3  UNL     1     -69.124 -52.743 -70.524  1.00  0.00    -0.335 N
HETATM    6  C11 UNL     1     -68.387 -51.783 -71.301  1.00  0.00     0.330 C
HETATM    7  N4  UNL     1     -68.801 -50.438 -71.381  1.00  0.00    -0.040 NA
HETATM    8  O1  UNL     1     -67.376 -52.161 -71.906  1.00  0.00    -0.251 OA
HETATM    9  C12 UNL     1     -68.591 -54.084 -70.556  1.00  0.00     0.147 C
HETATM   10  C13 UNL     1     -69.693 -55.090 -70.155  1.00  0.00     0.145 C
ENDROOT
BRANCH   1  11
HETATM   11  C7  UNL     1     -71.073 -56.100 -71.867  1.00  0.00     0.169 C
HETATM   12  S1  UNL     1     -69.889 -56.886 -72.702  1.00  0.00    -0.041 SA
BRANCH  11  13
HETATM   13  N1  UNL     1     -72.357 -56.696 -71.914  1.00  0.00    -0.367 N
ATOM     14  H1  UNL     1     -72.718 -57.154 -71.077  1.00  0.00     0.161 HD
BRANCH  13  15
HETATM   15  C6  UNL     1     -73.168 -56.681 -73.098  1.00  0.00     0.122 C
BRANCH  15  16
HETATM   16  C5  UNL     1     -74.384 -55.847 -73.081  1.00  0.00     0.028 C
BRANCH  16  17
HETATM   17  C2  UNL     1     -75.655 -56.430 -73.542  1.00  0.00    -0.050 C
HETATM   18  C1  UNL     1     -76.542 -55.416 -74.267  1.00  0.00     0.014 C
HETATM   19  C3  UNL     1     -75.322 -57.478 -74.626  1.00  0.00     0.014 C
HETATM   20  C4  UNL     1     -76.444 -57.161 -72.508  1.00  0.00     0.014 C
ENDBRANCH  16  17
ENDBRANCH  15  16
ENDBRANCH  13  15
ENDBRANCH  11  13
ENDBRANCH   1  11
TORSDOF 5
ENDMDL