MODEL 1
REMARK VINA RESULT: -7.409995853      0.000      0.000
REMARK  4 active torsions:
REMARK  status: ('A' for Active; 'I' for Inactive)
REMARK    1  A    between atoms: C2_2  and  N1_4
REMARK       I    between atoms: N1_4  and  C4_6
REMARK       I    between atoms: C4_6  and  N2_8
REMARK    2  A    between atoms: N3_12  and  C8_13
REMARK    3  A    between atoms: C8_13  and  N4_15
REMARK    4  A    between atoms: N4_15  and  C9_17
ROOT
HETATM    1  N1  UNL     1     -73.255 -48.902 -76.183  1.00  0.00    -0.339 N
ATOM      2  H1  UNL     1     -72.324 -49.122 -76.538  1.00  0.00     0.164 HD
HETATM    3  C4  UNL     1     -73.391 -48.165 -74.982  1.00  0.00     0.318 C
HETATM    4  O1  UNL     1     -74.576 -47.925 -74.594  1.00  0.00    -0.247 OA
HETATM    5  N2  UNL     1     -72.275 -47.703 -74.227  1.00  0.00    -0.333 N
HETATM    6  C5  UNL     1     -71.033 -48.060 -74.806  1.00  0.00     0.129 C
HETATM    7  C6  UNL     1     -69.799 -47.583 -74.127  1.00  0.00     0.040 C
HETATM    8  C7  UNL     1     -69.658 -48.088 -72.711  1.00  0.00     0.127 C
HETATM    9  N3  UNL     1     -70.494 -47.212 -71.909  1.00  0.00    -0.357 N
HETATM   10  C12 UNL     1     -71.926 -47.433 -71.802  1.00  0.00     0.145 C
HETATM   11  C13 UNL     1     -72.654 -46.975 -73.042  1.00  0.00     0.147 C
ENDROOT
BRANCH   1  12
HETATM   12  C2  UNL     1     -74.419 -49.346 -76.908  1.00  0.00     0.078 C
HETATM   13  C1  UNL     1     -74.609 -50.844 -76.759  1.00  0.00     0.032 C
HETATM   14  C3  UNL     1     -74.310 -49.009 -78.391  1.00  0.00     0.032 C
ENDBRANCH   1  12
BRANCH   9  15
HETATM   15  C8  UNL     1     -69.943 -46.121 -71.222  1.00  0.00     0.170 C
HETATM   16  S1  UNL     1     -69.950 -44.655 -71.980  1.00  0.00    -0.041 SA
BRANCH  15  17
HETATM   17  N4  UNL     1     -69.371 -46.141 -69.929  1.00  0.00    -0.363 N
ATOM     18  H4  UNL     1     -69.317 -47.032 -69.434  1.00  0.00     0.162 HD
BRANCH  17  19
HETATM   19  C9  UNL     1     -68.859 -44.955 -69.277  1.00  0.00     0.075 C
HETATM   20  C10 UNL     1     -69.833 -44.442 -68.242  1.00  0.00     0.032 C
HETATM   21  C11 UNL     1     -67.519 -45.212 -68.621  1.00  0.00     0.032 C
ENDBRANCH  17  19
ENDBRANCH  15  17
ENDBRANCH   9  15
TORSDOF 4
ENDMDL