MODEL 2
REMARK VINA RESULT: -8.499705295      0.701      1.036
REMARK  4 active torsions:
REMARK  status: ('A' for Active; 'I' for Inactive)
REMARK    1  A    between atoms: C4_4  and  C5_5
REMARK    2  A    between atoms: C6_6  and  C7_7
REMARK    3  A    between atoms: C10_12  and  C11_13
REMARK    4  A    between atoms: C14_20  and  C15_21
ROOT
HETATM    1  C1  UNL     1     -70.575 -46.659 -74.533  1.00  0.00     0.026 C
HETATM    2  C2  UNL     1     -70.671 -46.570 -73.227  1.00  0.00    -0.016 A
HETATM    3  C3  UNL     1     -69.781 -45.820 -72.463  1.00  0.00     0.052 A
HETATM    4  C4  UNL     1     -70.118 -45.911 -71.134  1.00  0.00     0.088 A
HETATM    5  N1  UNL     1     -71.192 -46.698 -71.072  1.00  0.00    -0.349 N
ATOM      6  H1  UNL     1     -71.676 -46.954 -70.213  1.00  0.00     0.167 HD
HETATM    7  C10 UNL     1     -71.554 -47.115 -72.333  1.00  0.00     0.044 A
ENDROOT
BRANCH   7   8
HETATM    8  C11 UNL     1     -72.575 -47.885 -72.546  1.00  0.00     0.051 C
HETATM    9  C12 UNL     1     -72.749 -48.961 -73.498  1.00  0.00     0.035 A
HETATM   10  S1  UNL     1     -73.298 -48.876 -75.138  1.00  0.00    -0.027 SA
HETATM   11  C14 UNL     1     -72.558 -50.308 -73.356  1.00  0.00     0.029 A
HETATM   12  C13 UNL     1     -73.240 -50.537 -75.506  1.00  0.00     0.289 A
HETATM   13  O1  UNL     1     -73.534 -51.142 -76.598  1.00  0.00    -0.260 OA
HETATM   14  N2  UNL     1     -72.807 -51.085 -74.367  1.00  0.00    -0.320 N
ATOM     15  H2  UNL     1     -72.675 -52.093 -74.293  1.00  0.00     0.169 HD
BRANCH  11  16
HETATM   16  C15 UNL     1     -72.075 -50.842 -72.020  1.00  0.00     0.054 C
HETATM   17  C16 UNL     1     -72.473 -52.304 -71.941  1.00  0.00     0.011 C
ENDBRANCH  11  16
ENDBRANCH   7   8
BRANCH   4  18
HETATM   18  C5  UNL     1     -69.446 -45.280 -70.011  1.00  0.00    -0.048 C
HETATM   19  C6  UNL     1     -68.871 -44.774 -69.084  1.00  0.00    -0.096 C
BRANCH  19  20
HETATM   20  C7  UNL     1     -68.159 -44.177 -67.951  1.00  0.00     0.057 C
HETATM   21  C8  UNL     1     -68.473 -44.913 -66.653  1.00  0.00     0.023 C
HETATM   22  C9  UNL     1     -66.678 -44.381 -68.210  1.00  0.00     0.023 C
ENDBRANCH  19  20
ENDBRANCH   4  18
TORSDOF 4
ENDMDL