MODEL 3
REMARK VINA RESULT: -7.298973729      0.806      1.419
REMARK  3 active torsions:
REMARK  status: ('A' for Active; 'I' for Inactive)
REMARK    1  A    between atoms: N2_12  and  S1_14
REMARK    2  A    between atoms: S1_14  and  N3_17
REMARK    3  A    between atoms: N3_17  and  C10_19
ROOT
HETATM    1  C1  UNL     1     -73.660 -48.343 -76.990  1.00  0.00     0.103 C
HETATM    2  C2  UNL     1     -73.409 -49.148 -76.104  1.00  0.00    -0.144 C
HETATM    3  C3  UNL     1     -73.109 -50.088 -75.061  1.00  0.00     0.055 A
HETATM    4  C4  UNL     1     -73.293 -51.450 -75.318  1.00  0.00    -0.039 A
HETATM    5  C5  UNL     1     -73.790 -51.877 -76.651  1.00  0.00     0.050 C
HETATM    6  C6  UNL     1     -73.011 -52.371 -74.330  1.00  0.00     0.033 A
HETATM    7  C7  UNL     1     -72.554 -51.887 -73.122  1.00  0.00     0.007 A
HETATM    8  C8  UNL     1     -72.234 -52.848 -72.020  1.00  0.00     0.068 C
HETATM    9  N1  UNL     1     -72.378 -50.566 -72.882  1.00  0.00    -0.345 N
ATOM     10  H1  UNL     1     -72.038 -50.260 -71.970  1.00  0.00     0.167 HD
HETATM   11  C9  UNL     1     -72.648 -49.655 -73.833  1.00  0.00     0.134 A
HETATM   12  N2  UNL     1     -72.503 -48.408 -73.665  1.00  0.00    -0.252 N
ATOM     13  H2  UNL     1     -72.738 -47.803 -74.451  1.00  0.00     0.182 HD
ENDROOT
BRANCH  12  14
HETATM   14  S1  UNL     1     -71.945 -47.644 -72.225  1.00  0.00     0.321 S
HETATM   15  O1  UNL     1     -73.038 -47.847 -71.183  1.00  0.00    -0.182 OA
HETATM   16  O2  UNL     1     -70.749 -48.353 -71.758  1.00  0.00    -0.182 OA
BRANCH  14  17
HETATM   17  N3  UNL     1     -71.786 -45.997 -72.509  1.00  0.00    -0.294 N
ATOM     18  H3  UNL     1     -72.567 -45.364 -72.334  1.00  0.00     0.174 HD
BRANCH  17  19
HETATM   19  C10 UNL     1     -70.561 -45.502 -72.992  1.00  0.00     0.031 C
HETATM   20  C11 UNL     1     -70.826 -44.143 -73.654  1.00  0.00     0.038 C
HETATM   21  C12 UNL     1     -69.831 -46.336 -73.983  1.00  0.00     0.038 C
HETATM   22  C13 UNL     1     -69.640 -45.239 -71.817  1.00  0.00     0.038 C
ENDBRANCH  17  19
ENDBRANCH  14  17
ENDBRANCH  12  14
TORSDOF 3
ENDMDL