MODEL 5
REMARK VINA RESULT: -7.108353826      1.833      2.394
REMARK  4 active torsions:
REMARK  status: ('A' for Active; 'I' for Inactive)
REMARK    1  A    between atoms: C2_2  and  C3_3
REMARK    2  A    between atoms: C4_6  and  C5_7
REMARK    3  A    between atoms: C5_7  and  C6_8
REMARK    4  A    between atoms: C13_15  and  C14_16
ROOT
HETATM    1  C3  UNL     1     -75.097 -47.843 -75.347  1.00  0.00     0.097 A
HETATM    2  N1  UNL     1     -74.411 -47.772 -74.195  1.00  0.00    -0.348 N
ATOM      3  H1  UNL     1     -74.936 -47.620 -73.334  1.00  0.00     0.166 HD
HETATM    4  C4  UNL     1     -73.066 -47.890 -74.104  1.00  0.00     0.102 A
HETATM    5  C16 UNL     1     -72.352 -48.093 -75.246  1.00  0.00     0.275 A
HETATM    6  O1  UNL     1     -71.097 -48.208 -75.206  1.00  0.00    -0.266 OA
HETATM    7  N2  UNL     1     -73.005 -48.170 -76.423  1.00  0.00    -0.287 N
ATOM      8  H2  UNL     1     -72.476 -48.322 -77.281  1.00  0.00     0.172 HD
HETATM    9  C17 UNL     1     -74.340 -48.050 -76.485  1.00  0.00     0.274 A
HETATM   10  O2  UNL     1     -74.856 -48.137 -77.626  1.00  0.00    -0.266 OA
ENDROOT
BRANCH   4  11
HETATM   11  C5  UNL     1     -72.519 -47.803 -72.912  1.00  0.00     0.047 C
BRANCH  11  12
HETATM   12  C6  UNL     1     -71.411 -48.579 -72.428  1.00  0.00    -0.022 A
HETATM   13  C7  UNL     1     -71.540 -49.960 -72.235  1.00  0.00    -0.051 A
HETATM   14  C8  UNL     1     -72.857 -50.625 -72.532  1.00  0.00     0.049 C
HETATM   15  C9  UNL     1     -70.480 -50.708 -71.774  1.00  0.00     0.014 A
HETATM   16  C10 UNL     1     -69.257 -50.148 -71.483  1.00  0.00    -0.061 A
HETATM   17  C11 UNL     1     -68.107 -50.961 -70.982  1.00  0.00     0.048 C
HETATM   18  C12 UNL     1     -69.155 -48.790 -71.679  1.00  0.00     0.014 A
HETATM   19  C13 UNL     1     -70.193 -47.997 -72.141  1.00  0.00    -0.047 A
BRANCH  19  20
HETATM   20  C14 UNL     1     -69.965 -46.514 -72.301  1.00  0.00     0.035 C
HETATM   21  C15 UNL     1     -69.950 -45.937 -70.898  1.00  0.00     0.010 C
ENDBRANCH  19  20
ENDBRANCH  11  12
ENDBRANCH   4  11
BRANCH   1  22
HETATM   22  C2  UNL     1     -76.413 -47.721 -75.396  1.00  0.00     0.004 C
HETATM   23  C1  UNL     1     -77.349 -48.696 -75.940  1.00  0.00     0.038 C
ENDBRANCH   1  22
TORSDOF 4
ENDMDL