MODEL 5
REMARK VINA RESULT: -7.594978783      1.291      1.725
REMARK  6 active torsions:
REMARK  status: ('A' for Active; 'I' for Inactive)
REMARK    1  A    between atoms: C2_2  and  N1_3
REMARK    2  A    between atoms: C4_5  and  C5_6
REMARK    3  A    between atoms: C6_7  and  C7_8
REMARK    4  A    between atoms: C7_8  and  C8_9
REMARK    5  A    between atoms: C8_9  and  O1_11
REMARK    6  A    between atoms: C8_9  and  C10_13
ROOT
HETATM    1  N1  UNL     1     -71.389 -53.324 -71.326  1.00  0.00    -0.342 N
HETATM    2  C3  UNL     1     -71.529 -52.067 -71.751  1.00  0.00     0.113 A
HETATM    3  C4  UNL     1     -72.311 -51.698 -72.827  1.00  0.00     0.034 A
HETATM    4  C14 UNL     1     -72.975 -52.714 -73.484  1.00  0.00     0.033 A
HETATM    5  C15 UNL     1     -72.856 -54.025 -73.078  1.00  0.00    -0.011 A
HETATM    6  C16 UNL     1     -72.048 -54.293 -71.985  1.00  0.00     0.109 A
HETATM    7  N2  UNL     1     -72.082 -55.697 -71.757  1.00  0.00    -0.375 N
ATOM      8  H2  UNL     1     -71.409 -56.217 -71.194  1.00  0.00     0.161 HD
HETATM    9  C17 UNL     1     -73.211 -56.271 -72.442  1.00  0.00     0.126 C
HETATM   10  C18 UNL     1     -73.435 -55.292 -73.574  1.00  0.00     0.062 C
ENDROOT
BRANCH   3  11
HETATM   11  C5  UNL     1     -72.426 -50.316 -73.243  1.00  0.00    -0.066 C
HETATM   12  C6  UNL     1     -72.501 -49.163 -73.592  1.00  0.00    -0.098 C
BRANCH  12  13
HETATM   13  C7  UNL     1     -72.578 -47.757 -74.039  1.00  0.00     0.132 C
BRANCH  13  14
HETATM   14  C8  UNL     1     -71.845 -46.940 -73.005  1.00  0.00     0.071 C
HETATM   15  C9  UNL     1     -72.075 -47.405 -71.605  1.00  0.00     0.047 C
BRANCH  14  16
HETATM   16  O1  UNL     1     -72.241 -45.596 -73.157  1.00  0.00    -0.389 OA
ATOM     17  H1  UNL     1     -71.458 -45.076 -73.297  1.00  0.00     0.210 HD
ENDBRANCH  14  16
BRANCH  14  18
HETATM   18  C10 UNL     1     -70.370 -46.981 -73.390  1.00  0.00    -0.020 C
HETATM   19  C11 UNL     1     -69.902 -45.562 -73.605  1.00  0.00     0.017 C
HETATM   20  C12 UNL     1     -70.196 -47.727 -74.677  1.00  0.00     0.017 C
HETATM   21  C13 UNL     1     -69.619 -47.675 -72.289  1.00  0.00     0.017 C
ENDBRANCH  14  18
ENDBRANCH  13  14
ENDBRANCH  12  13
ENDBRANCH   3  11
BRANCH   1  22
HETATM   22  C2  UNL     1     -70.561 -53.685 -70.191  1.00  0.00     0.125 C
HETATM   23  C1  UNL     1     -69.721 -52.496 -69.753  1.00  0.00     0.027 C
ENDBRANCH   1  22
TORSDOF 6
ENDMDL