MODEL 2
REMARK VINA RESULT: -6.312165555      1.178      1.499
REMARK  3 active torsions:
REMARK  status: ('A' for Active; 'I' for Inactive)
REMARK    1  A    between atoms: C2_2  and  S1_4
REMARK    2  A    between atoms: S1_4  and  N1_7
REMARK    3  A    between atoms: N1_7  and  C4_9
ROOT
HETATM    1  C4  UNL     1     -73.394 -48.339 -74.753  1.00  0.00     0.196 C
HETATM    2  C5  UNL     1     -74.661 -48.121 -75.578  1.00  0.00     0.077 C
HETATM    3  C6  UNL     1     -74.766 -49.070 -76.719  1.00  0.00     0.030 C
HETATM    4  C7  UNL     1     -74.656 -48.274 -78.006  1.00  0.00     0.038 C
HETATM    5  C8  UNL     1     -76.196 -49.630 -76.704  1.00  0.00     0.038 C
HETATM    6  N2  UNL     1     -73.882 -50.194 -76.688  1.00  0.00    -0.354 N
HETATM    7  C9  UNL     1     -73.404 -50.853 -77.910  1.00  0.00     0.153 C
HETATM    8  C10 UNL     1     -73.457 -50.680 -75.419  1.00  0.00     0.171 C
HETATM    9  S2  UNL     1     -73.039 -52.247 -75.231  1.00  0.00    -0.041 SA
HETATM   10  N3  UNL     1     -73.424 -49.734 -74.357  1.00  0.00    -0.345 N
ATOM     11  H3  UNL     1     -73.421 -50.020 -73.377  1.00  0.00     0.164 HD
ENDROOT
BRANCH   1  12
HETATM   12  N1  UNL     1     -73.374 -47.475 -73.622  1.00  0.00    -0.297 N
ATOM     13  H1  UNL     1     -74.181 -46.981 -73.241  1.00  0.00     0.174 HD
BRANCH  12  14
HETATM   14  S1  UNL     1     -71.769 -47.394 -72.999  1.00  0.00     0.231 S
HETATM   15  O1  UNL     1     -71.671 -46.458 -71.819  1.00  0.00    -0.206 OA
HETATM   16  O2  UNL     1     -71.282 -48.733 -72.521  1.00  0.00    -0.206 OA
BRANCH  14  17
HETATM   17  C2  UNL     1     -70.700 -46.818 -74.325  1.00  0.00     0.121 C
HETATM   18  C1  UNL     1     -69.654 -47.869 -74.564  1.00  0.00     0.027 C
HETATM   19  C3  UNL     1     -70.058 -45.493 -73.914  1.00  0.00     0.027 C
ENDBRANCH  14  17
ENDBRANCH  12  14
ENDBRANCH   1  12
TORSDOF 3
ENDMDL