MODEL 1
REMARK VINA RESULT: -7.936488050      0.000      0.000
REMARK  5 active torsions:
REMARK  status: ('A' for Active; 'I' for Inactive)
REMARK    1  A    between atoms: C3_3  and  C4_4
REMARK    2  A    between atoms: C4_4  and  C5_5
REMARK    3  A    between atoms: C5_5  and  C6_6
REMARK    4  A    between atoms: C6_6  and  N1_7
REMARK    5  A    between atoms: C9_10  and  C10_11
ROOT
HETATM    1  C10 UNL     1     -72.774 -49.946 -74.539  1.00  0.00     0.036 A
HETATM    2  C11 UNL     1     -73.353 -50.137 -75.764  1.00  0.00     0.019 A
HETATM    3  C12 UNL     1     -73.692 -49.097 -76.780  1.00  0.00     0.069 C
HETATM    4  N2  UNL     1     -73.645 -51.472 -75.941  1.00  0.00    -0.361 N
ATOM      5  H2  UNL     1     -74.079 -51.876 -76.771  1.00  0.00     0.165 HD
HETATM    6  C13 UNL     1     -73.271 -52.150 -74.863  1.00  0.00     0.027 A
HETATM    7  C14 UNL     1     -73.393 -53.618 -74.611  1.00  0.00     0.070 C
HETATM    8  C15 UNL     1     -72.721 -51.210 -73.971  1.00  0.00     0.081 A
HETATM    9  C16 UNL     1     -72.169 -51.576 -72.701  1.00  0.00     0.102 C
HETATM   10  N3  UNL     1     -71.706 -51.905 -71.668  1.00  0.00    -0.191 NA
ENDROOT
BRANCH   1  11
HETATM   11  C9  UNL     1     -72.239 -48.690 -74.007  1.00  0.00     0.051 A
HETATM   12  C8  UNL     1     -72.901 -47.938 -73.060  1.00  0.00     0.048 A
HETATM   13  C7  UNL     1     -72.393 -46.697 -72.640  1.00  0.00     0.099 A
HETATM   14  N1  UNL     1     -71.257 -46.187 -73.129  1.00  0.00    -0.299 N
HETATM   15  C17 UNL     1     -70.630 -46.934 -74.048  1.00  0.00     0.327 A
HETATM   16  N4  UNL     1     -71.092 -48.132 -74.473  1.00  0.00    -0.308 N
HETATM   17  O1  UNL     1     -69.545 -46.479 -74.537  1.00  0.00    -0.246 OA
ATOM     18  H4  UNL     1     -70.555 -48.640 -75.176  1.00  0.00     0.170 HD
BRANCH  14  19
HETATM   19  C6  UNL     1     -70.767 -44.920 -72.681  1.00  0.00     0.227 C
BRANCH  19  20
HETATM   20  C5  UNL     1     -69.996 -45.141 -71.455  1.00  0.00    -0.082 C
BRANCH  20  21
HETATM   21  C4  UNL     1     -69.342 -45.342 -70.440  1.00  0.00    -0.077 C
BRANCH  21  22
HETATM   22  C3  UNL     1     -68.557 -45.589 -69.264  1.00  0.00     0.060 C
HETATM   23  C2  UNL     1     -68.874 -45.118 -68.082  1.00  0.00    -0.022 C
HETATM   24  C1  UNL     1     -70.094 -44.292 -67.936  1.00  0.00     0.036 C
ENDBRANCH  21  22
ENDBRANCH  20  21
ENDBRANCH  19  20
ENDBRANCH  14  19
ENDBRANCH   1  11
TORSDOF 5
ENDMDL