MODEL 2
REMARK VINA RESULT: -6.575581853      1.677      2.504
REMARK  4 active torsions:
REMARK  status: ('A' for Active; 'I' for Inactive)
REMARK    1  A    between atoms: C2_2  and  C4_4
REMARK    2  A    between atoms: C4_4  and  O1_5
REMARK    3  A    between atoms: O1_5  and  O2_6
REMARK    4  A    between atoms: O2_6  and  C5_7
ROOT
HETATM    1  C5  UNL     1      31.505  -1.180  71.495  1.00  0.00     0.136 C
HETATM    2  C6  UNL     1      32.609  -2.139  71.779  1.00  0.00     0.071 C
HETATM    3  C7  UNL     1      33.761  -1.562  72.526  1.00  0.00     0.172 C
HETATM    4  O3  UNL     1      33.419  -0.641  73.483  1.00  0.00    -0.377 OA
HETATM    5  C8  UNL     1      32.825   0.478  72.877  1.00  0.00     0.101 C
HETATM    6  C9  UNL     1      33.817   1.069  71.913  1.00  0.00     0.050 C
HETATM    7  C10 UNL     1      32.526   1.473  73.987  1.00  0.00     0.055 C
HETATM    8  C11 UNL     1      33.747   2.285  74.347  1.00  0.00     0.016 C
HETATM    9  C12 UNL     1      31.347   2.383  73.626  1.00  0.00     0.189 C
HETATM   10  C13 UNL     1      30.101   1.656  74.087  1.00  0.00     0.005 C
HETATM   11  C14 UNL     1      29.870   0.350  73.965  1.00  0.00    -0.020 C
HETATM   12  C15 UNL     1      30.756  -0.683  73.363  1.00  0.00     0.055 C
HETATM   13  C16 UNL     1      30.234  -1.539  72.284  1.00  0.00     0.056 C
HETATM   14  C17 UNL     1      31.544   0.072  72.274  1.00  0.00     0.168 C
HETATM   15  O4  UNL     1      30.857   1.162  71.818  1.00  0.00    -0.222 OA
HETATM   16  O5  UNL     1      31.284   2.318  72.215  1.00  0.00    -0.230 OA
ENDROOT
BRANCH   1  17
HETATM   17  O2  UNL     1      31.176  -1.003  70.164  1.00  0.00    -0.226 OA
BRANCH  17  18
HETATM   18  O1  UNL     1      32.191  -1.039  69.361  1.00  0.00    -0.240 OA
BRANCH  18  19
HETATM   19  C4  UNL     1      31.775  -1.205  68.043  1.00  0.00     0.213 C
BRANCH  19  20
HETATM   20  C2  UNL     1      31.402  -2.643  67.753  1.00  0.00     0.004 C
HETATM   21  C1  UNL     1      31.042  -2.861  66.315  1.00  0.00     0.012 C
HETATM   22  C3  UNL     1      32.522  -3.587  68.124  1.00  0.00     0.012 C
ENDBRANCH  19  20
ENDBRANCH  18  19
ENDBRANCH  17  18
ENDBRANCH   1  17
TORSDOF 4
ENDMDL