MODEL 5
REMARK VINA RESULT: -7.311993111      6.677      9.813
REMARK  6 active torsions:
REMARK  status: ('A' for Active; 'I' for Inactive)
REMARK    1  A    between atoms: C2_2  and  C3_3
REMARK    2  A    between atoms: C3_3  and  O1_5
REMARK    3  A    between atoms: O1_5  and  C5_6
REMARK    4  A    between atoms: C5_6  and  C6_8
REMARK    5  A    between atoms: C10_12  and  C12_14
REMARK    6  A    between atoms: C12_14  and  C13_15
ROOT
HETATM    1  C6  UNL     1      31.675  -1.052  70.425  1.00  0.00     0.051 C
HETATM    2  C7  UNL     1      31.508  -1.550  71.855  1.00  0.00     0.026 C
HETATM    3  C8  UNL     1      33.014  -1.540  69.952  1.00  0.00     0.021 C
HETATM    4  C9  UNL     1      33.035  -1.924  68.499  1.00  0.00     0.018 C
HETATM    5  C10 UNL     1      32.043  -2.981  68.129  1.00  0.00     0.019 C
HETATM    6  C11 UNL     1      31.371  -2.596  66.828  1.00  0.00     0.023 C
HETATM    7  C17 UNL     1      30.946  -2.958  69.151  1.00  0.00     0.136 C
HETATM    8  O4  UNL     1      30.401  -3.930  69.597  1.00  0.00    -0.297 OA
HETATM    9  C18 UNL     1      30.528  -1.611  69.626  1.00  0.00     0.098 C
ENDROOT
BRANCH   1  10
HETATM   10  C5  UNL     1      31.625   0.436  70.455  1.00  0.00     0.268 C
HETATM   11  O2  UNL     1      30.857   1.025  69.636  1.00  0.00    -0.264 OA
BRANCH  10  12
HETATM   12  O1  UNL     1      32.352   1.210  71.312  1.00  0.00    -0.316 OA
BRANCH  12  13
HETATM   13  C3  UNL     1      31.892   2.394  71.937  1.00  0.00     0.127 C
HETATM   14  C4  UNL     1      32.912   3.509  71.724  1.00  0.00     0.040 C
BRANCH  13  15
HETATM   15  C2  UNL     1      31.873   2.119  73.429  1.00  0.00     0.027 C
HETATM   16  C1  UNL     1      30.545   1.516  73.851  1.00  0.00     0.007 C
ENDBRANCH  13  15
ENDBRANCH  12  13
ENDBRANCH  10  12
ENDBRANCH   1  10
BRANCH   5  17
HETATM   17  C12 UNL     1      32.621  -4.355  67.973  1.00  0.00     0.052 C
BRANCH  17  18
HETATM   18  C13 UNL     1      31.963  -5.133  66.895  1.00  0.00     0.157 A
HETATM   19  O3  UNL     1      31.345  -6.386  67.294  1.00  0.00    -0.370 OA
HETATM   20  C14 UNL     1      32.457  -6.340  66.307  1.00  0.00     0.080 A
HETATM   21  C15 UNL     1      31.939  -6.764  64.958  1.00  0.00     0.048 C
HETATM   22  C16 UNL     1      33.607  -7.141  66.818  1.00  0.00     0.048 C
ENDBRANCH  17  18
ENDBRANCH   5  17
TORSDOF 6
ENDMDL