MODEL 2
REMARK VINA RESULT: -8.176120641      4.508      5.990
REMARK  4 active torsions:
REMARK  status: ('A' for Active; 'I' for Inactive)
REMARK    1  A    between atoms: C3_5  and  S1_6
REMARK    2  A    between atoms: S1_6  and  C4_7
REMARK    3  A    between atoms: C4_7  and  C5_8
REMARK       I    between atoms: C5_8  and  N2_10
REMARK    4  A    between atoms: C10_16  and  C11_17
ROOT
HETATM    1  C1  UNL     1      32.364  -6.987  65.463  1.00  0.00     0.071 C
HETATM    2  C2  UNL     1      31.849  -5.577  65.623  1.00  0.00     0.038 A
HETATM    3  N1  UNL     1      32.053  -4.761  66.672  1.00  0.00    -0.333 N
ATOM      4  H1  UNL     1      32.586  -4.989  67.511  1.00  0.00     0.168 HD
HETATM    5  C3  UNL     1      31.437  -3.594  66.425  1.00  0.00     0.188 A
HETATM    6  O2  UNL     1      30.876  -3.699  65.263  1.00  0.00    -0.290 OA
HETATM    7  C10 UNL     1      31.085  -4.875  64.721  1.00  0.00     0.082 A
ENDROOT
BRANCH   5   8
HETATM    8  S1  UNL     1      31.399  -2.146  67.515  1.00  0.00    -0.077 SA
BRANCH   8   9
HETATM    9  C4  UNL     1      32.148  -2.541  69.109  1.00  0.00     0.185 C
BRANCH   9  10
HETATM   10  C5  UNL     1      31.114  -2.704  70.172  1.00  0.00     0.229 C
HETATM   11  O1  UNL     1      30.340  -3.681  70.104  1.00  0.00    -0.273 OA
HETATM   12  N2  UNL     1      30.997  -1.788  71.241  1.00  0.00    -0.351 N
HETATM   13  C6  UNL     1      30.010  -1.895  72.304  1.00  0.00     0.126 C
HETATM   14  C9  UNL     1      31.788  -0.598  71.504  1.00  0.00     0.126 C
HETATM   15  C7  UNL     1      30.633  -1.237  73.506  1.00  0.00     0.021 C
HETATM   16  C8  UNL     1      31.803  -0.456  73.003  1.00  0.00     0.021 C
ENDBRANCH   9  10
ENDBRANCH   8   9
ENDBRANCH   5   8
BRANCH   7  17
HETATM   17  C11 UNL     1      30.569  -5.298  63.392  1.00  0.00     0.045 C
HETATM   18  C12 UNL     1      31.692  -5.449  62.409  1.00  0.00     0.011 C
HETATM   19  C13 UNL     1      31.630  -4.581  61.206  1.00  0.00     0.001 C
HETATM   20  C14 UNL     1      31.200  -3.204  61.683  1.00  0.00     0.000 C
HETATM   21  C15 UNL     1      29.726  -3.352  61.989  1.00  0.00     0.001 C
HETATM   22  C16 UNL     1      29.433  -4.469  62.936  1.00  0.00     0.011 C
ENDBRANCH   7  17
TORSDOF 4
ENDMDL