MODEL 4
REMARK VINA RESULT: -5.338869923      1.785      5.571
REMARK  7 active torsions:
REMARK  status: ('A' for Active; 'I' for Inactive)
REMARK    1  A    between atoms: C2_2  and  O1_3
REMARK    2  A    between atoms: O1_3  and  C3_4
REMARK    3  A    between atoms: C3_4  and  C4_6
REMARK    4  A    between atoms: C9_13  and  C10_14
REMARK    5  A    between atoms: C10_14  and  O4_16
REMARK    6  A    between atoms: O4_16  and  C11_17
REMARK    7  A    between atoms: C13_19  and  C14_20
ROOT
HETATM    1  C4  UNL     1      33.561  -2.159  71.306  1.00  0.00     0.066 C
HETATM    2  C5  UNL     1      33.440  -2.354  72.629  1.00  0.00     0.021 C
HETATM    3  C6  UNL     1      34.579  -2.556  73.553  1.00  0.00     0.069 C
HETATM    4  N1  UNL     1      32.172  -2.163  73.305  1.00  0.00    -0.365 N
ATOM      5  H1  UNL     1      32.130  -2.344  74.308  1.00  0.00     0.165 HD
HETATM    6  C7  UNL     1      31.110  -1.784  72.718  1.00  0.00     0.001 C
HETATM    7  C8  UNL     1      29.813  -1.616  73.432  1.00  0.00     0.064 C
HETATM    8  C9  UNL     1      31.281  -1.340  71.307  1.00  0.00     0.161 C
HETATM    9  C13 UNL     1      32.292  -2.184  70.605  1.00  0.00    -0.035 C
ENDROOT
BRANCH   1  10
HETATM   10  C3  UNL     1      34.900  -2.131  70.797  1.00  0.00     0.295 C
HETATM   11  O2  UNL     1      35.568  -1.080  70.614  1.00  0.00    -0.259 OA
BRANCH  10  12
HETATM   12  O1  UNL     1      35.602  -3.277  70.451  1.00  0.00    -0.318 OA
BRANCH  12  13
HETATM   13  C2  UNL     1      36.064  -3.561  69.165  1.00  0.00     0.174 C
HETATM   14  C1  UNL     1      36.056  -5.062  68.951  1.00  0.00     0.034 C
ENDBRANCH  12  13
ENDBRANCH  10  12
ENDBRANCH   1  10
BRANCH   9  15
HETATM   15  C14 UNL     1      32.158  -2.155  69.144  1.00  0.00    -0.026 C
HETATM   16  C15 UNL     1      32.446  -3.371  68.352  1.00  0.00     0.019 C
HETATM   17  C16 UNL     1      30.597  -1.968  68.927  1.00  0.00     0.019 C
HETATM   18  C17 UNL     1      32.687  -0.977  68.381  1.00  0.00     0.019 C
ENDBRANCH   9  15
BRANCH   8  19
HETATM   19  C10 UNL     1      31.695   0.091  71.443  1.00  0.00     0.272 C
HETATM   20  O3  UNL     1      31.818   0.895  70.492  1.00  0.00    -0.264 OA
BRANCH  19  21
HETATM   21  O4  UNL     1      31.968   0.576  72.715  1.00  0.00    -0.321 OA
BRANCH  21  22
HETATM   22  C11 UNL     1      31.621   1.926  73.066  1.00  0.00     0.174 C
HETATM   23  C12 UNL     1      30.472   1.947  74.033  1.00  0.00     0.034 C
ENDBRANCH  21  22
ENDBRANCH  19  21
ENDBRANCH   8  19
TORSDOF 7
ENDMDL