MODEL 1
REMARK VINA RESULT: -7.747643852      0.000      0.000
REMARK  4 active torsions:
REMARK  status: ('A' for Active; 'I' for Inactive)
REMARK    1  A    between atoms: C1_2  and  C2_3
REMARK       I    between atoms: C1_2  and  N2_12
REMARK    2  A    between atoms: C2_3  and  C3_4
REMARK    3  A    between atoms: C3_4  and  S1_5
REMARK    4  A    between atoms: S1_5  and  C4_6
ROOT
HETATM    1  O1  UNL     1      30.122  -6.470  58.353  1.00  0.00    -0.273 OA
HETATM    2  C1  UNL     1      29.337  -6.408  59.322  1.00  0.00     0.220 C
HETATM    3  N2  UNL     1      29.697  -5.665  60.464  1.00  0.00    -0.352 N
HETATM    4  C7  UNL     1      28.800  -5.581  61.600  1.00  0.00     0.126 C
HETATM    5  C8  UNL     1      29.565  -6.089  62.805  1.00  0.00     0.029 C
HETATM    6  C9  UNL     1      30.684  -5.072  63.050  1.00  0.00    -0.037 C
HETATM    7  C10 UNL     1      31.443  -5.430  64.301  1.00  0.00     0.010 C
HETATM    8  C11 UNL     1      30.989  -4.378  65.321  1.00  0.00     0.001 C
HETATM    9  C12 UNL     1      30.894  -3.155  64.400  1.00  0.00     0.001 C
HETATM   10  C13 UNL     1      30.042  -3.733  63.276  1.00  0.00     0.010 C
HETATM   11  C14 UNL     1      31.622  -5.070  61.883  1.00  0.00     0.029 C
HETATM   12  C15 UNL     1      30.956  -4.964  60.555  1.00  0.00     0.126 C
ENDROOT
BRANCH   2  13
HETATM   13  C2  UNL     1      28.039  -7.119  59.253  1.00  0.00     0.113 C
BRANCH  13  14
HETATM   14  C3  UNL     1      27.462  -7.090  57.856  1.00  0.00     0.090 C
BRANCH  14  15
HETATM   15  S1  UNL     1      27.508  -8.729  57.085  1.00  0.00    -0.104 SA
BRANCH  15  16
HETATM   16  C4  UNL     1      29.248  -9.045  56.683  1.00  0.00     0.111 A
HETATM   17  N1  UNL     1      30.050  -8.365  55.893  1.00  0.00    -0.354 N
HETATM   18  C5  UNL     1      31.276  -8.741  55.722  1.00  0.00     0.096 A
ATOM     19  H1  UNL     1      29.703  -7.535  55.412  1.00  0.00     0.166 HD
HETATM   20  C6  UNL     1      31.693  -9.867  56.393  1.00  0.00     0.069 A
HETATM   21  S2  UNL     1      30.268 -10.307  57.234  1.00  0.00    -0.076 SA
ENDBRANCH  15  16
ENDBRANCH  14  15
ENDBRANCH  13  14
ENDBRANCH   2  13
TORSDOF 4
ENDMDL