MODEL 5
REMARK VINA RESULT: -6.374845507      8.348     11.291
REMARK  4 active torsions:
REMARK  status: ('A' for Active; 'I' for Inactive)
REMARK    1  A    between atoms: C2_2  and  C4_4
REMARK    2  A    between atoms: C4_4  and  C5_5
REMARK    3  A    between atoms: C5_5  and  S1_6
REMARK    4  A    between atoms: S1_6  and  C6_7
ROOT
HETATM    1  C6  UNL     1      29.515  -5.850  61.088  1.00  0.00     0.031 A
HETATM    2  C7  UNL     1      29.449  -7.022  60.187  1.00  0.00     0.069 C
HETATM    3  C8  UNL     1      28.268  -7.197  59.303  1.00  0.00     0.188 C
HETATM    4  O1  UNL     1      28.454  -8.406  58.614  1.00  0.00    -0.345 OA
HETATM    5  C9  UNL     1      28.295  -8.175  57.279  1.00  0.00     0.160 C
HETATM    6  C10 UNL     1      29.536  -8.608  56.488  1.00  0.00     0.078 C
HETATM    7  C11 UNL     1      27.107  -9.007  56.796  1.00  0.00     0.078 C
HETATM    8  O2  UNL     1      28.133  -6.835  57.053  1.00  0.00    -0.324 OA
HETATM    9  C12 UNL     1      28.474  -6.167  58.233  1.00  0.00     0.293 C
HETATM   10  O3  UNL     1      29.764  -5.730  58.275  1.00  0.00    -0.352 OA
HETATM   11  C13 UNL     1      30.461  -6.385  59.264  1.00  0.00     0.143 C
HETATM   12  C14 UNL     1      30.731  -5.408  60.418  1.00  0.00     0.005 A
HETATM   13  C15 UNL     1      32.079  -5.358  61.008  1.00  0.00     0.020 C
HETATM   14  C16 UNL     1      29.661  -4.447  60.656  1.00  0.00     0.014 A
HETATM   15  C17 UNL     1      29.890  -3.413  61.711  1.00  0.00     0.012 C
ENDROOT
BRANCH   1  16
HETATM   16  S1  UNL     1      29.334  -6.165  62.822  1.00  0.00    -0.157 SA
BRANCH  16  17
HETATM   17  C5  UNL     1      30.638  -7.122  63.574  1.00  0.00     0.075 C
BRANCH  17  18
HETATM   18  C4  UNL     1      31.515  -6.220  64.398  1.00  0.00     0.014 C
BRANCH  18  19
HETATM   19  C2  UNL     1      32.245  -7.014  65.475  1.00  0.00    -0.022 C
HETATM   20  C1  UNL     1      31.539  -8.305  65.770  1.00  0.00     0.009 C
HETATM   21  C3  UNL     1      32.409  -6.214  66.728  1.00  0.00     0.009 C
ENDBRANCH  18  19
ENDBRANCH  17  18
ENDBRANCH  16  17
ENDBRANCH   1  16
TORSDOF 4
ENDMDL