MODEL 5
REMARK VINA RESULT: -7.780582305      2.477      6.063
REMARK  4 active torsions:
REMARK  status: ('A' for Active; 'I' for Inactive)
REMARK    1  A    between atoms: C4_4  and  C5_5
REMARK    2  A    between atoms: C5_5  and  C6_6
REMARK    3  A    between atoms: C6_6  and  C7_7
REMARK    4  A    between atoms: C6_6  and  N4_18
ROOT
HETATM    1  C6  UNL     1      30.995  -6.615  63.143  1.00  0.00     0.133 C
ENDROOT
BRANCH   1   2
HETATM    2  C5  UNL     1      30.228  -7.680  63.913  1.00  0.00     0.036 C
BRANCH   2   3
HETATM    3  C4  UNL     1      30.942  -8.857  64.366  1.00  0.00    -0.012 C
HETATM    4  C3  UNL     1      30.944  -8.823  65.940  1.00  0.00     0.005 C
HETATM    5  C2  UNL     1      32.338  -9.324  66.278  1.00  0.00     0.000 C
HETATM    6  C1  UNL     1      32.517 -10.644  65.572  1.00  0.00     0.000 C
HETATM    7  C19 UNL     1      31.256 -11.227  65.031  1.00  0.00     0.000 C
HETATM    8  C18 UNL     1      30.609 -10.257  64.024  1.00  0.00     0.005 C
ENDBRANCH   2   3
ENDBRANCH   1   2
BRANCH   1   9
HETATM    9  C7  UNL     1      30.724  -5.273  63.733  1.00  0.00     0.073 A
HETATM   10  N1  UNL     1      30.076  -4.192  63.342  1.00  0.00    -0.286 N
HETATM   11  N2  UNL     1      30.173  -3.170  64.133  1.00  0.00    -0.240 N
ATOM     12  H1  UNL     1      29.537  -4.163  62.477  1.00  0.00     0.188 HD
HETATM   13  N3  UNL     1      30.937  -3.569  65.158  1.00  0.00    -0.280 N
ATOM     14  H2  UNL     1      29.753  -2.249  64.001  1.00  0.00     0.208 HD
HETATM   15  C8  UNL     1      31.300  -4.826  64.978  1.00  0.00     0.056 A
HETATM   16  C12 UNL     1      31.270  -2.804  66.356  1.00  0.00     0.150 C
HETATM   17  C9  UNL     1      32.062  -5.618  65.966  1.00  0.00     0.061 C
HETATM   18  C10 UNL     1      32.344  -4.867  67.222  1.00  0.00     0.008 C
HETATM   19  C11 UNL     1      31.383  -3.770  67.545  1.00  0.00     0.022 C
ENDBRANCH   1   9
BRANCH   1  20
HETATM   20  N4  UNL     1      30.403  -6.588  61.837  1.00  0.00    -0.403 N
HETATM   21  C13 UNL     1      29.147  -7.169  61.618  1.00  0.00     0.117 C
HETATM   22  C14 UNL     1      28.322  -6.207  60.746  1.00  0.00     0.019 C
HETATM   23  C15 UNL     1      28.940  -6.328  59.355  1.00  0.00     0.003 C
HETATM   24  C16 UNL     1      30.419  -6.434  59.421  1.00  0.00     0.019 C
HETATM   25  C17 UNL     1      30.990  -5.890  60.770  1.00  0.00     0.117 C
ENDBRANCH   1  20
TORSDOF 4
ENDMDL