MODEL 4
REMARK VINA RESULT: -8.253729153      2.374      4.125
REMARK  5 active torsions:
REMARK  status: ('A' for Active; 'I' for Inactive)
REMARK    1  A    between atoms: C2_2  and  C3_3
REMARK    2  A    between atoms: C6_8  and  C7_9
REMARK    3  A    between atoms: C7_9  and  C8_10
REMARK    4  A    between atoms: C8_10  and  C9_11
REMARK    5  A    between atoms: C9_11  and  O4_13
ROOT
HETATM    1  C3  UNL     1      30.818  -8.496  63.840  1.00  0.00     0.020 C
HETATM    2  C4  UNL     1      30.600  -7.567  62.697  1.00  0.00     0.049 C
HETATM    3  C5  UNL     1      31.028  -6.178  62.948  1.00  0.00     0.104 C
HETATM    4  O1  UNL     1      32.023  -6.174  63.920  1.00  0.00    -0.228 OA
HETATM    5  O2  UNL     1      31.437  -6.496  65.049  1.00  0.00    -0.234 OA
HETATM    6  C6  UNL     1      31.153  -7.849  65.139  1.00  0.00     0.165 C
HETATM    7  C11 UNL     1      29.910  -5.257  63.399  1.00  0.00     0.024 C
HETATM    8  C12 UNL     1      28.875  -5.095  62.334  1.00  0.00     0.012 C
HETATM    9  C13 UNL     1      29.435  -4.662  61.017  1.00  0.00    -0.013 C
HETATM   10  C14 UNL     1      30.308  -3.412  61.165  1.00  0.00     0.010 C
HETATM   11  C15 UNL     1      31.376  -3.976  62.102  1.00  0.00    -0.007 C
HETATM   12  C16 UNL     1      30.714  -3.951  63.481  1.00  0.00     0.012 C
HETATM   13  C17 UNL     1      31.525  -5.438  61.735  1.00  0.00     0.028 C
HETATM   14  C18 UNL     1      30.523  -5.652  60.593  1.00  0.00     0.012 C
ENDROOT
BRANCH   1  15
HETATM   15  C2  UNL     1      29.568  -9.364  63.982  1.00  0.00     0.003 C
HETATM   16  C1  UNL     1      29.921 -10.754  64.467  1.00  0.00     0.005 C
ENDBRANCH   1  15
BRANCH   6  17
HETATM   17  C7  UNL     1      32.317  -8.489  65.862  1.00  0.00     0.045 C
BRANCH  17  18
HETATM   18  C8  UNL     1      32.849  -7.603  66.962  1.00  0.00     0.114 C
BRANCH  18  19
HETATM   19  C9  UNL     1      33.702  -8.367  67.913  1.00  0.00     0.258 C
HETATM   20  O3  UNL     1      33.332  -8.518  69.106  1.00  0.00    -0.265 OA
BRANCH  19  21
HETATM   21  O4  UNL     1      34.911  -8.935  67.539  1.00  0.00    -0.326 OA
HETATM   22  C10 UNL     1      35.845  -8.171  66.814  1.00  0.00     0.213 C
ENDBRANCH  19  21
ENDBRANCH  18  19
ENDBRANCH  17  18
ENDBRANCH   6  17
TORSDOF 5
ENDMDL