MODEL 5
REMARK VINA RESULT: -6.507454427      4.095      7.610
REMARK  5 active torsions:
REMARK  status: ('A' for Active; 'I' for Inactive)
REMARK    1  A    between atoms: C2_2  and  C3_3
REMARK    2  A    between atoms: C3_3  and  O1_4
REMARK    3  A    between atoms: O1_4  and  C4_5
REMARK    4  A    between atoms: C4_5  and  C5_7
REMARK    5  A    between atoms: C5_7  and  C6_8
ROOT
HETATM    1  C6  UNL     1      32.670  -8.279  65.031  1.00  0.00     0.143 C
HETATM    2  O3  UNL     1      33.099  -6.979  65.425  1.00  0.00    -0.349 OA
HETATM    3  C7  UNL     1      32.065  -6.290  65.954  1.00  0.00     0.162 C
HETATM    4  C8  UNL     1      32.539  -5.510  67.150  1.00  0.00     0.079 C
HETATM    5  C9  UNL     1      31.082  -7.330  66.425  1.00  0.00     0.080 C
HETATM    6  C10 UNL     1      31.200  -8.252  65.172  1.00  0.00    -0.006 C
HETATM    7  C11 UNL     1      30.450  -9.499  65.412  1.00  0.00     0.018 C
HETATM    8  C12 UNL     1      30.498  -7.429  64.107  1.00  0.00     0.031 C
HETATM    9  C13 UNL     1      30.249  -8.115  62.816  1.00  0.00     0.008 C
HETATM   10  C14 UNL     1      29.278  -7.282  62.011  1.00  0.00     0.001 C
HETATM   11  C15 UNL     1      29.533  -5.822  61.998  1.00  0.00     0.003 C
HETATM   12  C16 UNL     1      29.888  -5.232  63.325  1.00  0.00     0.038 C
HETATM   13  C17 UNL     1      31.063  -6.058  63.897  1.00  0.00     0.065 C
HETATM   14  C18 UNL     1      32.108  -5.976  62.814  1.00  0.00     0.046 C
HETATM   15  O4  UNL     1      31.481  -5.420  65.029  1.00  0.00    -0.344 OA
ENDROOT
BRANCH   1  16
HETATM   16  C5  UNL     1      33.363  -9.159  66.020  1.00  0.00     0.144 C
BRANCH  16  17
HETATM   17  C4  UNL     1      34.755  -8.891  66.346  1.00  0.00     0.261 C
HETATM   18  O2  UNL     1      35.695  -9.229  65.617  1.00  0.00    -0.265 OA
BRANCH  17  19
HETATM   19  O1  UNL     1      35.025  -8.227  67.530  1.00  0.00    -0.321 OA
BRANCH  19  20
HETATM   20  C3  UNL     1      36.028  -7.284  67.684  1.00  0.00     0.178 C
BRANCH  20  21
HETATM   21  C2  UNL     1      35.835  -6.300  68.800  1.00  0.00     0.022 C
HETATM   22  C1  UNL     1      36.888  -5.208  68.662  1.00  0.00     0.007 C
ENDBRANCH  20  21
ENDBRANCH  19  20
ENDBRANCH  17  19
ENDBRANCH  16  17
ENDBRANCH   1  16
TORSDOF 5
ENDMDL