MODEL 5
REMARK VINA RESULT: -6.680481040      2.749      7.544
REMARK  5 active torsions:
REMARK  status: ('A' for Active; 'I' for Inactive)
REMARK    1  A    between atoms: C2_2  and  O1_4
REMARK    2  A    between atoms: O1_4  and  C4_5
REMARK    3  A    between atoms: C12_14  and  O3_15
REMARK    4  A    between atoms: O3_15  and  C13_16
REMARK    5  A    between atoms: C13_16  and  C14_18
ROOT
HETATM    1  C4  UNL     1      29.023  -7.741  57.452  1.00  0.00     0.060 C
HETATM    2  C5  UNL     1      29.086  -6.663  56.358  1.00  0.00     0.046 C
HETATM    3  C6  UNL     1      27.638  -7.670  58.015  1.00  0.00     0.038 C
HETATM    4  C7  UNL     1      27.503  -6.563  59.058  1.00  0.00     0.010 C
HETATM    5  C8  UNL     1      28.436  -6.963  60.158  1.00  0.00     0.021 C
HETATM    6  C9  UNL     1      29.859  -7.059  59.743  1.00  0.00     0.129 C
HETATM    7  C10 UNL     1      30.128  -7.580  58.393  1.00  0.00     0.070 C
HETATM    8  O2  UNL     1      30.498  -7.814  60.759  1.00  0.00    -0.383 OA
HETATM    9  C11 UNL     1      30.584  -7.077  61.933  1.00  0.00     0.201 C
HETATM   10  C12 UNL     1      29.252  -6.605  62.439  1.00  0.00     0.160 C
HETATM   11  C17 UNL     1      28.353  -6.064  61.365  1.00  0.00     0.020 C
HETATM   12  C18 UNL     1      28.763  -4.649  61.026  1.00  0.00     0.013 C
ENDROOT
BRANCH  10  13
HETATM   13  O3  UNL     1      29.483  -5.584  63.394  1.00  0.00    -0.313 OA
BRANCH  13  14
HETATM   14  C13 UNL     1      30.652  -5.433  64.087  1.00  0.00     0.262 C
HETATM   15  O4  UNL     1      31.300  -6.460  64.413  1.00  0.00    -0.265 OA
BRANCH  14  16
HETATM   16  C14 UNL     1      31.191  -4.108  64.471  1.00  0.00     0.077 C
HETATM   17  C15 UNL     1      31.408  -4.021  65.973  1.00  0.00     0.020 C
HETATM   18  C16 UNL     1      30.260  -2.983  64.063  1.00  0.00     0.020 C
ENDBRANCH  14  16
ENDBRANCH  13  14
ENDBRANCH  10  13
BRANCH   1  19
HETATM   19  O1  UNL     1      29.095  -8.963  56.746  1.00  0.00    -0.376 OA
BRANCH  19  20
HETATM   20  C2  UNL     1      30.381  -9.419  56.613  1.00  0.00     0.114 C
HETATM   21  C1  UNL     1      30.568 -10.635  57.486  1.00  0.00     0.039 C
HETATM   22  C3  UNL     1      30.586  -9.882  55.173  1.00  0.00     0.039 C
ENDBRANCH  19  20
ENDBRANCH   1  19
TORSDOF 5
ENDMDL