MODEL 4
REMARK VINA RESULT: -6.466710165      0.970      2.905
REMARK  6 active torsions:
REMARK  status: ('A' for Active; 'I' for Inactive)
REMARK    1  A    between atoms: C2_2  and  C3_3
REMARK    2  A    between atoms: C7_7  and  O1_8
REMARK    3  A    between atoms: C8_10  and  O2_11
REMARK    4  A    between atoms: C9_13  and  C10_14
REMARK    5  A    between atoms: C10_14  and  C11_15
REMARK    6  A    between atoms: C15_19  and  O3_20
ROOT
HETATM    1  C3  UNL     1      22.591  20.134   6.198  1.00  0.00     0.005 A
HETATM    2  C4  UNL     1      23.989  19.936   6.130  1.00  0.00    -0.035 A
HETATM    3  C5  UNL     1      24.935  19.420   7.129  1.00  0.00     0.050 C
HETATM    4  C6  UNL     1      24.370  20.337   4.869  1.00  0.00     0.023 A
HETATM    5  C7  UNL     1      25.619  20.369   4.240  1.00  0.00     0.111 C
HETATM    6  C8  UNL     1      25.842  20.834   2.935  1.00  0.00     0.109 C
HETATM    7  C9  UNL     1      24.894  21.246   1.983  1.00  0.00     0.017 C
HETATM    8  C15 UNL     1      23.537  21.492   2.080  1.00  0.00     0.110 C
HETATM    9  C16 UNL     1      22.679  21.230   3.167  1.00  0.00     0.123 A
HETATM   10  O4  UNL     1      21.563  21.157   3.850  1.00  0.00    -0.305 OA
HETATM   11  C17 UNL     1      22.106  20.652   4.992  1.00  0.00     0.101 A
HETATM   12  C18 UNL     1      23.244  20.731   4.283  1.00  0.00     0.049 A
ENDROOT
BRANCH   7  13
HETATM   13  C10 UNL     1      25.497  21.460   0.616  1.00  0.00     0.072 C
BRANCH  13  14
HETATM   14  C11 UNL     1      25.872  22.854   0.372  1.00  0.00    -0.020 C
HETATM   15  C12 UNL     1      25.499  23.481  -0.718  1.00  0.00    -0.091 C
HETATM   16  C13 UNL     1      25.916  24.905  -0.909  1.00  0.00     0.042 C
HETATM   17  C14 UNL     1      24.668  22.866  -1.780  1.00  0.00     0.042 C
ENDBRANCH  13  14
ENDBRANCH   7  13
BRANCH   6  18
HETATM   18  O2  UNL     1      27.164  20.895   2.546  1.00  0.00    -0.357 OA
ATOM     19  H2  UNL     1      27.513  20.100   2.161  1.00  0.00     0.217 HD
ENDBRANCH   6  18
BRANCH   8  20
HETATM   20  O3  UNL     1      22.885  22.057   1.031  1.00  0.00    -0.357 OA
ATOM     21  H3  UNL     1      22.449  22.893   1.148  1.00  0.00     0.217 HD
ENDBRANCH   8  20
BRANCH   5  22
HETATM   22  O1  UNL     1      26.605  19.897   5.029  1.00  0.00    -0.357 OA
ATOM     23  H1  UNL     1      27.256  19.405   4.542  1.00  0.00     0.217 HD
ENDBRANCH   5  22
BRANCH   1  24
HETATM   24  C2  UNL     1      21.746  19.855   7.333  1.00  0.00     0.004 C
HETATM   25  C1  UNL     1      21.657  20.643   8.374  1.00  0.00     0.012 C
ENDBRANCH   1  24
TORSDOF 6
ENDMDL