MODEL 4
REMARK VINA RESULT: -6.508776137      2.287      5.433
REMARK  7 active torsions:
REMARK  status: ('A' for Active; 'I' for Inactive)
REMARK    1  A    between atoms: C2_2  and  C3_3
REMARK    2  A    between atoms: C3_3  and  C4_4
REMARK    3  A    between atoms: C4_4  and  C5_5
REMARK    4  A    between atoms: C6_6  and  O1_7
REMARK    5  A    between atoms: C7_9  and  N1_10
REMARK    6  A    between atoms: N2_12  and  C8_14
REMARK    7  A    between atoms: C13_22  and  O2_23
ROOT
HETATM    1  C5  UNL     1      25.251  21.366   1.950  1.00  0.00    -0.009 A
HETATM    2  C6  UNL     1      23.954  20.980   2.268  1.00  0.00     0.101 A
HETATM    3  C7  UNL     1      23.564  20.506   3.504  1.00  0.00     0.088 A
HETATM    4  C10 UNL     1      24.513  20.409   4.474  1.00  0.00    -0.016 A
HETATM    5  C11 UNL     1      24.134  19.903   5.822  1.00  0.00     0.052 C
HETATM    6  C12 UNL     1      25.809  20.781   4.193  1.00  0.00     0.036 A
HETATM    7  C13 UNL     1      26.910  20.765   5.006  1.00  0.00     0.152 A
HETATM    8  N4  UNL     1      27.921  21.209   4.294  1.00  0.00    -0.340 N
ATOM      9  H4  UNL     1      28.870  21.300   4.657  1.00  0.00     0.168 HD
HETATM   10  C14 UNL     1      27.569  21.533   3.022  1.00  0.00     0.019 A
HETATM   11  C15 UNL     1      28.449  22.050   1.981  1.00  0.00     0.069 C
HETATM   12  C16 UNL     1      26.217  21.259   2.957  1.00  0.00     0.010 A
ENDROOT
BRANCH   3  13
HETATM   13  N1  UNL     1      22.230  20.118   3.808  1.00  0.00    -0.296 N
HETATM   14  N2  UNL     1      21.559  19.258   3.195  1.00  0.00    -0.289 N
ATOM     15  H2  UNL     1      21.944  18.754   2.396  1.00  0.00     0.188 HD
ATOM     16  H1  UNL     1      21.780  20.582   4.597  1.00  0.00     0.187 HD
BRANCH  14  17
HETATM   17  C8  UNL     1      20.227  19.012   3.662  1.00  0.00     0.085 C
HETATM   18  C9  UNL     1      19.817  19.415   5.033  1.00  0.00     0.090 C
HETATM   19  N3  UNL     1      19.334  18.436   2.928  1.00  0.00    -0.388 N
ATOM     20  H32 UNL     1      19.614  18.159   1.987  1.00  0.00     0.157 HD
ATOM     21  H31 UNL     1      18.385  18.261   3.261  1.00  0.00     0.157 HD
ENDBRANCH  14  17
ENDBRANCH   3  13
BRANCH   2  22
HETATM   22  O1  UNL     1      22.965  21.063   1.301  1.00  0.00    -0.358 OA
ATOM     23  H1  UNL     1      22.065  20.877   1.540  1.00  0.00     0.217 HD
ENDBRANCH   2  22
BRANCH   1  24
HETATM   24  C4  UNL     1      25.659  21.896   0.647  1.00  0.00     0.042 C
BRANCH  24  25
HETATM   25  C3  UNL     1      25.443  23.338   0.387  1.00  0.00     0.004 C
BRANCH  25  26
HETATM   26  C2  UNL     1      25.231  23.781  -1.010  1.00  0.00    -0.004 C
HETATM   27  C1  UNL     1      24.485  22.619  -1.710  1.00  0.00     0.005 C
ENDBRANCH  25  26
ENDBRANCH  24  25
ENDBRANCH   1  24
BRANCH   7  28
HETATM   28  O2  UNL     1      26.999  20.361   6.347  1.00  0.00    -0.345 OA
ATOM     29  H2  UNL     1      27.535  20.728   7.040  1.00  0.00     0.219 HD
ENDBRANCH   7  28
TORSDOF 7
ENDMDL