MODEL 3
REMARK VINA RESULT: -7.216183458      3.066      5.782
REMARK  6 active torsions:
REMARK  status: ('A' for Active; 'I' for Inactive)
REMARK    1  A    between atoms: C4_4  and  C5_5
REMARK    2  A    between atoms: C5_5  and  C6_6
REMARK    3  A    between atoms: C7_7  and  C8_8
REMARK    4  A    between atoms: C9_9  and  O1_10
REMARK    5  A    between atoms: C10_12  and  O2_13
REMARK    6  A    between atoms: C13_17  and  O3_18
ROOT
HETATM    1  C8  UNL     1      22.669  20.321   4.658  1.00  0.00     0.033 A
HETATM    2  C9  UNL     1      23.436  19.897   5.769  1.00  0.00     0.112 A
HETATM    3  C10 UNL     1      24.797  20.052   5.781  1.00  0.00     0.112 A
HETATM    4  C11 UNL     1      25.406  20.632   4.687  1.00  0.00     0.031 A
HETATM    5  C12 UNL     1      24.653  21.043   3.605  1.00  0.00    -0.009 A
HETATM    6  C13 UNL     1      23.276  20.901   3.558  1.00  0.00     0.086 A
HETATM    7  C14 UNL     1      25.272  21.666   2.402  1.00  0.00     0.042 C
HETATM    8  C15 UNL     1      26.148  20.644   1.761  1.00  0.00     0.005 C
HETATM    9  C16 UNL     1      27.194  19.990   2.521  1.00  0.00     0.006 C
HETATM   10  C17 UNL     1      27.807  20.611   3.703  1.00  0.00     0.057 C
HETATM   11  C18 UNL     1      26.871  20.730   4.894  1.00  0.00     0.016 C
HETATM   12  N1  UNL     1      27.351  20.942   6.012  1.00  0.00    -0.402 N
ATOM     13  H11 UNL     1      28.360  21.009   6.154  1.00  0.00     0.156 HD
ATOM     14  H12 UNL     1      26.723  21.021   6.812  1.00  0.00     0.156 HD
ENDROOT
BRANCH   1  15
HETATM   15  C7  UNL     1      21.250  20.109   4.752  1.00  0.00     0.013 C
HETATM   16  C6  UNL     1      20.535  19.179   4.171  1.00  0.00    -0.022 C
BRANCH  16  17
HETATM   17  C5  UNL     1      19.044  19.187   4.446  1.00  0.00     0.054 C
BRANCH  17  18
HETATM   18  C4  UNL     1      18.343  18.416   3.373  1.00  0.00    -0.021 C
HETATM   19  C2  UNL     1      17.033  18.261   3.348  1.00  0.00    -0.091 C
HETATM   20  C1  UNL     1      16.429  17.474   2.237  1.00  0.00     0.042 C
HETATM   21  C3  UNL     1      16.118  18.827   4.366  1.00  0.00     0.042 C
ENDBRANCH  17  18
ENDBRANCH  16  17
ENDBRANCH   1  15
BRANCH   2  22
HETATM   22  O1  UNL     1      22.796  19.318   6.857  1.00  0.00    -0.357 OA
ATOM     23  H1  UNL     1      22.978  18.412   7.077  1.00  0.00     0.217 HD
ENDBRANCH   2  22
BRANCH   6  24
HETATM   24  O3  UNL     1      22.558  21.313   2.482  1.00  0.00    -0.359 OA
ATOM     25  H3  UNL     1      22.212  22.196   2.421  1.00  0.00     0.217 HD
ENDBRANCH   6  24
BRANCH   3  26
HETATM   26  O2  UNL     1      25.581  19.657   6.824  1.00  0.00    -0.357 OA
ATOM     27  H2  UNL     1      26.530  19.633   6.779  1.00  0.00     0.217 HD
ENDBRANCH   3  26
TORSDOF 6
ENDMDL