MODEL 4
REMARK VINA RESULT: -6.258650065      3.385      5.913
REMARK  7 active torsions:
REMARK  status: ('A' for Active; 'I' for Inactive)
REMARK    1  A    between atoms: C2_2  and  C3_3
REMARK    2  A    between atoms: C7_7  and  C8_8
REMARK    3  A    between atoms: C9_9  and  O1_10
REMARK    4  A    between atoms: C10_14  and  O2_15
REMARK    5  A    between atoms: C11_17  and  N2_18
REMARK    6  A    between atoms: N2_18  and  O3_20
REMARK    7  A    between atoms: C12_22  and  C13_23
ROOT
HETATM    1  C8  UNL     1      25.859  22.391   0.815  1.00  0.00     0.030 A
HETATM    2  C9  UNL     1      26.514  23.586   1.041  1.00  0.00     0.151 A
HETATM    3  N1  UNL     1      26.280  24.409  -0.017  1.00  0.00    -0.315 N
ATOM      4  H1  UNL     1      26.648  25.356  -0.099  1.00  0.00     0.170 HD
HETATM    5  C10 UNL     1      25.519  23.827  -0.920  1.00  0.00     0.172 A
HETATM    6  C11 UNL     1      25.251  22.550  -0.398  1.00  0.00     0.116 A
ENDROOT
BRANCH   1   7
HETATM    7  C7  UNL     1      25.878  21.188   1.719  1.00  0.00     0.034 C
HETATM    8  C6  UNL     1      27.432  21.028   1.944  1.00  0.00     0.011 C
HETATM    9  C5  UNL     1      27.545  19.566   2.356  1.00  0.00     0.014 C
HETATM   10  C3  UNL     1      27.144  19.617   3.828  1.00  0.00    -0.026 C
HETATM   11  C4  UNL     1      28.324  20.265   4.565  1.00  0.00     0.019 C
HETATM   12  C17 UNL     1      25.867  20.298   4.043  1.00  0.00     0.022 C
HETATM   13  C12 UNL     1      25.357  21.344   3.070  1.00  0.00     0.023 C
BRANCH  10  14
HETATM   14  C2  UNL     1      27.061  18.214   4.296  1.00  0.00    -0.028 C
HETATM   15  C1  UNL     1      27.899  17.286   3.909  1.00  0.00     0.007 C
ENDBRANCH  10  14
BRANCH  13  16
HETATM   16  C13 UNL     1      23.904  21.345   3.350  1.00  0.00    -0.083 C
HETATM   17  C14 UNL     1      23.073  22.377   2.592  1.00  0.00     0.043 C
HETATM   18  C15 UNL     1      23.208  20.579   4.149  1.00  0.00    -0.028 C
HETATM   19  C16 UNL     1      21.737  20.702   4.333  1.00  0.00     0.036 C
ENDBRANCH  13  16
ENDBRANCH   1   7
BRANCH   2  20
HETATM   20  O1  UNL     1      27.293  23.997   2.117  1.00  0.00    -0.346 OA
ATOM     21  H1  UNL     1      27.077  24.071   3.039  1.00  0.00     0.219 HD
ENDBRANCH   2  20
BRANCH   6  22
HETATM   22  N2  UNL     1      24.494  21.587  -1.099  1.00  0.00    -0.264 N
ATOM     23  H2  UNL     1      24.680  20.591  -0.977  1.00  0.00     0.194 HD
BRANCH  22  24
HETATM   24  O3  UNL     1      23.578  21.983  -1.883  1.00  0.00    -0.289 OA
ATOM     25  H3  UNL     1      23.337  22.903  -1.876  1.00  0.00     0.244 HD
ENDBRANCH  22  24
ENDBRANCH   6  22
BRANCH   5  26
HETATM   26  O2  UNL     1      25.051  24.302  -2.121  1.00  0.00    -0.344 OA
ATOM     27  H2  UNL     1      25.430  24.937  -2.717  1.00  0.00     0.219 HD
ENDBRANCH   5  26
TORSDOF 7
ENDMDL