MODEL 4
REMARK VINA RESULT: -5.650314870      2.700      5.394
REMARK  4 active torsions:
REMARK  status: ('A' for Active; 'I' for Inactive)
REMARK    1  A    between atoms: C7_10  and  C8_11
REMARK    2  A    between atoms: C8_11  and  C9_12
REMARK    3  A    between atoms: C9_12  and  C10_13
REMARK    4  A    between atoms: C10_13  and  C11_14
ROOT
HETATM    1  C1  UNL     1      21.992  20.325   7.104  1.00  0.00     0.015 C
HETATM    2  C2  UNL     1      22.266  20.241   5.799  1.00  0.00    -0.077 C
HETATM    3  C3  UNL     1      21.257  20.620   4.781  1.00  0.00     0.034 C
HETATM    4  C4  UNL     1      21.341  19.827   3.517  1.00  0.00     0.007 C
HETATM    5  C5  UNL     1      22.770  19.483   3.119  1.00  0.00     0.041 C
HETATM    6  C6  UNL     1      23.761  20.282   3.900  1.00  0.00     0.148 C
HETATM    7  N1  UNL     1      23.504  21.666   3.734  1.00  0.00    -0.060 N
ATOM      8  H11 UNL     1      24.005  22.234   4.417  1.00  0.00     0.278 HD
ATOM      9  H12 UNL     1      22.553  21.915   4.005  1.00  0.00     0.278 HD
HETATM   10  C7  UNL     1      23.802  22.060   2.377  1.00  0.00     0.187 C
HETATM   11  C13 UNL     1      25.273  21.986   2.192  1.00  0.00     0.038 C
HETATM   12  C14 UNL     1      25.993  20.958   2.956  1.00  0.00    -0.004 C
HETATM   13  C15 UNL     1      26.912  20.203   1.984  1.00  0.00     0.011 C
HETATM   14  C16 UNL     1      25.194  19.905   3.665  1.00  0.00     0.078 C
HETATM   15  C17 UNL     1      25.800  19.788   5.018  1.00  0.00     0.033 C
HETATM   16  N2  UNL     1      26.996  19.388   5.277  1.00  0.00    -0.400 N
ATOM     17  H21 UNL     1      27.411  19.308   6.206  1.00  0.00     0.156 HD
ATOM     18  H22 UNL     1      27.712  19.084   4.619  1.00  0.00     0.156 HD
HETATM   19  C18 UNL     1      24.773  20.224   5.962  1.00  0.00     0.036 C
HETATM   20  N3  UNL     1      24.969  20.854   7.088  1.00  0.00    -0.400 N
ATOM     21  H31 UNL     1      24.253  21.158   7.746  1.00  0.00     0.156 HD
ATOM     22  H32 UNL     1      25.835  21.163   7.529  1.00  0.00     0.156 HD
HETATM   23  C19 UNL     1      23.531  19.780   5.329  1.00  0.00     0.102 C
ENDROOT
BRANCH  10  24
HETATM   24  C8  UNL     1      23.312  23.473   2.096  1.00  0.00     0.033 C
BRANCH  24  25
HETATM   25  C9  UNL     1      23.891  23.924   0.782  1.00  0.00     0.002 C
BRANCH  25  26
HETATM   26  C10 UNL     1      22.891  23.808  -0.347  1.00  0.00    -0.000 C
BRANCH  26  27
HETATM   27  C11 UNL     1      23.524  23.356  -1.629  1.00  0.00    -0.005 C
HETATM   28  C12 UNL     1      24.707  22.460  -1.430  1.00  0.00     0.005 C
ENDBRANCH  26  27
ENDBRANCH  25  26
ENDBRANCH  24  25
ENDBRANCH  10  24
TORSDOF 4
ENDMDL