MODEL 5
REMARK VINA RESULT: -5.464467619      1.987      5.374
REMARK  6 active torsions:
REMARK  status: ('A' for Active; 'I' for Inactive)
REMARK    1  A    between atoms: C3_3  and  C4_4
REMARK    2  A    between atoms: C5_5  and  C6_6
REMARK    3  A    between atoms: C9_9  and  S1_10
REMARK    4  A    between atoms: C10_12  and  O1_13
REMARK    5  A    between atoms: C11_15  and  C12_16
REMARK    6  A    between atoms: C15_19  and  O2_20
ROOT
HETATM    1  C6  UNL     1      22.009  20.267   4.714  1.00  0.00     0.005 A
HETATM    2  C7  UNL     1      22.544  20.131   5.959  1.00  0.00    -0.029 A
HETATM    3  C8  UNL     1      21.722  19.949   7.173  1.00  0.00     0.050 C
HETATM    4  C9  UNL     1      23.936  20.254   6.202  1.00  0.00     0.053 A
HETATM    5  C10 UNL     1      24.774  20.534   5.148  1.00  0.00     0.097 A
HETATM    6  C11 UNL     1      24.308  20.685   3.883  1.00  0.00     0.034 A
HETATM    7  C15 UNL     1      22.919  20.554   3.655  1.00  0.00     0.089 A
ENDROOT
BRANCH   1   8
HETATM    8  C5  UNL     1      20.647  19.944   4.355  1.00  0.00     0.015 C
HETATM    9  C4  UNL     1      20.039  18.816   4.108  1.00  0.00     0.001 C
BRANCH   9  10
HETATM   10  C3  UNL     1      18.603  18.909   3.768  1.00  0.00    -0.004 C
HETATM   11  C2  UNL     1      17.599  18.511   4.506  1.00  0.00    -0.031 C
HETATM   12  C1  UNL     1      16.210  18.705   3.952  1.00  0.00     0.036 C
ENDBRANCH   9  10
ENDBRANCH   1   8
BRANCH   7  13
HETATM   13  O2  UNL     1      22.422  20.711   2.399  1.00  0.00    -0.359 OA
ATOM     14  H2  UNL     1      22.322  19.940   1.852  1.00  0.00     0.217 HD
ENDBRANCH   7  13
BRANCH   4  15
HETATM   15  S1  UNL     1      24.654  20.120   7.796  1.00  0.00    -0.042 SA
HETATM   16  S2  UNL     1      25.478  18.171   7.742  1.00  0.00    -0.007 SA
ENDBRANCH   4  15
BRANCH   6  17
HETATM   17  C12 UNL     1      25.133  20.749   2.705  1.00  0.00    -0.072 C
HETATM   18  C13 UNL     1      25.313  22.064   2.014  1.00  0.00     0.044 C
HETATM   19  C14 UNL     1      26.254  19.808   2.535  1.00  0.00     0.044 C
ENDBRANCH   6  17
BRANCH   5  20
HETATM   20  O1  UNL     1      26.121  20.664   5.418  1.00  0.00    -0.358 OA
ATOM     21  H1  UNL     1      26.502  21.532   5.350  1.00  0.00     0.217 HD
ENDBRANCH   5  20
TORSDOF 6
ENDMDL