MODEL 2
REMARK VINA RESULT: -7.436586800      3.598      5.474
REMARK  6 active torsions:
REMARK  status: ('A' for Active; 'I' for Inactive)
REMARK    1  A    between atoms: C3_5  and  O1_6
REMARK    2  A    between atoms: C4_8  and  N2_9
REMARK    3  A    between atoms: N2_9  and  N3_11
REMARK    4  A    between atoms: N3_11  and  C5_12
REMARK    5  A    between atoms: C7_16  and  C8_17
REMARK    6  A    between atoms: C14_23  and  O2_24
ROOT
HETATM    1  C5  UNL     1      21.526  20.188   4.996  1.00  0.00     0.181 A
HETATM    2  C6  UNL     1      20.766  20.163   6.181  1.00  0.00     0.138 A
HETATM    3  N4  UNL     1      19.684  19.395   5.948  1.00  0.00    -0.363 N
ATOM      4  H4  UNL     1      18.956  19.203   6.637  1.00  0.00     0.165 HD
HETATM    5  C7  UNL     1      19.683  18.915   4.696  1.00  0.00     0.050 A
HETATM    6  C14 UNL     1      20.803  19.385   4.090  1.00  0.00     0.133 A
ENDROOT
BRANCH   1   7
HETATM    7  N3  UNL     1      22.664  20.861   4.746  1.00  0.00    -0.321 NA
BRANCH   7   8
HETATM    8  N2  UNL     1      23.649  21.201   4.342  1.00  0.00    -0.231 N
ATOM      9  H2  UNL     1      24.000  21.932   4.962  1.00  0.00     0.202 HD
BRANCH   8  10
HETATM   10  C4  UNL     1      24.585  21.025   3.330  1.00  0.00     0.119 A
HETATM   11  C3  UNL     1      24.394  20.982   1.963  1.00  0.00     0.170 A
HETATM   12  N1  UNL     1      25.592  20.794   1.353  1.00  0.00    -0.339 N
HETATM   13  C2  UNL     1      26.535  20.717   2.298  1.00  0.00     0.015 A
ATOM     14  H1  UNL     1      25.746  20.724   0.347  1.00  0.00     0.168 HD
HETATM   15  C1  UNL     1      28.013  20.499   2.086  1.00  0.00     0.069 C
HETATM   16  C15 UNL     1      25.962  20.855   3.540  1.00  0.00    -0.006 A
HETATM   17  C16 UNL     1      26.628  20.832   4.865  1.00  0.00     0.053 C
BRANCH  11  18
HETATM   18  O1  UNL     1      23.210  21.106   1.270  1.00  0.00    -0.344 OA
ATOM     19  H1  UNL     1      22.570  20.408   1.209  1.00  0.00     0.219 HD
ENDBRANCH  11  18
ENDBRANCH   8  10
ENDBRANCH   7   8
ENDBRANCH   1   7
BRANCH   6  20
HETATM   20  O2  UNL     1      21.150  19.104   2.792  1.00  0.00    -0.356 OA
ATOM     21  H2  UNL     1      21.630  19.672   2.200  1.00  0.00     0.218 HD
ENDBRANCH   6  20
BRANCH   5  22
HETATM   22  C8  UNL     1      18.620  18.017   4.145  1.00  0.00     0.038 C
HETATM   23  C9  UNL     1      18.520  18.278   2.678  1.00  0.00     0.011 C
HETATM   24  C10 UNL     1      17.246  18.026   1.987  1.00  0.00     0.001 C
HETATM   25  C11 UNL     1      16.027  18.089   2.879  1.00  0.00     0.000 C
HETATM   26  C12 UNL     1      16.279  18.984   4.061  1.00  0.00     0.001 C
HETATM   27  C13 UNL     1      17.354  18.334   4.891  1.00  0.00     0.011 C
ENDBRANCH   5  22
TORSDOF 6
ENDMDL