MODEL 5
REMARK VINA RESULT: -6.312399377      3.548      5.454
REMARK  4 active torsions:
REMARK  status: ('A' for Active; 'I' for Inactive)
REMARK    1  A    between atoms: C5_7  and  N2_8
REMARK    2  A    between atoms: N2_8  and  C6_10
REMARK    3  A    between atoms: C17_24  and  N4_25
REMARK    4  A    between atoms: N4_25  and  O1_27
ROOT
HETATM    1  C6  UNL     1      23.374  21.314   3.268  1.00  0.00     0.284 C
HETATM    2  C7  UNL     1      21.994  21.371   3.888  1.00  0.00     0.054 C
HETATM    3  C8  UNL     1      21.729  20.088   4.687  1.00  0.00     0.004 C
HETATM    4  C9  UNL     1      21.213  20.446   6.040  1.00  0.00     0.000 C
HETATM    5  C10 UNL     1      21.810  19.619   7.145  1.00  0.00     0.000 C
HETATM    6  C11 UNL     1      23.151  20.154   7.607  1.00  0.00     0.000 C
HETATM    7  C12 UNL     1      24.267  19.252   7.197  1.00  0.00     0.000 C
HETATM    8  C13 UNL     1      25.417  19.965   6.537  1.00  0.00     0.006 C
HETATM    9  C14 UNL     1      25.756  19.377   5.176  1.00  0.00     0.007 C
HETATM   10  C15 UNL     1      27.215  18.966   5.140  1.00  0.00     0.011 C
HETATM   11  C16 UNL     1      25.447  20.371   4.061  1.00  0.00     0.239 C
HETATM   12  N3  UNL     1      24.314  21.184   4.364  1.00  0.00    -0.054 N
ATOM     13  H31 UNL     1      23.843  20.845   5.202  1.00  0.00     0.279 HD
ATOM     14  H32 UNL     1      24.610  22.103   4.693  1.00  0.00     0.279 HD
ENDROOT
BRANCH   1  15
HETATM   15  N2  UNL     1      23.650  22.540   2.550  1.00  0.00    -0.359 N
ATOM     16  H2  UNL     1      23.883  23.370   3.094  1.00  0.00     0.162 HD
BRANCH  15  17
HETATM   17  C5  UNL     1      23.617  22.658   1.137  1.00  0.00     0.083 A
HETATM   18  C3  UNL     1      24.447  22.086   0.203  1.00  0.00     0.034 A
HETATM   19  N1  UNL     1      24.061  22.475  -1.044  1.00  0.00    -0.360 N
HETATM   20  C4  UNL     1      25.588  21.175   0.465  1.00  0.00     0.070 C
HETATM   21  C2  UNL     1      22.998  23.284  -0.913  1.00  0.00     0.036 A
ATOM     22  H1  UNL     1      24.501  22.199  -1.922  1.00  0.00     0.165 HD
HETATM   23  C1  UNL     1      22.273  23.925  -2.025  1.00  0.00     0.070 C
HETATM   24  C17 UNL     1      22.705  23.412   0.427  1.00  0.00     0.104 A
BRANCH  24  25
HETATM   25  N4  UNL     1      21.642  24.188   1.015  1.00  0.00    -0.265 N
ATOM     26  H4  UNL     1      20.674  23.967   0.785  1.00  0.00     0.194 HD
BRANCH  25  27
HETATM   27  O1  UNL     1      21.886  25.126   1.799  1.00  0.00    -0.289 OA
ATOM     28  H1  UNL     1      21.917  26.025   1.495  1.00  0.00     0.244 HD
ENDBRANCH  25  27
ENDBRANCH  24  25
ENDBRANCH  15  17
ENDBRANCH   1  15
TORSDOF 4
ENDMDL