MODEL 4
REMARK VINA RESULT: -7.028151892      2.284      2.679
REMARK  9 active torsions:
REMARK  status: ('A' for Active; 'I' for Inactive)
REMARK    1  A    between atoms: C4_4  and  C5_5
REMARK    2  A    between atoms: C5_5  and  C6_6
REMARK    3  A    between atoms: C6_6  and  C7_7
REMARK    4  A    between atoms: C7_7  and  C9_9
REMARK    5  A    between atoms: C9_9  and  C10_10
REMARK    6  A    between atoms: C10_10  and  C11_11
REMARK    7  A    between atoms: C11_11  and  C12_12
REMARK    8  A    between atoms: C15_19  and  O1_20
REMARK    9  A    between atoms: C16_22  and  O2_23
ROOT
HETATM    1  C12 UNL     1      20.142  19.412   4.730  1.00  0.00     0.123 A
HETATM    2  N1  UNL     1      20.300  19.522   6.089  1.00  0.00    -0.339 N
ATOM      3  H1  UNL     1      19.533  19.365   6.743  1.00  0.00     0.167 HD
HETATM    4  C13 UNL     1      21.605  19.868   6.521  1.00  0.00     0.105 A
HETATM    5  C14 UNL     1      22.520  20.040   5.507  1.00  0.00     0.108 A
HETATM    6  N2  UNL     1      23.703  20.359   6.029  1.00  0.00    -0.327 N
ATOM      7  H2  UNL     1      24.549  20.539   5.489  1.00  0.00     0.168 HD
HETATM    8  C15 UNL     1      23.620  20.410   7.375  1.00  0.00     0.177 A
HETATM    9  C16 UNL     1      22.309  20.103   7.705  1.00  0.00     0.146 A
HETATM   10  S1  UNL     1      21.678  19.756   3.963  1.00  0.00    -0.043 SA
ENDROOT
BRANCH   1  11
HETATM   11  C11 UNL     1      19.052  19.115   4.155  1.00  0.00    -0.091 C
BRANCH  11  12
HETATM   12  C10 UNL     1      17.964  18.620   3.645  1.00  0.00     0.059 C
BRANCH  12  13
HETATM   13  C9  UNL     1      18.181  17.928   2.419  1.00  0.00     0.015 C
BRANCH  13  14
HETATM   14  C7  UNL     1      17.216  17.831   1.532  1.00  0.00    -0.054 C
HETATM   15  C8  UNL     1      15.930  17.295   1.983  1.00  0.00     0.049 C
BRANCH  14  16
HETATM   16  C6  UNL     1      17.428  18.252   0.162  1.00  0.00     0.062 C
BRANCH  16  17
HETATM   17  C5  UNL     1      17.781  17.593  -0.856  1.00  0.00    -0.127 C
BRANCH  17  18
HETATM   18  C4  UNL     1      18.164  16.880  -1.957  1.00  0.00     0.057 C
HETATM   19  C2  UNL     1      18.431  17.232  -3.210  1.00  0.00    -0.080 C
HETATM   20  C1  UNL     1      18.836  16.148  -4.182  1.00  0.00     0.043 C
HETATM   21  C3  UNL     1      18.336  18.598  -3.707  1.00  0.00     0.043 C
ENDBRANCH  17  18
ENDBRANCH  16  17
ENDBRANCH  14  16
ENDBRANCH  13  14
ENDBRANCH  12  13
ENDBRANCH  11  12
ENDBRANCH   1  11
BRANCH   9  22
HETATM   22  O2  UNL     1      21.832  20.049   8.994  1.00  0.00    -0.355 OA
ATOM     23  H2  UNL     1      21.433  19.309   9.436  1.00  0.00     0.218 HD
ENDBRANCH   9  22
BRANCH   8  24
HETATM   24  O1  UNL     1      24.656  20.715   8.259  1.00  0.00    -0.344 OA
ATOM     25  H1  UNL     1      24.877  20.244   9.055  1.00  0.00     0.219 HD
ENDBRANCH   8  24
TORSDOF 9
ENDMDL