MODEL 2
REMARK VINA RESULT: -6.271509139      3.082      6.290
REMARK  4 active torsions:
REMARK  status: ('A' for Active; 'I' for Inactive)
REMARK    1  A    between atoms: C2_2  and  C3_3
REMARK    2  A    between atoms: C3_3  and  C4_4
REMARK    3  A    between atoms: C4_4  and  N1_5
REMARK    4  A    between atoms: C5_6  and  O1_7
ROOT
HETATM    1  N1  UNL     1      23.286  20.396   4.894  1.00  0.00    -0.324 N
HETATM    2  C5  UNL     1      23.445  19.803   6.145  1.00  0.00     0.163 A
HETATM    3  C6  UNL     1      24.755  19.580   6.415  1.00  0.00     0.091 A
HETATM    4  S1  UNL     1      25.474  18.847   7.875  1.00  0.00    -0.045 SA
HETATM    5  C7  UNL     1      25.440  20.041   5.314  1.00  0.00     0.083 A
HETATM    6  N2  UNL     1      26.656  20.199   4.780  1.00  0.00    -0.352 N
ATOM      7  H2  UNL     1      27.533  19.928   5.224  1.00  0.00     0.166 HD
HETATM    8  C8  UNL     1      26.545  20.769   3.570  1.00  0.00     0.051 A
HETATM    9  C9  UNL     1      27.542  21.112   2.670  1.00  0.00    -0.034 A
HETATM   10  C10 UNL     1      28.968  20.857   2.994  1.00  0.00     0.050 C
HETATM   11  C11 UNL     1      27.161  21.686   1.488  1.00  0.00     0.016 A
HETATM   12  C12 UNL     1      25.828  21.915   1.206  1.00  0.00    -0.054 A
HETATM   13  C13 UNL     1      25.437  22.543  -0.086  1.00  0.00     0.049 C
HETATM   14  C14 UNL     1      24.811  21.573   2.105  1.00  0.00    -0.041 A
HETATM   15  C15 UNL     1      23.417  21.850   1.691  1.00  0.00     0.050 C
HETATM   16  C16 UNL     1      25.200  21.001   3.285  1.00  0.00     0.027 A
HETATM   17  C17 UNL     1      24.501  20.539   4.393  1.00  0.00     0.078 A
ENDROOT
BRANCH   1  18
HETATM   18  C4  UNL     1      21.957  20.691   4.471  1.00  0.00     0.131 C
BRANCH  18  19
HETATM   19  C3  UNL     1      21.287  19.552   3.726  1.00  0.00     0.020 C
BRANCH  19  20
HETATM   20  C2  UNL     1      20.014  19.101   4.392  1.00  0.00    -0.003 C
HETATM   21  C1  UNL     1      19.023  18.449   3.472  1.00  0.00     0.005 C
ENDBRANCH  19  20
ENDBRANCH  18  19
ENDBRANCH   1  18
BRANCH   2  22
HETATM   22  O1  UNL     1      22.419  19.471   7.023  1.00  0.00    -0.345 OA
ATOM     23  H1  UNL     1      22.141  19.986   7.771  1.00  0.00     0.219 HD
ENDBRANCH   2  22
TORSDOF 4
ENDMDL