MODEL 5
REMARK VINA RESULT: -7.202481553      3.878      5.347
REMARK  3 active torsions:
REMARK  status: ('A' for Active; 'I' for Inactive)
REMARK    1  A    between atoms: N4_14  and  C7_15
REMARK    2  A    between atoms: C7_15  and  C8_16
REMARK       I    between atoms: C8_16  and  N5_18
REMARK    3  A    between atoms: N5_18  and  C9_20
ROOT
HETATM    1  C1  UNL     1      -9.758  23.610  14.176  1.00  0.00     0.145 C
HETATM    2  N1  UNL     1     -10.444  22.397  13.901  1.00  0.00    -0.387 N
HETATM    3  C2  UNL     1      -9.968  21.227  14.557  1.00  0.00     0.352 C
HETATM    4  N2  UNL     1     -10.767  20.071  14.151  1.00  0.00    -0.058 N
ATOM      5  H21 UNL     1     -10.516  19.746  13.216  1.00  0.00     0.279 HD
ATOM      6  H22 UNL     1     -11.737  20.326  13.967  1.00  0.00     0.279 HD
HETATM    7  C3  UNL     1     -10.666  19.025  15.122  1.00  0.00     0.261 C
HETATM    8  C4  UNL     1     -12.052  18.482  15.403  1.00  0.00     0.260 C
HETATM    9  N3  UNL     1     -12.715  18.228  14.161  1.00  0.00    -0.072 N
ATOM     10  H31 UNL     1     -12.550  17.276  13.836  1.00  0.00     0.277 HD
ATOM     11  H32 UNL     1     -12.277  18.734  13.391  1.00  0.00     0.277 HD
HETATM   12  C5  UNL     1     -14.128  18.521  14.256  1.00  0.00     0.262 C
HETATM   13  C6  UNL     1     -14.556  19.366  13.068  1.00  0.00     0.300 C
HETATM   14  N4  UNL     1     -15.693  20.225  13.398  1.00  0.00     0.100 N
HETATM   15  C20 UNL     1     -15.301  21.570  13.012  1.00  0.00     0.292 C
HETATM   16  C21 UNL     1     -14.960  22.461  14.175  1.00  0.00     0.152 C
HETATM   17  N8  UNL     1     -13.956  21.958  15.058  1.00  0.00    -0.358 N
ATOM     18  H8  UNL     1     -14.253  21.279  15.759  1.00  0.00     0.162 HD
HETATM   19  C22 UNL     1     -12.582  22.316  15.047  1.00  0.00     0.235 C
HETATM   20  O2  UNL     1     -12.023  22.465  16.180  1.00  0.00    -0.272 OA
HETATM   21  C23 UNL     1     -11.876  22.497  13.780  1.00  0.00     0.220 C
ENDROOT
BRANCH  14  22
HETATM   22  C7  UNL     1     -16.796  19.749  12.581  1.00  0.00     0.374 C
BRANCH  22  23
HETATM   23  C8  UNL     1     -18.044  19.528  13.311  1.00  0.00     0.246 C
HETATM   24  O1  UNL     1     -19.091  20.192  13.076  1.00  0.00    -0.272 OA
HETATM   25  N5  UNL     1     -18.125  18.544  14.326  1.00  0.00    -0.355 N
ATOM     26  H5  UNL     1     -17.299  17.984  14.540  1.00  0.00     0.162 HD
BRANCH  25  27
HETATM   27  C9  UNL     1     -19.363  18.306  15.082  1.00  0.00     0.084 C
HETATM   28  C10 UNL     1     -18.991  18.348  16.522  1.00  0.00     0.025 C
HETATM   29  C11 UNL     1     -18.138  19.490  16.926  1.00  0.00     0.002 C
HETATM   30  C12 UNL     1     -18.732  20.464  17.898  1.00  0.00     0.002 C
HETATM   31  C13 UNL     1     -20.199  20.638  17.819  1.00  0.00     0.027 C
HETATM   32  C14 UNL     1     -20.954  19.990  18.956  1.00  0.00     0.232 C
HETATM   33  N6  UNL     1     -22.261  19.496  18.504  1.00  0.00    -0.074 N
HETATM   34  C15 UNL     1     -22.582  18.228  19.071  1.00  0.00     0.251 C
ATOM     35  H62 UNL     1     -22.997  20.178  18.684  1.00  0.00     0.277 HD
ATOM     36  H61 UNL     1     -22.312  19.468  17.486  1.00  0.00     0.277 HD
HETATM   37  C16 UNL     1     -22.591  17.066  18.136  1.00  0.00     0.146 C
HETATM   38  N7  UNL     1     -23.080  17.285  16.832  1.00  0.00    -0.401 N
HETATM   39  C17 UNL     1     -22.172  17.475  15.774  1.00  0.00     0.055 C
ATOM     40  H7  UNL     1     -24.085  17.306  16.656  1.00  0.00     0.158 HD
HETATM   41  C18 UNL     1     -21.061  16.501  15.611  1.00  0.00     0.046 C
HETATM   42  C19 UNL     1     -20.023  17.030  14.648  1.00  0.00     0.030 C
ENDBRANCH  25  27
ENDBRANCH  22  23
ENDBRANCH  14  22
TORSDOF 3
ENDMDL