MODEL 3
REMARK VINA RESULT: -7.852363446      5.693      8.346
REMARK  6 active torsions:
REMARK  status: ('A' for Active; 'I' for Inactive)
REMARK    1  A    between atoms: C2_2  and  O1_3
REMARK    2  A    between atoms: C2_2  and  C3_5
REMARK    3  A    between atoms: C3_5  and  O2_7
REMARK    4  A    between atoms: C3_5  and  C5_9
REMARK    5  A    between atoms: C5_9  and  O3_10
REMARK    6  A    between atoms: C5_9  and  C6_12
ROOT
HETATM    1  C6  UNL     1     -14.302  15.570  21.966  1.00  0.00     0.140 C
HETATM    2  C7  UNL     1     -14.424  16.248  20.619  1.00  0.00     0.195 C
HETATM    3  O4  UNL     1     -15.049  17.498  20.826  1.00  0.00    -0.387 OA
HETATM    4  C8  UNL     1     -14.716  18.289  19.730  1.00  0.00     0.195 C
HETATM    5  C9  UNL     1     -15.459  19.592  19.703  1.00  0.00     0.258 C
HETATM    6  N1  UNL     1     -16.194  19.786  18.460  1.00  0.00    -0.073 N
ATOM      7  H11 UNL     1     -15.565  20.010  17.689  1.00  0.00     0.277 HD
ATOM      8  H12 UNL     1     -16.736  20.650  18.480  1.00  0.00     0.277 HD
HETATM    9  C10 UNL     1     -17.031  18.642  18.147  1.00  0.00     0.234 C
HETATM   10  C11 UNL     1     -18.448  19.045  17.834  1.00  0.00     0.047 C
HETATM   11  C12 UNL     1     -19.382  18.269  18.750  1.00  0.00     0.124 C
HETATM   12  N2  UNL     1     -20.717  18.827  18.705  1.00  0.00    -0.360 N
ATOM     13  H2  UNL     1     -20.820  19.771  18.334  1.00  0.00     0.162 HD
HETATM   14  C13 UNL     1     -21.883  18.168  19.133  1.00  0.00     0.229 C
HETATM   15  O5  UNL     1     -22.847  18.792  19.679  1.00  0.00    -0.273 OA
HETATM   16  C14 UNL     1     -22.026  16.708  18.959  1.00  0.00     0.211 C
HETATM   17  S1  UNL     1     -22.151  15.967  20.587  1.00  0.00     0.023 S
HETATM   18  O6  UNL     1     -23.658  16.297  21.251  1.00  0.00    -0.258 OA
HETATM   19  C15 UNL     1     -21.848  14.219  20.499  1.00  0.00     0.109 C
HETATM   20  C16 UNL     1     -20.393  14.013  20.146  1.00  0.00     0.013 C
HETATM   21  C17 UNL     1     -19.510  13.971  21.354  1.00  0.00     0.001 C
HETATM   22  C18 UNL     1     -18.941  15.328  21.671  1.00  0.00     0.009 C
HETATM   23  C19 UNL     1     -17.472  15.423  21.259  1.00  0.00     0.103 C
HETATM   24  C20 UNL     1     -16.754  16.154  22.331  1.00  0.00     0.218 C
HETATM   25  O7  UNL     1     -17.404  17.096  22.884  1.00  0.00    -0.274 OA
HETATM   26  N3  UNL     1     -15.444  15.899  22.776  1.00  0.00    -0.352 N
ATOM     27  H3  UNL     1     -15.288  15.952  23.782  1.00  0.00     0.163 HD
ENDROOT
BRANCH   1  28
HETATM   28  C5  UNL     1     -14.022  14.115  21.812  1.00  0.00     0.179 C
BRANCH  28  29
HETATM   29  C3  UNL     1     -13.914  13.385  23.121  1.00  0.00     0.107 C
HETATM   30  C4  UNL     1     -15.224  12.915  23.652  1.00  0.00     0.051 C
BRANCH  29  31
HETATM   31  C2  UNL     1     -12.963  12.205  23.074  1.00  0.00     0.150 C
HETATM   32  C1  UNL     1     -13.414  11.047  23.930  1.00  0.00     0.042 C
BRANCH  31  33
HETATM   33  O1  UNL     1     -11.755  12.682  23.636  1.00  0.00    -0.393 OA
ATOM     34  H1  UNL     1     -11.056  12.410  23.053  1.00  0.00     0.210 HD
ENDBRANCH  31  33
ENDBRANCH  29  31
BRANCH  29  35
HETATM   35  O2  UNL     1     -13.345  14.272  24.064  1.00  0.00    -0.385 OA
ATOM     36  H2  UNL     1     -13.653  13.960  24.907  1.00  0.00     0.210 HD
ENDBRANCH  29  35
ENDBRANCH  28  29
BRANCH  28  37
HETATM   37  O3  UNL     1     -12.785  14.011  21.149  1.00  0.00    -0.390 OA
ATOM     38  H3  UNL     1     -12.115  13.830  21.797  1.00  0.00     0.210 HD
ENDBRANCH  28  37
ENDBRANCH   1  28
TORSDOF 6
ENDMDL