MODEL 5
REMARK VINA RESULT: -7.800828262      2.998      7.711
REMARK  5 active torsions:
REMARK  status: ('A' for Active; 'I' for Inactive)
REMARK    1  A    between atoms: N1_1  and  C1_5
REMARK    2  A    between atoms: C1_5  and  C2_6
REMARK    3  A    between atoms: C2_6  and  N2_8
REMARK    4  A    between atoms: N2_8  and  C3_10
REMARK    5  A    between atoms: C3_10  and  C4_11
ROOT
HETATM    1  C4  UNL     1     -21.090  20.042  17.852  1.00  0.00     0.169 C
HETATM    2  C5  UNL     1     -20.118  20.720  18.833  1.00  0.00     0.156 C
HETATM    3  N3  UNL     1     -18.842  20.059  18.638  1.00  0.00    -0.357 N
ATOM      4  H3  UNL     1     -18.781  19.243  18.027  1.00  0.00     0.162 HD
HETATM    5  C6  UNL     1     -17.660  20.546  19.298  1.00  0.00     0.235 C
HETATM    6  O1  UNL     1     -16.559  20.435  18.700  1.00  0.00    -0.272 OA
HETATM    7  C7  UNL     1     -17.709  21.166  20.648  1.00  0.00     0.225 C
HETATM    8  N4  UNL     1     -16.389  21.122  21.235  1.00  0.00    -0.352 N
ATOM      9  H4  UNL     1     -15.774  21.925  21.100  1.00  0.00     0.162 HD
HETATM   10  C8  UNL     1     -15.902  20.024  21.986  1.00  0.00     0.217 C
HETATM   11  O2  UNL     1     -14.680  19.704  21.987  1.00  0.00    -0.274 OA
HETATM   12  C9  UNL     1     -16.825  19.196  22.814  1.00  0.00     0.103 C
HETATM   13  C10 UNL     1     -17.238  17.929  22.126  1.00  0.00     0.009 C
HETATM   14  C11 UNL     1     -17.287  16.758  23.116  1.00  0.00     0.002 C
HETATM   15  C12 UNL     1     -17.067  15.451  22.385  1.00  0.00     0.020 C
HETATM   16  C13 UNL     1     -18.123  14.417  22.797  1.00  0.00     0.122 C
HETATM   17  N5  UNL     1     -18.516  13.631  21.646  1.00  0.00    -0.361 N
ATOM     18  H5  UNL     1     -18.254  12.647  21.608  1.00  0.00     0.162 HD
HETATM   19  C14 UNL     1     -19.248  14.181  20.580  1.00  0.00     0.217 C
HETATM   20  O3  UNL     1     -19.034  13.798  19.392  1.00  0.00    -0.274 OA
HETATM   21  C15 UNL     1     -20.284  15.220  20.828  1.00  0.00     0.103 C
HETATM   22  C16 UNL     1     -20.885  15.681  19.511  1.00  0.00     0.011 C
HETATM   23  C17 UNL     1     -21.904  16.744  19.811  1.00  0.00     0.020 C
HETATM   24  C18 UNL     1     -22.982  16.844  18.758  1.00  0.00     0.125 C
HETATM   25  N6  UNL     1     -22.476  17.079  17.438  1.00  0.00    -0.337 N
ATOM     26  H6  UNL     1     -23.077  16.800  16.664  1.00  0.00     0.164 HD
HETATM   27  C19 UNL     1     -21.225  17.658  17.096  1.00  0.00     0.361 C
HETATM   28  O4  UNL     1     -20.630  17.080  16.111  1.00  0.00    -0.239 OA
HETATM   29  O5  UNL     1     -20.715  18.725  17.757  1.00  0.00    -0.295 OA
ENDROOT
BRANCH   1  30
HETATM   30  C3  UNL     1     -22.464  20.311  18.347  1.00  0.00     0.154 C
BRANCH  30  31
HETATM   31  N2  UNL     1     -22.445  20.386  19.804  1.00  0.00    -0.380 N
ATOM     32  H2  UNL     1     -21.548  20.388  20.289  1.00  0.00     0.160 HD
BRANCH  31  33
HETATM   33  C2  UNL     1     -23.639  20.455  20.560  1.00  0.00     0.099 C
HETATM   34  S1  UNL     1     -24.807  21.501  20.138  1.00  0.00    -0.064 SA
BRANCH  33  35
HETATM   35  C1  UNL     1     -23.847  19.588  21.738  1.00  0.00     0.298 C
BRANCH  35  36
HETATM   36  N1  UNL     1     -24.029  20.326  22.947  1.00  0.00    -0.073 N
ATOM     37  H13 UNL     1     -24.971  20.712  23.000  1.00  0.00     0.274 HD
ATOM     38  H12 UNL     1     -24.058  19.703  23.753  1.00  0.00     0.274 HD
ATOM     39  H11 UNL     1     -23.328  21.056  23.075  1.00  0.00     0.274 HD
ENDBRANCH  35  36
ENDBRANCH  33  35
ENDBRANCH  31  33
ENDBRANCH  30  31
ENDBRANCH   1  30
TORSDOF 5
ENDMDL