MODEL 5
REMARK VINA RESULT: -6.974539527      5.567      7.900
REMARK  3 active torsions:
REMARK  status: ('A' for Active; 'I' for Inactive)
REMARK    1  A    between atoms: C2_2  and  C4_4
REMARK    2  A    between atoms: C4_4  and  N1_5
REMARK    3  A    between atoms: C9_16  and  C10_17
ROOT
HETATM    1  C10 UNL     1     -13.005  20.126  14.735  1.00  0.00     0.116 C
HETATM    2  N4  UNL     1     -14.365  20.240  15.080  1.00  0.00    -0.384 N
ATOM      3  H4  UNL     1     -15.108  20.317  14.386  1.00  0.00     0.159 HD
HETATM    4  C11 UNL     1     -14.619  20.236  16.497  1.00  0.00     0.146 C
HETATM    5  C12 UNL     1     -14.991  21.594  17.065  1.00  0.00     0.187 C
HETATM    6  O3  UNL     1     -15.661  21.313  18.280  1.00  0.00    -0.387 OA
HETATM    7  C13 UNL     1     -14.915  20.565  19.147  1.00  0.00     0.193 C
HETATM    8  C14 UNL     1     -15.318  19.141  19.297  1.00  0.00     0.193 C
HETATM    9  O4  UNL     1     -15.245  18.686  20.636  1.00  0.00    -0.387 OA
HETATM   10  C15 UNL     1     -15.458  17.310  20.644  1.00  0.00     0.195 C
HETATM   11  C16 UNL     1     -14.341  16.514  20.060  1.00  0.00     0.258 C
HETATM   12  N5  UNL     1     -14.814  15.752  18.910  1.00  0.00    -0.073 N
ATOM     13  H51 UNL     1     -15.388  16.334  18.299  1.00  0.00     0.277 HD
ATOM     14  H52 UNL     1     -15.513  15.065  19.192  1.00  0.00     0.277 HD
HETATM   15  C17 UNL     1     -13.754  15.128  18.173  1.00  0.00     0.232 C
HETATM   16  C18 UNL     1     -14.227  14.735  16.818  1.00  0.00     0.029 C
HETATM   17  C19 UNL     1     -13.619  15.541  15.692  1.00  0.00     0.021 C
HETATM   18  C20 UNL     1     -14.002  17.010  15.744  1.00  0.00     0.123 C
HETATM   19  N6  UNL     1     -12.794  17.798  15.869  1.00  0.00    -0.356 N
ATOM     20  H6  UNL     1     -12.185  17.539  16.646  1.00  0.00     0.162 HD
HETATM   21  C21 UNL     1     -12.340  18.849  15.094  1.00  0.00     0.267 C
HETATM   22  O5  UNL     1     -11.158  18.735  14.592  1.00  0.00    -0.266 OA
ENDROOT
BRANCH   1  23
HETATM   23  C9  UNL     1     -12.559  20.578  13.402  1.00  0.00     0.243 C
HETATM   24  N1  UNL     1     -13.019  19.916  12.238  1.00  0.00    -0.303 N
HETATM   25  C5  UNL     1     -12.342  19.842  10.952  1.00  0.00     0.243 C
HETATM   26  O1  UNL     1     -12.733  18.828  10.274  1.00  0.00    -0.271 OA
HETATM   27  C6  UNL     1     -11.318  20.631  10.221  1.00  0.00     0.225 C
HETATM   28  N2  UNL     1     -10.465  21.274  11.195  1.00  0.00    -0.351 N
HETATM   29  C7  UNL     1     -10.660  22.159  12.296  1.00  0.00     0.235 C
ATOM     30  H2  UNL     1      -9.482  21.036  11.062  1.00  0.00     0.163 HD
HETATM   31  O2  UNL     1      -9.553  22.412  12.898  1.00  0.00    -0.272 OA
HETATM   32  C8  UNL     1     -11.824  22.847  12.901  1.00  0.00     0.219 C
HETATM   33  N3  UNL     1     -12.895  21.979  13.240  1.00  0.00    -0.388 N
ATOM     34  H3  UNL     1     -13.848  22.322  13.362  1.00  0.00     0.156 HD
BRANCH  24  35
HETATM   35  C4  UNL     1     -14.230  19.212  12.152  1.00  0.00     0.073 C
BRANCH  35  36
HETATM   36  C2  UNL     1     -15.308  19.832  11.297  1.00  0.00     0.016 C
HETATM   37  C1  UNL     1     -16.109  20.864  12.098  1.00  0.00     0.015 C
HETATM   38  C3  UNL     1     -16.327  18.840  10.785  1.00  0.00     0.015 C
ENDBRANCH  35  36
ENDBRANCH  24  35
ENDBRANCH   1  23
TORSDOF 3
ENDMDL