MODEL 1
REMARK VINA RESULT: -6.401723713      0.000      0.000
REMARK  8 active torsions:
REMARK  status: ('A' for Active; 'I' for Inactive)
REMARK    1  A    between atoms: C1_2  and  N2_4
REMARK       I    between atoms: N2_4  and  C2_6
REMARK       I    between atoms: C2_6  and  N7_25
REMARK    2  A    between atoms: N3_7  and  C3_9
REMARK    3  A    between atoms: C3_9  and  C4_14
REMARK    4  A    between atoms: N4_10  and  O1_12
REMARK    5  A    between atoms: N5_18  and  S2_19
REMARK    6  A    between atoms: S2_19  and  N6_20
REMARK    7  A    between atoms: N7_25  and  C8_27
REMARK    8  A    between atoms: N8_30  and  O4_31
ROOT
HETATM    1  N2  UNL     1     -10.923  19.812  14.178  1.00  0.00    -0.169 N
ATOM      2  H2  UNL     1     -10.089  19.597  13.632  1.00  0.00     0.186 HD
HETATM    3  C2  UNL     1     -11.983  18.866  14.229  1.00  0.00     0.681 C
HETATM    4  N3  UNL     1     -12.603  18.626  13.123  1.00  0.00    -0.177 N
ATOM      5  H3  UNL     1     -13.369  17.954  13.125  1.00  0.00     0.185 HD
HETATM    6  N7  UNL     1     -12.307  18.243  15.455  1.00  0.00    -0.217 N
ATOM      7  H7  UNL     1     -12.026  18.721  16.311  1.00  0.00     0.178 HD
ENDROOT
BRANCH   1   8
HETATM    8  C1  UNL     1     -11.001  21.048  14.871  1.00  0.00     0.199 C
HETATM    9  N1  UNL     1     -12.163  21.423  15.573  1.00  0.00    -0.069 NA
HETATM   10  S1  UNL     1      -9.739  22.103  14.889  1.00  0.00    -0.044 SA
ENDBRANCH   1   8
BRANCH   4  11
HETATM   11  C3  UNL     1     -12.259  19.261  11.919  1.00  0.00     0.136 C
HETATM   12  N4  UNL     1     -11.387  18.670  11.140  1.00  0.00    -0.255 N
ATOM     13  H4  UNL     1     -10.996  17.777  11.441  1.00  0.00     0.195 HD
BRANCH  12  14
HETATM   14  O1  UNL     1     -10.978  19.181   9.958  1.00  0.00    -0.288 OA
ATOM     15  H1  UNL     1     -11.087  18.732   9.128  1.00  0.00     0.244 HD
ENDBRANCH  12  14
BRANCH  11  16
HETATM   16  C4  UNL     1     -12.791  20.539  11.446  1.00  0.00     0.145 C
HETATM   17  C5  UNL     1     -14.248  20.682  11.905  1.00  0.00     0.030 C
HETATM   18  C6  UNL     1     -14.423  22.197  11.733  1.00  0.00     0.018 C
HETATM   19  C7  UNL     1     -13.101  22.689  12.292  1.00  0.00     0.110 C
HETATM   20  N5  UNL     1     -12.117  21.691  11.984  1.00  0.00    -0.182 NA
BRANCH  20  21
HETATM   21  S2  UNL     1     -10.984  22.346  10.887  1.00  0.00     0.297 S
HETATM   22  O2  UNL     1      -9.757  21.446  10.915  1.00  0.00    -0.189 OA
HETATM   23  O3  UNL     1     -11.592  22.325   9.513  1.00  0.00    -0.189 OA
BRANCH  21  24
HETATM   24  N6  UNL     1     -10.487  23.935  11.332  1.00  0.00    -0.316 N
ATOM     25  H62 UNL     1     -11.146  24.688  11.530  1.00  0.00     0.170 HD
ATOM     26  H61 UNL     1      -9.472  24.026  11.371  1.00  0.00     0.170 HD
ENDBRANCH  21  24
ENDBRANCH  20  21
ENDBRANCH  11  16
ENDBRANCH   4  11
BRANCH   6  27
HETATM   27  C8  UNL     1     -12.991  17.004  15.595  1.00  0.00     0.152 C
HETATM   28  C9  UNL     1     -12.627  16.199  16.791  1.00  0.00     0.047 C
HETATM   29  C10 UNL     1     -13.820  16.377  17.707  1.00  0.00     0.126 C
HETATM   30  N8  UNL     1     -14.914  16.242  16.746  1.00  0.00    -0.162 NA
HETATM   31  C11 UNL     1     -14.469  17.153  15.687  1.00  0.00     0.159 C
HETATM   32  C12 UNL     1     -14.924  18.529  16.078  1.00  0.00     0.059 C
HETATM   33  O5  UNL     1     -15.111  16.743  14.526  1.00  0.00    -0.361 OA
HETATM   34  C13 UNL     1     -16.362  18.406  16.571  1.00  0.00     0.006 C
HETATM   35  C14 UNL     1     -17.118  17.624  15.517  1.00  0.00     0.026 C
HETATM   36  C15 UNL     1     -16.270  17.441  14.276  1.00  0.00     0.170 C
BRANCH  30  37
HETATM   37  O4  UNL     1     -14.830  14.974  16.255  1.00  0.00    -0.310 OA
ATOM     38  H4  UNL     1     -15.147  14.404  16.946  1.00  0.00     0.237 HD
ENDBRANCH  30  37
ENDBRANCH   6  27
TORSDOF 8
ENDMDL