MODEL 5
REMARK VINA RESULT: -7.883213850      7.769     12.454
REMARK  3 active torsions:
REMARK  status: ('A' for Active; 'I' for Inactive)
REMARK    1  A    between atoms: N5_21  and  C11_22
REMARK    2  A    between atoms: C11_22  and  C12_23
REMARK       I    between atoms: C12_23  and  N6_25
REMARK    3  A    between atoms: N6_25  and  C13_27
ROOT
HETATM    1  C1  UNL     1     -16.110  12.280  16.784  1.00  0.00     0.310 C
HETATM    2  N1  UNL     1     -17.493  12.532  16.520  1.00  0.00     0.088 N
HETATM    3  C2  UNL     1     -18.273  12.721  17.716  1.00  0.00     0.274 C
HETATM    4  C3  UNL     1     -19.148  13.936  17.590  1.00  0.00     0.057 C
HETATM    5  C4  UNL     1     -18.645  15.017  18.518  1.00  0.00     0.234 C
HETATM    6  N2  UNL     1     -19.338  16.277  18.236  1.00  0.00    -0.073 N
ATOM      7  H21 UNL     1     -19.365  16.876  19.061  1.00  0.00     0.277 HD
ATOM      8  H22 UNL     1     -20.339  16.128  18.111  1.00  0.00     0.277 HD
HETATM    9  C5  UNL     1     -18.770  16.970  17.110  1.00  0.00     0.259 C
HETATM   10  C6  UNL     1     -19.804  17.612  16.229  1.00  0.00     0.259 C
HETATM   11  N3  UNL     1     -20.964  16.743  16.174  1.00  0.00    -0.072 N
ATOM     12  H31 UNL     1     -21.371  16.622  17.102  1.00  0.00     0.277 HD
ATOM     13  H32 UNL     1     -20.687  15.780  15.985  1.00  0.00     0.277 HD
HETATM   14  C7  UNL     1     -21.953  17.182  15.239  1.00  0.00     0.259 C
HETATM   15  C8  UNL     1     -21.730  16.727  13.827  1.00  0.00     0.259 C
HETATM   16  N4  UNL     1     -20.530  15.960  13.630  1.00  0.00    -0.072 N
ATOM     17  H41 UNL     1     -19.797  16.248  14.277  1.00  0.00     0.277 HD
ATOM     18  H42 UNL     1     -20.075  16.205  12.751  1.00  0.00     0.277 HD
HETATM   19  C9  UNL     1     -20.776  14.542  13.715  1.00  0.00     0.252 C
HETATM   20  C10 UNL     1     -19.644  13.715  13.097  1.00  0.00     0.155 C
HETATM   21  N5  UNL     1     -19.524  12.541  13.903  1.00  0.00    -0.362 N
HETATM   22  C22 UNL     1     -18.218  12.116  14.210  1.00  0.00     0.093 C
HETATM   23  C23 UNL     1     -18.081  11.567  15.610  1.00  0.00     0.316 C
ENDROOT
BRANCH  21  24
HETATM   24  C11 UNL     1     -20.537  11.588  13.773  1.00  0.00     0.164 C
BRANCH  24  25
HETATM   25  C12 UNL     1     -20.391  10.580  12.701  1.00  0.00     0.257 C
HETATM   26  O1  UNL     1     -20.630  10.774  11.488  1.00  0.00    -0.267 OA
HETATM   27  N6  UNL     1     -19.946   9.289  13.087  1.00  0.00    -0.348 N
ATOM     28  H6  UNL     1     -19.749   9.124  14.075  1.00  0.00     0.163 HD
BRANCH  27  29
HETATM   29  C13 UNL     1     -19.752   8.191  12.160  1.00  0.00     0.031 C
HETATM   30  C14 UNL     1     -19.587   6.937  13.036  1.00  0.00     0.038 C
HETATM   31  C15 UNL     1     -18.502   8.306  11.365  1.00  0.00     0.032 C
HETATM   32  C16 UNL     1     -17.682   7.076  11.125  1.00  0.00     0.022 C
HETATM   33  C17 UNL     1     -17.286   6.830   9.656  1.00  0.00     0.119 C
HETATM   34  N7  UNL     1     -18.294   5.988   8.992  1.00  0.00    -0.394 N
HETATM   35  C18 UNL     1     -19.098   6.599   8.015  1.00  0.00     0.157 C
ATOM     36  H7  UNL     1     -18.405   5.002   9.232  1.00  0.00     0.159 HD
HETATM   37  C19 UNL     1     -20.565   6.327   8.059  1.00  0.00     0.256 C
HETATM   38  O2  UNL     1     -21.148   5.605   7.170  1.00  0.00    -0.267 OA
HETATM   39  N8  UNL     1     -21.431   6.855   9.105  1.00  0.00    -0.356 N
HETATM   40  C20 UNL     1     -20.705   7.347  10.196  1.00  0.00     0.125 C
ATOM     41  H8  UNL     1     -22.449   6.866   9.049  1.00  0.00     0.162 HD
HETATM   42  C21 UNL     1     -21.079   8.058  11.376  1.00  0.00     0.050 C
ENDBRANCH  27  29
ENDBRANCH  24  25
ENDBRANCH  21  24
TORSDOF 3
ENDMDL