MODEL 3
REMARK VINA RESULT: -8.139783780      7.178      8.355
REMARK  3 active torsions:
REMARK  status: ('A' for Active; 'I' for Inactive)
REMARK    1  A    between atoms: C1_2  and  C2_4
REMARK    2  A    between atoms: C4_9  and  N2_10
REMARK    3  A    between atoms: C16_33  and  C17_34
REMARK       I    between atoms: C17_34  and  N7_36
ROOT
HETATM    1  N2  UNL     1     -13.492  12.868  16.198  1.00  0.00    -0.377 N
HETATM    2  C5  UNL     1     -14.120  12.104  15.198  1.00  0.00     0.086 C
HETATM    3  C6  UNL     1     -15.565  12.323  14.969  1.00  0.00     0.276 C
HETATM    4  N3  UNL     1     -15.893  11.767  13.645  1.00  0.00    -0.069 N
ATOM      5  H31 UNL     1     -15.555  12.350  12.880  1.00  0.00     0.277 HD
ATOM      6  H32 UNL     1     -16.889  11.822  13.431  1.00  0.00     0.277 HD
HETATM    7  C7  UNL     1     -15.385  10.421  13.583  1.00  0.00     0.251 C
HETATM    8  C8  UNL     1     -15.767   9.711  12.316  1.00  0.00     0.141 C
HETATM    9  N4  UNL     1     -14.936   8.611  11.983  1.00  0.00    -0.418 N
ATOM     10  H4  UNL     1     -14.890   8.246  11.032  1.00  0.00     0.153 HD
HETATM   11  C9  UNL     1     -14.168   8.038  13.042  1.00  0.00     0.141 C
HETATM   12  C10 UNL     1     -12.712   8.396  13.029  1.00  0.00     0.251 C
HETATM   13  N5  UNL     1     -12.174   8.443  14.390  1.00  0.00    -0.072 N
ATOM     14  H51 UNL     1     -12.164   7.523  14.830  1.00  0.00     0.277 HD
ATOM     15  H52 UNL     1     -12.809   8.909  15.037  1.00  0.00     0.277 HD
HETATM   16  C11 UNL     1     -10.866   9.052  14.381  1.00  0.00     0.259 C
HETATM   17  C12 UNL     1     -10.384   9.391  15.749  1.00  0.00     0.259 C
HETATM   18  N6  UNL     1     -10.414  10.841  16.014  1.00  0.00    -0.072 N
ATOM     19  H61 UNL     1      -9.791  11.389  15.420  1.00  0.00     0.277 HD
ATOM     20  H62 UNL     1      -9.989  11.115  16.900  1.00  0.00     0.277 HD
HETATM   21  C13 UNL     1     -11.835  11.192  15.890  1.00  0.00     0.252 C
HETATM   22  C14 UNL     1     -12.082  12.646  16.209  1.00  0.00     0.150 C
ENDROOT
BRANCH   1  23
HETATM   23  C4  UNL     1     -13.972  14.138  16.493  1.00  0.00     0.176 C
HETATM   24  C3  UNL     1     -13.774  15.189  15.466  1.00  0.00     0.241 C
HETATM   25  N1  UNL     1     -14.160  16.507  15.907  1.00  0.00    -0.344 N
HETATM   26  O3  UNL     1     -13.328  15.013  14.329  1.00  0.00    -0.271 OA
HETATM   27  C2  UNL     1     -14.830  16.537  17.208  1.00  0.00     0.198 C
ATOM     28  H1  UNL     1     -13.981  17.349  15.358  1.00  0.00     0.163 HD
HETATM   29  C16 UNL     1     -13.950  15.906  18.282  1.00  0.00     0.113 C
HETATM   30  C15 UNL     1     -13.252  14.669  17.743  1.00  0.00     0.051 C
BRANCH  27  31
HETATM   31  C1  UNL     1     -14.967  17.990  17.574  1.00  0.00     0.197 C
HETATM   32  O1  UNL     1     -14.006  18.803  17.436  1.00  0.00    -0.646 OA
HETATM   33  O2  UNL     1     -16.190  18.395  18.066  1.00  0.00    -0.646 OA
ENDBRANCH  27  31
BRANCH  29  34
HETATM   34  C17 UNL     1     -14.803  15.443  19.403  1.00  0.00     0.226 C
HETATM   35  O4  UNL     1     -15.513  14.423  19.218  1.00  0.00    -0.273 OA
HETATM   36  N7  UNL     1     -14.830  16.115  20.660  1.00  0.00    -0.352 N
HETATM   37  C18 UNL     1     -14.057  17.294  20.956  1.00  0.00     0.125 C
HETATM   38  C22 UNL     1     -15.678  15.602  21.721  1.00  0.00     0.125 C
HETATM   39  C19 UNL     1     -14.941  18.407  21.515  1.00  0.00     0.020 C
HETATM   40  C20 UNL     1     -15.698  17.835  22.696  1.00  0.00     0.003 C
HETATM   41  C21 UNL     1     -16.607  16.736  22.135  1.00  0.00     0.020 C
ENDBRANCH  29  34
ENDBRANCH   1  23
TORSDOF 3
ENDMDL