MODEL 4
REMARK VINA RESULT: -8.130546314      7.411      8.541
REMARK  5 active torsions:
REMARK  status: ('A' for Active; 'I' for Inactive)
REMARK    1  A    between atoms: C2_3  and  C3_5
REMARK    2  A    between atoms: C3_5  and  N2_6
REMARK    3  A    between atoms: C3_5  and  C4_10
REMARK    4  A    between atoms: C4_10  and  C5_11
REMARK    5  A    between atoms: C5_11  and  C6_12
REMARK       I    between atoms: C6_12  and  N3_14
ROOT
HETATM    1  C1  UNL     1     -25.915  21.678  13.457  1.00  0.00     0.263 C
HETATM    2  N1  UNL     1     -25.826  20.950  12.287  1.00  0.00    -0.419 NA
HETATM    3  C2  UNL     1     -25.741  20.239  11.146  1.00  0.00     0.316 C
HETATM    4  O1  UNL     1     -26.157  20.550   9.996  1.00  0.00    -0.255 OA
ENDROOT
BRANCH   3   5
HETATM    5  C3  UNL     1     -25.062  18.873  11.187  1.00  0.00     0.289 C
BRANCH   5   6
HETATM    6  N2  UNL     1     -24.253  18.699  10.009  1.00  0.00    -0.065 N
ATOM      7  H23 UNL     1     -24.471  19.387   9.289  1.00  0.00     0.275 HD
ATOM      8  H22 UNL     1     -23.280  18.957  10.170  1.00  0.00     0.275 HD
ATOM      9  H21 UNL     1     -24.347  17.742   9.668  1.00  0.00     0.275 HD
ENDBRANCH   5   6
BRANCH   5  10
HETATM   10  C4  UNL     1     -24.493  18.512  12.482  1.00  0.00     0.053 C
BRANCH  10  11
HETATM   11  C5  UNL     1     -23.008  18.510  12.642  1.00  0.00     0.105 C
BRANCH  11  12
HETATM   12  C6  UNL     1     -22.725  19.045  14.003  1.00  0.00     0.220 C
HETATM   13  O2  UNL     1     -23.662  19.575  14.686  1.00  0.00    -0.273 OA
HETATM   14  N3  UNL     1     -21.424  18.989  14.583  1.00  0.00    -0.349 N
HETATM   15  C7  UNL     1     -21.207  19.530  15.907  1.00  0.00     0.153 C
HETATM   16  C22 UNL     1     -20.349  18.388  13.867  1.00  0.00     0.152 C
HETATM   17  C8  UNL     1     -22.027  18.807  16.976  1.00  0.00     0.252 C
HETATM   18  N4  UNL     1     -22.558  19.812  17.895  1.00  0.00    -0.074 N
HETATM   19  C9  UNL     1     -22.622  19.379  19.254  1.00  0.00     0.234 C
ATOM     20  H42 UNL     1     -22.029  20.681  17.821  1.00  0.00     0.277 HD
ATOM     21  H41 UNL     1     -23.471  20.140  17.580  1.00  0.00     0.277 HD
HETATM   22  C10 UNL     1     -21.353  19.639  20.041  1.00  0.00     0.055 C
HETATM   23  C11 UNL     1     -21.043  21.122  20.044  1.00  0.00     0.233 C
HETATM   24  N5  UNL     1     -19.640  21.417  20.127  1.00  0.00    -0.075 N
HETATM   25  C12 UNL     1     -18.908  20.262  20.544  1.00  0.00     0.232 C
ATOM     26  H52 UNL     1     -19.281  21.797  19.251  1.00  0.00     0.277 HD
ATOM     27  H51 UNL     1     -19.456  22.220  20.728  1.00  0.00     0.277 HD
HETATM   28  C13 UNL     1     -17.619  20.628  21.262  1.00  0.00     0.029 C
HETATM   29  C14 UNL     1     -16.839  19.373  21.563  1.00  0.00     0.029 C
HETATM   30  C15 UNL     1     -15.465  19.488  20.931  1.00  0.00     0.232 C
HETATM   31  N6  UNL     1     -15.509  19.202  19.507  1.00  0.00    -0.075 N
HETATM   32  C16 UNL     1     -14.402  18.319  19.211  1.00  0.00     0.233 C
ATOM     33  H62 UNL     1     -16.408  18.829  19.203  1.00  0.00     0.277 HD
ATOM     34  H61 UNL     1     -15.513  20.043  18.930  1.00  0.00     0.277 HD
HETATM   35  C17 UNL     1     -14.565  17.530  17.956  1.00  0.00     0.055 C
HETATM   36  C18 UNL     1     -15.343  18.239  16.869  1.00  0.00     0.234 C
HETATM   37  N7  UNL     1     -16.745  18.259  17.160  1.00  0.00    -0.073 N
HETATM   38  C19 UNL     1     -17.485  17.801  15.976  1.00  0.00     0.258 C
ATOM     39  H72 UNL     1     -16.976  17.722  17.995  1.00  0.00     0.277 HD
ATOM     40  H71 UNL     1     -17.061  19.172  17.486  1.00  0.00     0.277 HD
HETATM   41  C20 UNL     1     -17.311  18.773  14.834  1.00  0.00     0.195 C
HETATM   42  O3  UNL     1     -18.399  19.603  14.658  1.00  0.00    -0.388 OA
HETATM   43  C21 UNL     1     -19.178  19.296  13.579  1.00  0.00     0.187 C
ENDBRANCH  11  12
ENDBRANCH  10  11
ENDBRANCH   5  10
ENDBRANCH   3   5
TORSDOF 4
ENDMDL