MODEL 4
REMARK VINA RESULT: -7.587084200      4.042      8.440
REMARK  2 active torsions:
REMARK  status: ('A' for Active; 'I' for Inactive)
REMARK       I    between atoms: N5_21  and  C11_22
REMARK    1  A    between atoms: C11_22  and  C12_24
REMARK    2  A    between atoms: C12_24  and  N6_25
ROOT
HETATM    1  C1  UNL     1     -17.893  16.717  12.329  1.00  0.00     0.221 C
HETATM    2  N1  UNL     1     -17.302  16.304  13.231  1.00  0.00    -0.465 NA
HETATM    3  C2  UNL     1     -16.588  15.784  14.357  1.00  0.00     0.180 C
HETATM    4  C3  UNL     1     -17.209  14.452  14.665  1.00  0.00     0.068 C
HETATM    5  C4  UNL     1     -16.630  13.301  13.925  1.00  0.00     0.235 C
HETATM    6  N2  UNL     1     -15.432  12.739  14.432  1.00  0.00    -0.073 N
ATOM      7  H21 UNL     1     -14.804  13.471  14.761  1.00  0.00     0.277 HD
ATOM      8  H22 UNL     1     -14.867  12.356  13.673  1.00  0.00     0.277 HD
HETATM    9  C5  UNL     1     -15.644  11.733  15.475  1.00  0.00     0.259 C
HETATM   10  C6  UNL     1     -14.362  11.247  16.049  1.00  0.00     0.259 C
HETATM   11  N3  UNL     1     -13.957  11.957  17.277  1.00  0.00    -0.072 N
ATOM     12  H31 UNL     1     -13.033  11.698  17.620  1.00  0.00     0.277 HD
ATOM     13  H32 UNL     1     -14.474  11.673  18.109  1.00  0.00     0.277 HD
HETATM   14  C7  UNL     1     -14.091  13.349  16.953  1.00  0.00     0.259 C
HETATM   15  C8  UNL     1     -13.573  14.322  17.953  1.00  0.00     0.259 C
HETATM   16  N4  UNL     1     -14.527  15.423  18.134  1.00  0.00    -0.072 N
ATOM     17  H41 UNL     1     -14.766  15.539  19.119  1.00  0.00     0.277 HD
ATOM     18  H42 UNL     1     -15.445  15.174  17.768  1.00  0.00     0.277 HD
HETATM   19  C9  UNL     1     -14.064  16.672  17.564  1.00  0.00     0.252 C
HETATM   20  C10 UNL     1     -14.394  16.712  16.122  1.00  0.00     0.153 C
HETATM   21  N5  UNL     1     -15.536  17.523  15.749  1.00  0.00    -0.346 N
HETATM   22  C11 UNL     1     -15.517  18.921  15.656  1.00  0.00     0.237 C
HETATM   23  O1  UNL     1     -16.586  19.522  15.326  1.00  0.00    -0.272 OA
HETATM   24  C22 UNL     1     -16.755  16.795  15.455  1.00  0.00     0.165 C
ENDROOT
BRANCH  22  25
HETATM   25  C12 UNL     1     -14.286  19.714  15.934  1.00  0.00     0.224 C
BRANCH  25  26
HETATM   26  N6  UNL     1     -13.803  20.264  14.717  1.00  0.00    -0.382 N
HETATM   27  C13 UNL     1     -13.130  19.415  13.840  1.00  0.00     0.077 C
HETATM   28  C14 UNL     1     -11.882  19.936  13.182  1.00  0.00     0.158 C
HETATM   29  N7  UNL     1     -12.253  20.545  11.936  1.00  0.00    -0.417 N
HETATM   30  C15 UNL     1     -11.183  20.777  11.025  1.00  0.00     0.115 C
ATOM     31  H7  UNL     1     -13.217  20.795  11.718  1.00  0.00     0.153 HD
HETATM   32  C16 UNL     1     -10.989  22.228  10.681  1.00  0.00     0.046 C
HETATM   33  C17 UNL     1     -12.232  22.925  10.240  1.00  0.00     0.234 C
HETATM   34  N8  UNL     1     -13.377  22.705  11.063  1.00  0.00    -0.073 N
HETATM   35  C18 UNL     1     -14.018  23.935  11.485  1.00  0.00     0.259 C
ATOM     36  H82 UNL     1     -14.044  22.087  10.601  1.00  0.00     0.277 HD
ATOM     37  H81 UNL     1     -13.140  22.123  11.867  1.00  0.00     0.277 HD
HETATM   38  C19 UNL     1     -14.978  23.695  12.631  1.00  0.00     0.259 C
HETATM   39  N9  UNL     1     -14.325  23.705  13.911  1.00  0.00    -0.072 N
HETATM   40  C20 UNL     1     -14.630  22.503  14.676  1.00  0.00     0.252 C
ATOM     41  H92 UNL     1     -13.319  23.841  13.815  1.00  0.00     0.277 HD
ATOM     42  H91 UNL     1     -14.550  24.549  14.437  1.00  0.00     0.277 HD
HETATM   43  C21 UNL     1     -13.396  21.627  14.785  1.00  0.00     0.150 C
ENDBRANCH  25  26
ENDBRANCH  22  25
TORSDOF 2
ENDMDL