MODEL 5
REMARK VINA RESULT: -6.846562211      6.968      9.092
REMARK  5 active torsions:
REMARK  status: ('A' for Active; 'I' for Inactive)
REMARK    1  A    between atoms: N1_1  and  C1_5
REMARK    2  A    between atoms: C1_5  and  C2_6
REMARK    3  A    between atoms: C1_5  and  C3_9
REMARK       I    between atoms: C3_9  and  N2_11
REMARK    4  A    between atoms: C7_15  and  C8_16
REMARK    5  A    between atoms: C8_16  and  C9_17
ROOT
HETATM    1  C3  UNL     1     -19.115  10.250  13.063  1.00  0.00     0.261 C
HETATM    2  O3  UNL     1     -17.994   9.644  12.861  1.00  0.00    -0.270 OA
HETATM    3  N2  UNL     1     -19.035  11.452  13.790  1.00  0.00    -0.346 N
HETATM    4  C4  UNL     1     -17.736  11.916  14.332  1.00  0.00     0.153 C
HETATM    5  C5  UNL     1     -17.754  11.871  15.812  1.00  0.00    -0.010 C
HETATM    6  C6  UNL     1     -16.805  11.814  16.660  1.00  0.00    -0.015 C
HETATM    7  C7  UNL     1     -15.335  11.771  16.557  1.00  0.00     0.110 C
HETATM    8  C10 UNL     1     -14.689  12.814  17.388  1.00  0.00     0.225 C
HETATM    9  O6  UNL     1     -13.788  12.432  18.192  1.00  0.00    -0.273 OA
HETATM   10  N3  UNL     1     -14.967  14.196  17.383  1.00  0.00    -0.359 N
ATOM     11  H3  UNL     1     -14.174  14.815  17.208  1.00  0.00     0.162 HD
HETATM   12  C11 UNL     1     -16.245  14.840  17.598  1.00  0.00     0.150 C
HETATM   13  C12 UNL     1     -16.573  15.791  16.441  1.00  0.00     0.251 C
HETATM   14  N4  UNL     1     -17.572  16.714  16.972  1.00  0.00    -0.073 N
ATOM     15  H41 UNL     1     -17.441  16.867  17.972  1.00  0.00     0.277 HD
ATOM     16  H42 UNL     1     -18.498  16.285  16.995  1.00  0.00     0.277 HD
HETATM   17  C13 UNL     1     -17.593  17.973  16.243  1.00  0.00     0.242 C
HETATM   18  C14 UNL     1     -19.027  18.215  15.831  1.00  0.00     0.101 C
HETATM   19  S1  UNL     1     -19.097  18.428  14.022  1.00  0.00    -0.166 SA
HETATM   20  C15 UNL     1     -20.828  18.285  13.537  1.00  0.00     0.101 C
HETATM   21  C16 UNL     1     -21.254  16.851  13.570  1.00  0.00     0.242 C
HETATM   22  N5  UNL     1     -20.119  15.930  13.722  1.00  0.00    -0.074 N
ATOM     23  H51 UNL     1     -19.589  16.074  14.582  1.00  0.00     0.277 HD
ATOM     24  H52 UNL     1     -19.353  16.115  13.074  1.00  0.00     0.277 HD
HETATM   25  C17 UNL     1     -20.672  14.605  13.599  1.00  0.00     0.234 C
HETATM   26  C18 UNL     1     -19.997  13.609  14.555  1.00  0.00     0.047 C
HETATM   27  C19 UNL     1     -20.217  12.241  13.992  1.00  0.00     0.128 C
ENDROOT
BRANCH   1  28
HETATM   28  C1  UNL     1     -20.274   9.571  12.491  1.00  0.00     0.374 C
BRANCH  28  29
HETATM   29  N1  UNL     1     -20.983  10.237  11.455  1.00  0.00    -0.056 N
ATOM     30  H13 UNL     1     -20.365  10.802  10.872  1.00  0.00     0.275 HD
ATOM     31  H12 UNL     1     -21.312   9.588  10.740  1.00  0.00     0.275 HD
ATOM     32  H11 UNL     1     -21.745  10.789  11.849  1.00  0.00     0.275 HD
ENDBRANCH  28  29
BRANCH  28  33
HETATM   33  C2  UNL     1     -19.947   8.165  12.073  1.00  0.00     0.214 C
HETATM   34  O1  UNL     1     -19.751   7.960  10.856  1.00  0.00    -0.646 OA
HETATM   35  O2  UNL     1     -19.858   7.124  12.967  1.00  0.00    -0.646 OA
ENDBRANCH  28  33
ENDBRANCH   1  28
BRANCH   7  36
HETATM   36  C8  UNL     1     -14.764  11.696  15.178  1.00  0.00     0.131 C
BRANCH  36  37
HETATM   37  C9  UNL     1     -13.934  10.466  15.114  1.00  0.00     0.173 C
HETATM   38  O4  UNL     1     -13.883   9.799  14.049  1.00  0.00    -0.648 OA
HETATM   39  O5  UNL     1     -13.203  10.010  16.190  1.00  0.00    -0.648 OA
ENDBRANCH  36  37
ENDBRANCH   7  36
TORSDOF 5
ENDMDL