MODEL 1
REMARK VINA RESULT: -8.270440097      0.000      0.000
REMARK  9 active torsions:
REMARK  status: ('A' for Active; 'I' for Inactive)
REMARK    1  A    between atoms: N1_2  and  C2_4
REMARK    2  A    between atoms: C3_7  and  C4_8
REMARK    3  A    between atoms: C8_13  and  C9_14
REMARK    4  A    between atoms: C9_14  and  N3_15
REMARK    5  A    between atoms: N3_15  and  S1_17
REMARK    6  A    between atoms: S1_17  and  C10_20
REMARK    7  A    between atoms: C10_20  and  O4_21
REMARK    8  A    between atoms: C11_25  and  O5_26
REMARK    9  A    between atoms: C13_30  and  N6_31
ROOT
HETATM    1  C4  UNL     1      15.018 -46.723   8.543  1.00  0.00     0.063 A
HETATM    2  C5  UNL     1      15.557 -45.573   8.024  1.00  0.00     0.058 A
HETATM    3  C6  UNL     1      15.399 -45.137   6.717  1.00  0.00     0.093 A
HETATM    4  O1  UNL     1      15.876 -44.148   6.007  1.00  0.00    -0.354 OA
HETATM    5  C7  UNL     1      16.358 -43.154   5.312  1.00  0.00     0.210 C
HETATM    6  C8  UNL     1      14.570 -46.029   5.955  1.00  0.00     0.063 A
HETATM    7  N4  UNL     1      14.097 -47.100   6.492  1.00  0.00    -0.336 N
ATOM      8  H4  UNL     1      13.524 -47.684   5.882  1.00  0.00     0.168 HD
HETATM    9  C11 UNL     1      14.259 -47.552   7.747  1.00  0.00     0.156 A
ENDROOT
BRANCH   6  10
HETATM   10  C9  UNL     1      13.869 -45.427   4.689  1.00  0.00     0.192 C
BRANCH  10  11
HETATM   11  N3  UNL     1      14.198 -46.272   3.629  1.00  0.00    -0.312 N
ATOM     12  H3  UNL     1      14.282 -45.759   2.751  1.00  0.00     0.172 HD
BRANCH  11  13
HETATM   13  S1  UNL     1      14.479 -47.839   3.430  1.00  0.00     0.248 S
HETATM   14  O2  UNL     1      13.240 -48.695   3.605  1.00  0.00    -0.204 OA
HETATM   15  O3  UNL     1      15.606 -48.500   4.169  1.00  0.00    -0.204 OA
BRANCH  13  16
HETATM   16  C10 UNL     1      14.907 -48.047   1.642  1.00  0.00     0.326 C
BRANCH  16  17
HETATM   17  O4  UNL     1      15.841 -49.103   1.666  1.00  0.00    -0.384 OA
ATOM     18  H4  UNL     1      16.554 -48.765   1.137  1.00  0.00     0.210 HD
ENDBRANCH  16  17
ENDBRANCH  13  16
ENDBRANCH  11  13
ENDBRANCH  10  11
ENDBRANCH   6  10
BRANCH   1  19
HETATM   19  C3  UNL     1      15.246 -47.050   9.946  1.00  0.00     0.151 A
HETATM   20  N2  UNL     1      15.481 -48.283  10.375  1.00  0.00    -0.175 N
HETATM   21  C2  UNL     1      15.614 -48.604  11.675  1.00  0.00     0.693 A
ATOM     22  H2  UNL     1      15.565 -49.026   9.682  1.00  0.00     0.186 HD
HETATM   23  N7  UNL     1      15.493 -47.600  12.619  1.00  0.00    -0.023 N
HETATM   24  C13 UNL     1      15.258 -46.378  12.240  1.00  0.00     0.692 A
ATOM     25  H7  UNL     1      15.588 -47.817  13.611  1.00  0.00     0.203 HD
HETATM   26  N5  UNL     1      15.145 -46.101  10.892  1.00  0.00    -0.175 N
ATOM     27  H5  UNL     1      14.978 -45.137  10.603  1.00  0.00     0.186 HD
BRANCH  21  28
HETATM   28  N1  UNL     1      16.053 -49.681  12.194  1.00  0.00    -0.230 N
HETATM   29  C1  UNL     1      15.721 -50.867  11.133  1.00  0.00     0.165 C
ATOM     30  H1  UNL     1      16.519 -49.781  13.096  1.00  0.00     0.177 HD
ENDBRANCH  21  28
BRANCH  24  31
HETATM   31  N6  UNL     1      15.157 -45.345  13.084  1.00  0.00    -0.234 N
ATOM     32  H62 UNL     1      15.943 -44.751  13.348  1.00  0.00     0.174 HD
ATOM     33  H61 UNL     1      14.228 -45.135  13.449  1.00  0.00     0.174 HD
ENDBRANCH  24  31
ENDBRANCH   1  19
BRANCH   9  34
HETATM   34  O5  UNL     1      13.667 -48.746   8.063  1.00  0.00    -0.340 OA
HETATM   35  C12 UNL     1      12.801 -49.556   7.362  1.00  0.00     0.211 C
ENDBRANCH   9  34
TORSDOF 9
ENDMDL