MODEL 1
REMARK VINA RESULT: -6.043131144      0.000      0.000
REMARK  11 active torsions:
REMARK  status: ('A' for Active; 'I' for Inactive)
REMARK    1  A    between atoms: O1_2  and  C2_3
REMARK    2  A    between atoms: C6_8  and  N2_11
REMARK    3  A    between atoms: C9_16  and  N4_17
REMARK    4  A    between atoms: N4_17  and  C10_18
REMARK    5  A    between atoms: N4_17  and  C12_22
REMARK    6  A    between atoms: C10_18  and  C11_19
REMARK    7  A    between atoms: C11_19  and  O3_20
REMARK    8  A    between atoms: C12_22  and  C13_23
REMARK    9  A    between atoms: C13_23  and  O4_24
REMARK   10  A    between atoms: C14_28  and  N6_29
REMARK   11  A    between atoms: N6_29  and  N7_31
ROOT
HETATM    1  C2  UNL     1      15.277 -48.340  10.708  1.00  0.00     0.059 C
HETATM    2  C3  UNL     1      15.781 -49.288   9.944  1.00  0.00     0.017 C
HETATM    3  C4  UNL     1      16.282 -50.620  10.455  1.00  0.00     0.055 C
HETATM    4  C5  UNL     1      15.777 -48.832   8.566  1.00  0.00     0.201 C
HETATM    5  O2  UNL     1      16.510 -49.347   7.657  1.00  0.00    -0.289 OA
HETATM    6  C6  UNL     1      14.797 -47.720   8.477  1.00  0.00     0.206 C
HETATM    7  C7  UNL     1      13.432 -48.226   8.242  1.00  0.00     0.100 C
HETATM    8  N1  UNL     1      12.363 -48.600   8.065  1.00  0.00    -0.194 NA
HETATM    9  C15 UNL     1      14.884 -47.175   9.910  1.00  0.00     0.121 C
ENDROOT
BRANCH   6  10
HETATM   10  N2  UNL     1      15.244 -46.746   7.580  1.00  0.00    -0.195 N
HETATM   11  C8  UNL     1      15.366 -46.655   6.333  1.00  0.00     0.709 A
HETATM   12  N3  UNL     1      15.866 -45.488   5.791  1.00  0.00    -0.021 N
HETATM   13  N8  UNL     1      15.028 -47.651   5.509  1.00  0.00    -0.020 N
HETATM   14  C9  UNL     1      16.016 -45.341   4.484  1.00  0.00     0.709 A
ATOM     15  H3  UNL     1      16.126 -44.721   6.411  1.00  0.00     0.203 HD
HETATM   16  N5  UNL     1      15.677 -46.339   3.668  1.00  0.00    -0.020 N
HETATM   17  C14 UNL     1      15.190 -47.481   4.164  1.00  0.00     0.725 A
ATOM     18  H5  UNL     1      15.791 -46.231   2.660  1.00  0.00     0.203 HD
ATOM     19  H8  UNL     1      14.655 -48.525   5.879  1.00  0.00     0.203 HD
ATOM     20  H2  UNL     1      15.547 -45.897   8.057  1.00  0.00     0.180 HD
BRANCH  14  21
HETATM   21  N4  UNL     1      16.487 -44.118   3.948  1.00  0.00    -0.213 N
BRANCH  21  22
HETATM   22  C10 UNL     1      15.481 -43.238   3.324  1.00  0.00     0.167 C
BRANCH  22  23
HETATM   23  C11 UNL     1      14.119 -43.882   3.259  1.00  0.00     0.184 C
BRANCH  23  24
HETATM   24  O3  UNL     1      13.678 -43.949   4.600  1.00  0.00    -0.399 OA
ATOM     25  H3  UNL     1      12.852 -44.418   4.567  1.00  0.00     0.209 HD
ENDBRANCH  23  24
ENDBRANCH  22  23
ENDBRANCH  21  22
BRANCH  21  26
HETATM   26  C12 UNL     1      17.809 -43.609   3.939  1.00  0.00     0.167 C
BRANCH  26  27
HETATM   27  C13 UNL     1      18.268 -42.739   5.036  1.00  0.00     0.184 C
BRANCH  27  28
HETATM   28  O4  UNL     1      18.991 -43.368   6.047  1.00  0.00    -0.399 OA
ATOM     29  H4  UNL     1      19.600 -42.817   6.525  1.00  0.00     0.209 HD
ENDBRANCH  27  28
ENDBRANCH  26  27
ENDBRANCH  21  26
ENDBRANCH  14  21
BRANCH  17  30
HETATM   30  N6  UNL     1      14.852 -48.469   3.409  1.00  0.00    -0.138 N
ATOM     31  H6  UNL     1      14.136 -49.122   3.724  1.00  0.00     0.205 HD
BRANCH  30  32
HETATM   32  N7  UNL     1      15.447 -48.652   2.184  1.00  0.00    -0.331 N
ATOM     33  H72 UNL     1      16.116 -49.414   2.074  1.00  0.00     0.177 HD
ATOM     34  H71 UNL     1      15.226 -48.038   1.401  1.00  0.00     0.177 HD
ENDBRANCH  30  32
ENDBRANCH  17  30
ENDBRANCH   6  10
BRANCH   1  35
HETATM   35  O1  UNL     1      15.133 -48.431  12.112  1.00  0.00    -0.359 OA
HETATM   36  C1  UNL     1      15.349 -47.296  12.903  1.00  0.00     0.209 C
ENDBRANCH   1  35
TORSDOF 11
ENDMDL