MODEL 1
REMARK VINA RESULT: -8.850663023      0.000      0.000
REMARK  11 active torsions:
REMARK  status: ('A' for Active; 'I' for Inactive)
REMARK    1  A    between atoms: C2_2  and  C5_5
REMARK    2  A    between atoms: C5_5  and  C6_6
REMARK    3  A    between atoms: N1_8  and  C8_9
REMARK    4  A    between atoms: C9_12  and  N3_13
REMARK    5  A    between atoms: N3_13  and  O1_15
REMARK    6  A    between atoms: O1_15  and  C10_16
REMARK    7  A    between atoms: C10_16  and  C11_17
REMARK    8  A    between atoms: C11_17  and  O2_18
REMARK    9  A    between atoms: O2_18  and  N4_19
REMARK   10  A    between atoms: C12_24  and  N6_25
REMARK   11  A    between atoms: N6_25  and  O3_27
ROOT
HETATM    1  C8  UNL     1      15.134 -47.978   9.201  1.00  0.00     0.721 A
HETATM    2  N2  UNL     1      15.462 -49.115   9.842  1.00  0.00    -0.019 N
ATOM      3  H2  UNL     1      15.513 -49.989   9.319  1.00  0.00     0.203 HD
HETATM    4  C9  UNL     1      15.723 -49.118  11.162  1.00  0.00     0.731 A
HETATM    5  N5  UNL     1      15.669 -47.991  11.895  1.00  0.00    -0.018 N
ATOM      6  H5  UNL     1      15.869 -48.003  12.896  1.00  0.00     0.203 HD
HETATM    7  C12 UNL     1      15.343 -46.848  11.266  1.00  0.00     0.731 A
HETATM    8  N7  UNL     1      15.084 -46.854   9.947  1.00  0.00    -0.019 N
ATOM      9  H7  UNL     1      14.839 -45.975   9.492  1.00  0.00     0.203 HD
ENDROOT
BRANCH   1  10
HETATM   10  N1  UNL     1      14.851 -47.937   7.803  1.00  0.00    -0.105 N
HETATM   11  C7  UNL     1      15.385 -47.048   6.981  1.00  0.00     0.137 A
HETATM   12  C6  UNL     1      15.112 -46.995   5.585  1.00  0.00     0.046 A
HETATM   13  C14 UNL     1      14.254 -47.918   5.086  1.00  0.00     0.260 A
HETATM   14  N8  UNL     1      13.713 -48.829   5.957  1.00  0.00    -0.274 N
HETATM   15  O5  UNL     1      13.887 -48.035   3.885  1.00  0.00    -0.267 OA
HETATM   16  C13 UNL     1      14.006 -48.832   7.262  1.00  0.00     0.347 A
ATOM     17  H8  UNL     1      13.064 -49.529   5.597  1.00  0.00     0.173 HD
HETATM   18  O4  UNL     1      13.496 -49.686   8.064  1.00  0.00    -0.245 OA
BRANCH  12  19
HETATM   19  C5  UNL     1      15.792 -45.951   4.846  1.00  0.00     0.000 C
BRANCH  19  20
HETATM   20  C2  UNL     1      15.288 -44.589   4.699  1.00  0.00    -0.033 C
HETATM   21  C1  UNL     1      16.492 -43.790   4.042  1.00  0.00     0.018 C
HETATM   22  C3  UNL     1      15.058 -43.812   5.975  1.00  0.00     0.018 C
HETATM   23  C4  UNL     1      14.178 -44.370   3.710  1.00  0.00     0.018 C
ENDBRANCH  19  20
ENDBRANCH  12  19
ENDBRANCH   1  10
BRANCH   4  24
HETATM   24  N3  UNL     1      16.039 -50.214  11.788  1.00  0.00    -0.095 N
ATOM     25  H3  UNL     1      16.280 -50.164  12.778  1.00  0.00     0.213 HD
BRANCH  24  26
HETATM   26  O1  UNL     1      16.059 -51.431  11.162  1.00  0.00    -0.264 OA
BRANCH  26  27
HETATM   27  C10 UNL     1      17.058 -52.402  11.439  1.00  0.00     0.230 C
BRANCH  27  28
HETATM   28  C11 UNL     1      16.386 -53.676  11.911  1.00  0.00     0.229 C
BRANCH  28  29
HETATM   29  O2  UNL     1      17.386 -54.645  12.014  1.00  0.00    -0.285 OA
BRANCH  29  30
HETATM   30  N4  UNL     1      17.960 -54.905  10.823  1.00  0.00    -0.311 N
ATOM     31  H42 UNL     1      17.430 -55.011   9.959  1.00  0.00     0.184 HD
ATOM     32  H41 UNL     1      18.975 -54.981  10.898  1.00  0.00     0.184 HD
ENDBRANCH  29  30
ENDBRANCH  28  29
ENDBRANCH  27  28
ENDBRANCH  26  27
ENDBRANCH  24  26
ENDBRANCH   4  24
BRANCH   7  33
HETATM   33  N6  UNL     1      15.287 -45.744  11.964  1.00  0.00    -0.098 N
ATOM     34  H6  UNL     1      15.216 -44.846  11.487  1.00  0.00     0.213 HD
BRANCH  33  35
HETATM   35  O3  UNL     1      15.324 -45.789  13.333  1.00  0.00    -0.276 OA
ATOM     36  H3  UNL     1      15.210 -44.995  13.842  1.00  0.00     0.245 HD
ENDBRANCH  33  35
ENDBRANCH   7  33
TORSDOF 11
ENDMDL