MODEL 1
REMARK VINA RESULT: -8.861921162      0.000      0.000
REMARK  8 active torsions:
REMARK  status: ('A' for Active; 'I' for Inactive)
REMARK    1  A    between atoms: C3_10  and  N4_11
REMARK    2  A    between atoms: N4_11  and  N5_13
REMARK    3  A    between atoms: C4_15  and  C5_16
REMARK    4  A    between atoms: C8_19  and  O1_20
REMARK    5  A    between atoms: N6_22  and  C9_23
REMARK    6  A    between atoms: C9_23  and  C10_24
REMARK    7  A    between atoms: C10_24  and  C11_25
REMARK    8  A    between atoms: C11_25  and  N7_26
ROOT
HETATM    1  C5  UNL     1      14.486 -48.147   5.138  1.00  0.00     0.049 A
HETATM    2  C6  UNL     1      14.974 -49.075   4.215  1.00  0.00     0.023 A
HETATM    3  C7  UNL     1      15.151 -48.681   2.907  1.00  0.00     0.057 A
HETATM    4  C8  UNL     1      14.870 -47.406   2.460  1.00  0.00     0.144 A
HETATM    5  N6  UNL     1      14.397 -46.517   3.370  1.00  0.00    -0.294 N
HETATM    6  C16 UNL     1      14.216 -46.880   4.650  1.00  0.00     0.261 A
HETATM    7  O2  UNL     1      13.773 -46.039   5.490  1.00  0.00    -0.267 OA
ENDROOT
BRANCH   1   8
HETATM    8  C4  UNL     1      14.281 -48.517   6.519  1.00  0.00     0.124 C
HETATM    9  N5  UNL     1      15.286 -48.812   7.248  1.00  0.00    -0.309 N
ATOM     10  H5  UNL     1      16.207 -48.771   6.812  1.00  0.00     0.186 HD
BRANCH   9  11
HETATM   11  N4  UNL     1      15.232 -49.185   8.594  1.00  0.00    -0.282 N
ATOM     12  H4  UNL     1      15.162 -50.168   8.863  1.00  0.00     0.188 HD
BRANCH  11  13
HETATM   13  C3  UNL     1      15.278 -48.169   9.567  1.00  0.00     0.176 A
HETATM   14  N3  UNL     1      15.008 -46.962   9.252  1.00  0.00    -0.334 N
HETATM   15  C2  UNL     1      15.012 -45.838  10.116  1.00  0.00     0.183 A
ATOM     16  H3  UNL     1      14.765 -46.788   8.277  1.00  0.00     0.168 HD
HETATM   17  N2  UNL     1      15.364 -46.098  11.491  1.00  0.00    -0.336 N
HETATM   18  C1  UNL     1      15.672 -47.419  11.899  1.00  0.00     0.154 A
ATOM     19  H2  UNL     1      15.390 -45.334  12.167  1.00  0.00     0.168 HD
HETATM   20  N1  UNL     1      15.980 -47.612  13.140  1.00  0.00    -0.382 N
HETATM   21  C17 UNL     1      15.636 -48.506  10.932  1.00  0.00     0.260 A
ATOM     22  H12 UNL     1      16.004 -46.850  13.818  1.00  0.00     0.157 HD
ATOM     23  H11 UNL     1      16.202 -48.564  13.434  1.00  0.00     0.157 HD
HETATM   24  O3  UNL     1      15.909 -49.682  11.288  1.00  0.00    -0.280 OA
ENDBRANCH  11  13
ENDBRANCH   9  11
ENDBRANCH   1   8
BRANCH   5  25
HETATM   25  C9  UNL     1      14.097 -45.175   2.912  1.00  0.00     0.136 C
BRANCH  25  26
HETATM   26  C10 UNL     1      14.455 -44.145   3.968  1.00  0.00     0.040 C
BRANCH  26  27
HETATM   27  C11 UNL     1      15.729 -43.431   3.588  1.00  0.00     0.118 C
BRANCH  27  28
HETATM   28  N7  UNL     1      16.782 -43.814   4.455  1.00  0.00    -0.409 N
HETATM   29  C12 UNL     1      16.453 -44.202   5.775  1.00  0.00     0.144 C
HETATM   30  C13 UNL     1      16.628 -43.084   6.790  1.00  0.00     0.251 C
HETATM   31  N8  UNL     1      17.715 -42.203   6.500  1.00  0.00    -0.072 N
HETATM   32  C14 UNL     1      18.689 -42.826   5.645  1.00  0.00     0.251 C
ATOM     33  H82 UNL     1      17.386 -41.321   6.109  1.00  0.00     0.277 HD
ATOM     34  H81 UNL     1      18.144 -41.848   7.355  1.00  0.00     0.277 HD
HETATM   35  C15 UNL     1      18.016 -43.110   4.315  1.00  0.00     0.144 C
ENDBRANCH  27  28
ENDBRANCH  26  27
ENDBRANCH  25  26
ENDBRANCH   5  25
BRANCH   4  36
HETATM   36  O1  UNL     1      15.045 -47.003   1.148  1.00  0.00    -0.346 OA
ATOM     37  H1  UNL     1      15.786 -47.264   0.614  1.00  0.00     0.219 HD
ENDBRANCH   4  36
TORSDOF 8
ENDMDL