MODEL 5
REMARK VINA RESULT: -5.737495998     13.714     15.644
REMARK  10 active torsions:
REMARK  status: ('A' for Active; 'I' for Inactive)
REMARK    1  A    between atoms: O1_2  and  C2_3
REMARK    2  A    between atoms: C2_3  and  O2_4
REMARK    3  A    between atoms: O2_4  and  C3_5
REMARK    4  A    between atoms: C3_5  and  C4_7
REMARK    5  A    between atoms: C13_18  and  O5_19
REMARK    6  A    between atoms: C13_18  and  C14_27
REMARK    7  A    between atoms: O5_19  and  N1_20
REMARK    8  A    between atoms: N1_20  and  N2_21
REMARK    9  A    between atoms: N1_20  and  N3_24
REMARK       I    between atoms: C14_27  and  N4_29
REMARK   10  A    between atoms: N4_29  and  N5_31
ROOT
HETATM    1  C4  UNL     1       7.011 -40.556  17.041  1.00  0.00     0.166 C
HETATM    2  C5  UNL     1       6.630 -41.902  17.577  1.00  0.00     0.035 C
HETATM    3  C6  UNL     1       6.528 -42.014  19.050  1.00  0.00     0.008 C
HETATM    4  C7  UNL     1       6.712 -43.408  19.601  1.00  0.00     0.001 C
HETATM    5  C8  UNL     1       5.853 -44.436  18.923  1.00  0.00     0.001 C
HETATM    6  C9  UNL     1       6.598 -45.708  18.606  1.00  0.00     0.010 C
HETATM    7  C10 UNL     1       7.129 -45.772  17.219  1.00  0.00     0.074 C
HETATM    8  S1  UNL     1       6.390 -44.630  16.065  1.00  0.00    -0.167 SA
HETATM    9  C11 UNL     1       7.484 -43.221  15.720  1.00  0.00     0.106 C
HETATM   10  C12 UNL     1       7.855 -42.680  17.110  1.00  0.00     0.140 C
HETATM   11  O4  UNL     1       8.927 -41.863  17.116  1.00  0.00    -0.339 OA
HETATM   12  C13 UNL     1       8.502 -40.508  17.167  1.00  0.00     0.284 C
ENDROOT
BRANCH  12  13
HETATM   13  O5  UNL     1       9.016 -40.032  18.333  1.00  0.00    -0.215 OA
BRANCH  13  14
HETATM   14  N1  UNL     1       9.167 -38.751  18.529  1.00  0.00    -0.012 NA
BRANCH  14  15
HETATM   15  N2  UNL     1      10.487 -38.292  18.539  1.00  0.00    -0.322 NA
ATOM     16  H22 UNL     1      10.854 -38.606  17.641  1.00  0.00     0.175 HD
ATOM     17  H21 UNL     1      10.602 -37.281  18.600  1.00  0.00     0.175 HD
ENDBRANCH  14  15
BRANCH  14  18
HETATM   18  N3  UNL     1       8.695 -38.434  19.834  1.00  0.00    -0.322 NA
ATOM     19  H32 UNL     1       7.800 -37.978  19.659  1.00  0.00     0.175 HD
ATOM     20  H31 UNL     1       9.398 -37.863  20.302  1.00  0.00     0.175 HD
ENDBRANCH  14  18
ENDBRANCH  13  14
ENDBRANCH  12  13
BRANCH  12  21
HETATM   21  C14 UNL     1       9.128 -39.895  15.961  1.00  0.00     0.301 C
HETATM   22  O6  UNL     1      10.382 -39.772  15.880  1.00  0.00    -0.265 OA
HETATM   23  N4  UNL     1       8.348 -39.428  14.868  1.00  0.00    -0.272 N
ATOM     24  H4  UNL     1       7.333 -39.517  14.911  1.00  0.00     0.189 HD
BRANCH  23  25
HETATM   25  N5  UNL     1       8.932 -38.851  13.738  1.00  0.00    -0.342 N
ATOM     26  H52 UNL     1       9.576 -38.073  13.875  1.00  0.00     0.176 HD
ATOM     27  H51 UNL     1       8.730 -39.187  12.796  1.00  0.00     0.176 HD
ENDBRANCH  23  25
ENDBRANCH  12  21
BRANCH   1  28
HETATM   28  C3  UNL     1       6.244 -39.430  17.518  1.00  0.00     0.271 C
HETATM   29  O3  UNL     1       5.820 -39.288  18.710  1.00  0.00    -0.265 OA
BRANCH  28  30
HETATM   30  O2  UNL     1       5.894 -38.375  16.681  1.00  0.00    -0.295 OA
BRANCH  30  31
HETATM   31  C2  UNL     1       6.480 -37.091  16.777  1.00  0.00     0.347 C
BRANCH  31  32
HETATM   32  O1  UNL     1       7.394 -36.851  15.767  1.00  0.00    -0.371 OA
HETATM   33  C1  UNL     1       8.397 -36.041  16.252  1.00  0.00     0.204 C
ENDBRANCH  31  32
ENDBRANCH  30  31
ENDBRANCH  28  30
ENDBRANCH   1  28
TORSDOF 10
ENDMDL