MODEL 3
REMARK VINA RESULT: -9.764120246      0.796      1.254
REMARK  8 active torsions:
REMARK  status: ('A' for Active; 'I' for Inactive)
REMARK    1  A    between atoms: N2_7  and  C4_8
REMARK    2  A    between atoms: C4_8  and  C5_9
REMARK    3  A    between atoms: C5_9  and  N3_10
REMARK    4  A    between atoms: N3_10  and  S1_12
REMARK    5  A    between atoms: S1_12  and  N4_15
REMARK       I    between atoms: N4_15  and  C6_17
REMARK    6  A    between atoms: C6_17  and  C7_19
REMARK    7  A    between atoms: C8_25  and  N7_26
REMARK    8  A    between atoms: C9_29  and  N8_30
ROOT
HETATM    1  S1  UNL     1      14.863 -47.289   4.772  1.00  0.00     0.321 S
HETATM    2  O2  UNL     1      15.173 -47.299   3.294  1.00  0.00    -0.182 OA
HETATM    3  O3  UNL     1      13.385 -46.935   4.863  1.00  0.00    -0.182 OA
ENDROOT
BRANCH   1   4
HETATM    4  N3  UNL     1      15.198 -48.797   5.491  1.00  0.00    -0.301 N
ATOM      5  H3  UNL     1      15.034 -49.710   5.067  1.00  0.00     0.173 HD
BRANCH   4   6
HETATM    6  C5  UNL     1      15.755 -48.562   6.809  1.00  0.00     0.154 C
BRANCH   6   7
HETATM    7  C4  UNL     1      14.775 -48.940   7.897  1.00  0.00     0.156 C
BRANCH   7   8
HETATM    8  N2  UNL     1      14.955 -48.036   9.005  1.00  0.00    -0.277 N
HETATM    9  C3  UNL     1      14.764 -46.684   8.965  1.00  0.00     0.328 A
HETATM   10  N1  UNL     1      15.051 -46.153  10.162  1.00  0.00    -0.309 N
HETATM   11  O1  UNL     1      14.381 -46.068   7.955  1.00  0.00    -0.246 OA
HETATM   12  C2  UNL     1      15.428 -47.138  10.992  1.00  0.00     0.060 A
ATOM     13  H1  UNL     1      14.992 -45.163  10.402  1.00  0.00     0.170 HD
HETATM   14  C1  UNL     1      15.860 -47.015  12.422  1.00  0.00     0.072 C
HETATM   15  C9  UNL     1      15.360 -48.303  10.250  1.00  0.00     0.202 A
BRANCH  15  16
HETATM   16  N8  UNL     1      15.693 -49.587  10.788  1.00  0.00    -0.096 N
HETATM   17  O6  UNL     1      16.436 -50.394  10.147  1.00  0.00    -0.530 OA
HETATM   18  O7  UNL     1      15.262 -50.063  11.992  1.00  0.00    -0.530 OA
ENDBRANCH  15  16
ENDBRANCH   7   8
ENDBRANCH   6   7
ENDBRANCH   4   6
ENDBRANCH   1   4
BRANCH   1  19
HETATM   19  N4  UNL     1      15.776 -46.040   5.527  1.00  0.00    -0.232 N
HETATM   20  C6  UNL     1      15.599 -44.674   5.121  1.00  0.00     0.288 C
HETATM   21  O4  UNL     1      14.795 -44.356   4.236  1.00  0.00    -0.265 OA
ATOM     22  H4  UNL     1      16.443 -46.271   6.264  1.00  0.00     0.183 HD
BRANCH  20  23
HETATM   23  C7  UNL     1      16.400 -43.647   5.781  1.00  0.00     0.170 A
HETATM   24  N5  UNL     1      16.106 -43.051   6.967  1.00  0.00    -0.232 N
HETATM   25  O5  UNL     1      17.045 -42.196   7.232  1.00  0.00    -0.155 OA
ATOM     26  H5  UNL     1      15.289 -43.243   7.547  1.00  0.00     0.197 HD
HETATM   27  N6  UNL     1      17.943 -42.178   6.316  1.00  0.00    -0.224 N
HETATM   28  C8  UNL     1      17.588 -43.068   5.383  1.00  0.00     0.155 A
ATOM     29  H6  UNL     1      18.777 -41.591   6.301  1.00  0.00     0.198 HD
BRANCH  28  30
HETATM   30  N7  UNL     1      18.243 -43.318   4.322  1.00  0.00    -0.382 N
ATOM     31  H72 UNL     1      18.594 -44.236   4.052  1.00  0.00     0.157 HD
ATOM     32  H71 UNL     1      18.512 -42.653   3.597  1.00  0.00     0.157 HD
ENDBRANCH  28  30
ENDBRANCH  20  23
ENDBRANCH   1  19
TORSDOF 8
ENDMDL