MODEL 5
REMARK VINA RESULT: -8.017804939      2.717      3.912
REMARK  11 active torsions:
REMARK  status: ('A' for Active; 'I' for Inactive)
REMARK    1  A    between atoms: C3_5  and  N2_6
REMARK    2  A    between atoms: N2_6  and  O1_8
REMARK    3  A    between atoms: O1_8  and  C4_9
REMARK    4  A    between atoms: C4_9  and  O2_10
REMARK    5  A    between atoms: C5_14  and  N4_15
REMARK    6  A    between atoms: N4_15  and  C6_17
REMARK    7  A    between atoms: C6_17  and  C7_18
REMARK    8  A    between atoms: C6_17  and  C8_26
REMARK    9  A    between atoms: C7_18  and  O3_19
REMARK   10  A    between atoms: O3_19  and  S1_20
REMARK   11  A    between atoms: S1_20  and  N5_21
ROOT
HETATM    1  N4  UNL     1      14.987 -46.405   6.711  1.00  0.00    -0.363 N
ATOM      2  H4  UNL     1      15.275 -47.126   6.050  1.00  0.00     0.162 HD
ENDROOT
BRANCH   1   3
HETATM    3  C5  UNL     1      15.082 -46.868   7.833  1.00  0.00     0.144 A
HETATM    4  N3  UNL     1      14.980 -46.008   8.892  1.00  0.00    -0.173 N
HETATM    5  C3  UNL     1      15.075 -46.448  10.157  1.00  0.00     0.704 A
ATOM      6  H3  UNL     1      14.829 -45.015   8.716  1.00  0.00     0.186 HD
HETATM    7  N1  UNL     1      15.272 -47.730  10.480  1.00  0.00    -0.192 N
HETATM    8  C2  UNL     1      15.380 -48.613   9.481  1.00  0.00     0.050 A
ATOM      9  H1  UNL     1      15.339 -48.024  11.454  1.00  0.00     0.184 HD
HETATM   10  C1  UNL     1      15.601 -50.076   9.708  1.00  0.00     0.071 C
HETATM   11  C13 UNL     1      15.283 -48.177   8.152  1.00  0.00     0.113 A
HETATM   12  N6  UNL     1      15.399 -49.129   7.109  1.00  0.00    -0.096 NA
BRANCH   5  13
HETATM   13  N2  UNL     1      14.972 -45.597  11.137  1.00  0.00    -0.094 N
ATOM     14  H2  UNL     1      14.936 -44.604  10.908  1.00  0.00     0.213 HD
BRANCH  13  15
HETATM   15  O1  UNL     1      14.911 -45.954  12.442  1.00  0.00    -0.240 OA
BRANCH  15  16
HETATM   16  C4  UNL     1      16.039 -46.297  13.228  1.00  0.00     0.367 C
BRANCH  16  17
HETATM   17  O2  UNL     1      16.279 -47.663  13.093  1.00  0.00    -0.375 OA
ATOM     18  H2  UNL     1      16.487 -48.021  13.948  1.00  0.00     0.212 HD
ENDBRANCH  16  17
ENDBRANCH  15  16
ENDBRANCH  13  15
ENDBRANCH   5  13
ENDBRANCH   1   3
BRANCH   1  19
HETATM   19  C6  UNL     1      14.640 -45.281   5.989  1.00  0.00     0.145 C
BRANCH  19  20
HETATM   20  C7  UNL     1      13.877 -45.759   4.736  1.00  0.00     0.222 C
BRANCH  20  21
HETATM   21  O3  UNL     1      13.649 -47.132   4.817  1.00  0.00    -0.257 OA
BRANCH  21  22
HETATM   22  S1  UNL     1      14.364 -47.980   3.591  1.00  0.00     0.355 S
HETATM   23  O4  UNL     1      14.774 -47.050   2.488  1.00  0.00    -0.176 OA
HETATM   24  O5  UNL     1      13.388 -48.967   3.046  1.00  0.00    -0.176 OA
BRANCH  22  25
HETATM   25  N5  UNL     1      15.731 -48.824   4.245  1.00  0.00    -0.306 N
ATOM     26  H52 UNL     1      15.698 -49.479   5.026  1.00  0.00     0.171 HD
ATOM     27  H51 UNL     1      16.557 -48.549   3.713  1.00  0.00     0.171 HD
ENDBRANCH  22  25
ENDBRANCH  21  22
ENDBRANCH  20  21
ENDBRANCH  19  20
BRANCH  19  28
HETATM   28  C8  UNL     1      15.866 -44.537   5.517  1.00  0.00     0.009 C
HETATM   29  C9  UNL     1      16.547 -44.870   4.452  1.00  0.00    -0.013 C
HETATM   30  C10 UNL     1      17.702 -43.931   4.262  1.00  0.00     0.035 C
HETATM   31  C11 UNL     1      17.359 -42.753   5.154  1.00  0.00     0.087 C
HETATM   32  C12 UNL     1      16.461 -43.373   6.153  1.00  0.00     0.157 C
HETATM   33  O6  UNL     1      16.258 -42.953   7.342  1.00  0.00    -0.293 OA
ENDBRANCH  19  28
ENDBRANCH   1  19
TORSDOF 11
ENDMDL