MODEL 1
REMARK VINA RESULT: -7.409975803      0.000      0.000
REMARK  11 active torsions:
REMARK  status: ('A' for Active; 'I' for Inactive)
REMARK    1  A    between atoms: C2_2  and  O2_4
REMARK    2  A    between atoms: O2_4  and  C3_5
REMARK    3  A    between atoms: C3_5  and  C4_6
REMARK    4  A    between atoms: C3_5  and  C5_9
REMARK    5  A    between atoms: C4_6  and  O3_7
REMARK    6  A    between atoms: C5_9  and  C6_11
REMARK    7  A    between atoms: C6_11  and  N1_12
REMARK    8  A    between atoms: C6_11  and  N5_25
REMARK       I    between atoms: N1_12  and  C7_14
REMARK    9  A    between atoms: C7_14  and  C8_16
REMARK       I    between atoms: N5_25  and  C12_27
REMARK   10  A    between atoms: C12_27  and  C13_29
REMARK   11  A    between atoms: C13_29  and  N6_32
ROOT
HETATM    1  C6  UNL     1      15.293 -46.805   5.434  1.00  0.00     0.260 C
ENDROOT
BRANCH   1   2
HETATM    2  C5  UNL     1      13.928 -47.178   4.995  1.00  0.00     0.200 C
HETATM    3  O4  UNL     1      12.989 -46.474   5.329  1.00  0.00    -0.291 OA
BRANCH   2   4
HETATM    4  C3  UNL     1      13.728 -48.398   4.159  1.00  0.00     0.228 C
BRANCH   4   5
HETATM    5  O2  UNL     1      13.713 -48.061   2.789  1.00  0.00    -0.306 OA
BRANCH   5   6
HETATM    6  C2  UNL     1      14.866 -48.129   2.039  1.00  0.00     0.255 C
HETATM    7  C1  UNL     1      15.941 -49.131   2.354  1.00  0.00     0.126 C
HETATM    8  O1  UNL     1      15.029 -47.346   1.077  1.00  0.00    -0.266 OA
ENDBRANCH   5   6
ENDBRANCH   4   5
BRANCH   4   9
HETATM    9  C4  UNL     1      12.361 -48.973   4.525  1.00  0.00     0.204 C
BRANCH   9  10
HETATM   10  O3  UNL     1      12.481 -49.362   5.881  1.00  0.00    -0.398 OA
ATOM     11  H3  UNL     1      13.390 -49.619   5.981  1.00  0.00     0.209 HD
ENDBRANCH   9  10
ENDBRANCH   4   9
ENDBRANCH   2   4
ENDBRANCH   1   2
BRANCH   1  12
HETATM   12  N1  UNL     1      15.348 -46.836   6.884  1.00  0.00    -0.328 N
HETATM   13  C7  UNL     1      15.415 -48.042   7.556  1.00  0.00     0.273 C
HETATM   14  O5  UNL     1      15.422 -49.101   6.829  1.00  0.00    -0.266 OA
ATOM     15  H1  UNL     1      15.337 -45.963   7.411  1.00  0.00     0.165 HD
BRANCH  13  16
HETATM   16  C8  UNL     1      15.477 -48.261   8.995  1.00  0.00     0.141 A
HETATM   17  N2  UNL     1      15.690 -49.493   9.579  1.00  0.00    -0.279 N
HETATM   18  N3  UNL     1      15.688 -49.338  10.877  1.00  0.00    -0.240 N
ATOM     19  H2  UNL     1      15.825 -50.374   9.082  1.00  0.00     0.189 HD
HETATM   20  N4  UNL     1      15.489 -48.082  11.200  1.00  0.00    -0.284 N
ATOM     21  H3  UNL     1      15.824 -50.093  11.549  1.00  0.00     0.208 HD
HETATM   22  C9  UNL     1      15.424 -47.532  12.570  1.00  0.00     0.179 C
HETATM   23  C10 UNL     1      15.356 -47.396  10.055  1.00  0.00     0.059 A
HETATM   24  C11 UNL     1      15.115 -45.931   9.978  1.00  0.00     0.072 C
ENDBRANCH  13  16
ENDBRANCH   1  12
BRANCH   1  25
HETATM   25  N5  UNL     1      15.661 -45.475   4.990  1.00  0.00    -0.331 N
HETATM   26  C12 UNL     1      16.939 -44.906   5.223  1.00  0.00     0.255 C
HETATM   27  O6  UNL     1      17.790 -45.587   5.844  1.00  0.00    -0.271 OA
ATOM     28  H5  UNL     1      14.967 -44.923   4.487  1.00  0.00     0.165 HD
BRANCH  26  29
HETATM   29  C13 UNL     1      17.330 -43.562   4.782  1.00  0.00     0.196 C
HETATM   30  C14 UNL     1      16.274 -43.088   3.781  1.00  0.00     0.056 C
HETATM   31  C15 UNL     1      17.440 -42.622   5.944  1.00  0.00     0.056 C
BRANCH  29  32
HETATM   32  N6  UNL     1      18.599 -43.550   4.081  1.00  0.00    -0.062 N
ATOM     33  H63 UNL     1      19.380 -43.563   4.738  1.00  0.00     0.275 HD
ATOM     34  H62 UNL     1      18.766 -44.439   3.610  1.00  0.00     0.275 HD
ATOM     35  H61 UNL     1      18.683 -42.769   3.430  1.00  0.00     0.275 HD
ENDBRANCH  29  32
ENDBRANCH  26  29
ENDBRANCH   1  25
TORSDOF 11
ENDMDL