MODEL 3
REMARK VINA RESULT: -6.487597599      1.268      1.926
REMARK  8 active torsions:
REMARK  status: ('A' for Active; 'I' for Inactive)
REMARK       I    between atoms: C2_2  and  N1_4
REMARK    1  A    between atoms: N1_4  and  C3_6
REMARK    2  A    between atoms: C3_6  and  C4_7
REMARK    3  A    between atoms: C3_6  and  C5_10
REMARK    4  A    between atoms: C5_10  and  O3_11
REMARK    5  A    between atoms: C5_10  and  C7_15
REMARK    6  A    between atoms: O3_11  and  C6_12
REMARK       I    between atoms: C7_15  and  N4_17
REMARK    7  A    between atoms: N4_17  and  C8_19
REMARK    8  A    between atoms: C11_24  and  C12_25
ROOT
HETATM    1  C7  UNL     1      14.962 -47.035   5.018  1.00  0.00     0.256 C
HETATM    2  O5  UNL     1      15.974 -47.792   5.210  1.00  0.00    -0.270 OA
HETATM    3  N4  UNL     1      14.201 -46.686   6.137  1.00  0.00    -0.305 N
ATOM      4  H4  UNL     1      13.384 -46.084   6.033  1.00  0.00     0.171 HD
ENDROOT
BRANCH   1   5
HETATM    5  C5  UNL     1      14.710 -46.610   3.608  1.00  0.00     0.256 C
BRANCH   5   6
HETATM    6  C3  UNL     1      15.093 -45.177   3.449  1.00  0.00     0.212 C
BRANCH   6   7
HETATM    7  N1  UNL     1      16.238 -44.860   4.270  1.00  0.00    -0.345 N
HETATM    8  C2  UNL     1      16.955 -43.636   4.184  1.00  0.00     0.214 C
HETATM    9  C1  UNL     1      18.144 -43.397   5.076  1.00  0.00     0.117 C
HETATM   10  O1  UNL     1      16.674 -42.711   3.405  1.00  0.00    -0.274 OA
ATOM     11  H1  UNL     1      16.549 -45.553   4.951  1.00  0.00     0.163 HD
ENDBRANCH   6   7
BRANCH   6  12
HETATM   12  C4  UNL     1      13.986 -44.208   3.595  1.00  0.00     0.257 C
HETATM   13  N2  UNL     1      13.298 -44.035   4.838  1.00  0.00    -0.060 NA
HETATM   14  O2  UNL     1      13.605 -43.502   2.637  1.00  0.00    -0.274 OA
ENDBRANCH   6  12
ENDBRANCH   5   6
BRANCH   5  15
HETATM   15  O3  UNL     1      15.599 -47.404   2.818  1.00  0.00    -0.289 OA
BRANCH  15  16
HETATM   16  C6  UNL     1      15.176 -47.774   1.531  1.00  0.00     0.373 C
HETATM   17  N3  UNL     1      15.398 -49.109   1.104  1.00  0.00    -0.032 NA
HETATM   18  O4  UNL     1      14.624 -46.903   0.833  1.00  0.00    -0.242 OA
ENDBRANCH  15  16
ENDBRANCH   5  15
ENDBRANCH   1   5
BRANCH   3  19
HETATM   19  C8  UNL     1      14.571 -47.176   7.425  1.00  0.00     0.152 A
HETATM   20  N5  UNL     1      14.705 -46.527   8.572  1.00  0.00    -0.339 N
HETATM   21  C9  UNL     1      15.053 -47.158   9.646  1.00  0.00     0.028 A
ATOM     22  H5  UNL     1      14.531 -45.522   8.609  1.00  0.00     0.168 HD
HETATM   23  C10 UNL     1      15.220 -46.461  10.990  1.00  0.00     0.070 C
HETATM   24  C11 UNL     1      15.275 -48.509   9.543  1.00  0.00     0.076 A
HETATM   25  S1  UNL     1      14.962 -48.779   7.889  1.00  0.00    -0.048 SA
BRANCH  24  26
HETATM   26  C12 UNL     1      15.673 -49.466  10.580  1.00  0.00     0.150 A
HETATM   27  N6  UNL     1      16.104 -50.722  10.380  1.00  0.00    -0.269 N
HETATM   28  N7  UNL     1      16.367 -51.265  11.559  1.00  0.00    -0.007 NA
ATOM     29  H6  UNL     1      16.212 -51.179   9.475  1.00  0.00     0.185 HD
HETATM   30  N8  UNL     1      16.100 -50.353  12.481  1.00  0.00    -0.007 NA
HETATM   31  N9  UNL     1      15.674 -49.248  11.879  1.00  0.00    -0.269 N
ATOM     32  H9  UNL     1      15.397 -48.382  12.342  1.00  0.00     0.185 HD
ENDBRANCH  24  26
ENDBRANCH   3  19
TORSDOF 8
ENDMDL