MODEL 2
REMARK VINA RESULT: -7.227989945      1.562      1.939
REMARK  9 active torsions:
REMARK  status: ('A' for Active; 'I' for Inactive)
REMARK    1  A    between atoms: S1_2  and  C2_4
REMARK    2  A    between atoms: C2_4  and  C3_5
REMARK       I    between atoms: C3_5  and  N1_7
REMARK    3  A    between atoms: N1_7  and  N2_9
REMARK    4  A    between atoms: N2_9  and  C4_10
REMARK    5  A    between atoms: C4_10  and  C5_11
REMARK    6  A    between atoms: C7_13  and  C8_14
REMARK    7  A    between atoms: C8_14  and  N3_15
REMARK    8  A    between atoms: N3_15  and  N4_16
REMARK    9  A    between atoms: C11_26  and  N7_27
ROOT
HETATM    1  C5  UNL     1      14.772 -48.088   4.087  1.00  0.00     0.051 A
HETATM    2  C6  UNL     1      15.876 -48.380   4.750  1.00  0.00     0.070 A
HETATM    3  C7  UNL     1      15.387 -48.683   6.059  1.00  0.00     0.131 A
HETATM    4  O4  UNL     1      14.115 -48.599   6.054  1.00  0.00    -0.235 OA
HETATM    5  N8  UNL     1      13.664 -48.226   4.894  1.00  0.00    -0.264 N
ATOM      6  H8  UNL     1      12.690 -48.068   4.634  1.00  0.00     0.194 HD
ENDROOT
BRANCH   3   7
HETATM    7  C8  UNL     1      16.244 -49.053   7.163  1.00  0.00     0.248 C
BRANCH   7   8
HETATM    8  N3  UNL     1      16.002 -49.428   8.170  1.00  0.00    -0.335 NA
BRANCH   8   9
HETATM    9  N4  UNL     1      15.699 -49.918   9.375  1.00  0.00    -0.224 N
HETATM   10  C9  UNL     1      15.226 -48.941  10.076  1.00  0.00     0.161 A
HETATM   11  S2  UNL     1      14.927 -47.298   9.754  1.00  0.00     0.014 SA
HETATM   12  C11 UNL     1      15.603 -48.994  11.477  1.00  0.00     0.141 A
HETATM   13  N5  UNL     1      15.100 -46.187  10.893  1.00  0.00    -0.277 N
HETATM   14  C10 UNL     1      15.485 -46.668  12.109  1.00  0.00     0.332 A
ATOM     15  H5  UNL     1      14.935 -45.195  10.722  1.00  0.00     0.179 HD
HETATM   16  O3  UNL     1      15.619 -45.754  12.959  1.00  0.00    -0.246 OA
HETATM   17  N6  UNL     1      15.705 -47.972  12.279  1.00  0.00    -0.292 N
ATOM     18  H6  UNL     1      16.012 -48.217  13.220  1.00  0.00     0.172 HD
ATOM     19  H4  UNL     1      15.819 -50.883   9.684  1.00  0.00     0.202 HD
BRANCH  12  20
HETATM   20  N7  UNL     1      16.094 -50.188  11.890  1.00  0.00    -0.383 N
ATOM     21  H72 UNL     1      15.941 -51.006  11.299  1.00  0.00     0.157 HD
ATOM     22  H71 UNL     1      16.438 -50.200  12.850  1.00  0.00     0.157 HD
ENDBRANCH  12  20
ENDBRANCH   8   9
ENDBRANCH   7   8
ENDBRANCH   3   7
BRANCH   1  23
HETATM   23  C4  UNL     1      14.556 -47.646   2.683  1.00  0.00     0.194 C
BRANCH  23  24
HETATM   24  N2  UNL     1      14.554 -46.196   2.565  1.00  0.00    -0.133 NA
BRANCH  24  25
HETATM   25  N1  UNL     1      15.661 -45.745   3.311  1.00  0.00    -0.270 N
HETATM   26  C3  UNL     1      15.545 -44.428   3.826  1.00  0.00     0.265 C
HETATM   27  O2  UNL     1      14.490 -43.775   3.443  1.00  0.00    -0.267 OA
ATOM     28  H1  UNL     1      16.487 -46.323   3.469  1.00  0.00     0.185 HD
BRANCH  26  29
HETATM   29  C2  UNL     1      16.384 -43.709   4.714  1.00  0.00     0.153 C
BRANCH  29  30
HETATM   30  S1  UNL     1      15.626 -43.532   6.367  1.00  0.00     0.040 S
HETATM   31  C1  UNL     1      15.370 -45.207   6.942  1.00  0.00     0.132 C
HETATM   32  O1  UNL     1      16.677 -42.769   7.369  1.00  0.00    -0.254 OA
ENDBRANCH  29  30
ENDBRANCH  26  29
ENDBRANCH  24  25
ENDBRANCH  23  24
ENDBRANCH   1  23
TORSDOF 9
ENDMDL