MODEL 3
REMARK VINA RESULT: -9.520005866      5.401      6.730
REMARK  6 active torsions:
REMARK  status: ('A' for Active; 'I' for Inactive)
REMARK    1  A    between atoms: C2_2  and  C5_5
REMARK    2  A    between atoms: N1_8  and  C8_9
REMARK    3  A    between atoms: C9_12  and  N3_13
REMARK    4  A    between atoms: C13_17  and  C14_18
REMARK    5  A    between atoms: C17_21  and  O1_22
REMARK    6  A    between atoms: C21_29  and  C22_30
ROOT
HETATM    1  C8  UNL     1       6.250 -10.734  -3.827  1.00  0.00     0.686 A
HETATM    2  N2  UNL     1       7.374 -10.889  -4.519  1.00  0.00    -0.176 N
ATOM      3  H2  UNL     1       7.599 -10.208  -5.245  1.00  0.00     0.186 HD
HETATM    4  C9  UNL     1       8.215 -11.893  -4.306  1.00  0.00     0.124 A
HETATM    5  C20 UNL     1       7.886 -12.838  -3.298  1.00  0.00     0.084 A
HETATM    6  C21 UNL     1       6.727 -12.698  -2.572  1.00  0.00     0.136 A
HETATM    7  N5  UNL     1       5.950 -11.672  -2.841  1.00  0.00    -0.186 N
ATOM      8  H5  UNL     1       5.090 -11.558  -2.305  1.00  0.00     0.184 HD
ENDROOT
BRANCH   4   9
HETATM    9  N3  UNL     1       9.466 -12.125  -4.888  1.00  0.00    -0.347 N
HETATM   10  C10 UNL     1      10.168 -11.089  -5.514  1.00  0.00     0.065 C
HETATM   11  C11 UNL     1      11.324 -11.521  -6.370  1.00  0.00     0.045 C
HETATM   12  C12 UNL     1      12.062 -12.743  -5.984  1.00  0.00     0.016 C
HETATM   13  C13 UNL     1      11.517 -14.050  -6.396  1.00  0.00     0.037 C
HETATM   14  C18 UNL     1      10.003 -14.004  -6.207  1.00  0.00     0.031 C
HETATM   15  C19 UNL     1       9.845 -13.551  -4.746  1.00  0.00     0.130 C
BRANCH  13  16
HETATM   16  C14 UNL     1      11.858 -14.482  -7.773  1.00  0.00     0.015 A
HETATM   17  C15 UNL     1      12.921 -15.182  -8.244  1.00  0.00     0.029 A
HETATM   18  C16 UNL     1      12.791 -15.323  -9.593  1.00  0.00     0.058 A
HETATM   19  C17 UNL     1      11.624 -14.700  -9.967  1.00  0.00     0.140 A
HETATM   20  N4  UNL     1      11.082 -14.197  -8.824  1.00  0.00    -0.340 N
ATOM     21  H4  UNL     1      10.207 -13.676  -8.777  1.00  0.00     0.167 HD
BRANCH  19  22
HETATM   22  O1  UNL     1      11.110 -14.604 -11.254  1.00  0.00    -0.346 OA
ATOM     23  H1  UNL     1      10.355 -14.095 -11.528  1.00  0.00     0.219 HD
ENDBRANCH  19  22
ENDBRANCH  13  16
ENDBRANCH   4   9
BRANCH   1  24
HETATM   24  N1  UNL     1       5.308  -9.710  -3.888  1.00  0.00    -0.197 N
HETATM   25  C7  UNL     1       4.548  -9.478  -2.615  1.00  0.00     0.147 C
HETATM   26  C6  UNL     1       3.135  -9.841  -3.102  1.00  0.00     0.026 C
HETATM   27  C5  UNL     1       2.635  -8.594  -3.789  1.00  0.00    -0.001 C
HETATM   28  C24 UNL     1       3.717  -8.019  -4.681  1.00  0.00     0.050 C
HETATM   29  C23 UNL     1       4.903  -8.919  -4.962  1.00  0.00     0.082 C
BRANCH  27  30
HETATM   30  C2  UNL     1       1.377  -8.883  -4.583  1.00  0.00    -0.047 C
HETATM   31  C1  UNL     1       1.751  -9.592  -5.881  1.00  0.00     0.015 C
HETATM   32  C3  UNL     1       0.425  -7.799  -4.767  1.00  0.00     0.015 C
HETATM   33  C4  UNL     1       0.658  -9.999  -3.773  1.00  0.00     0.015 C
ENDBRANCH  27  30
ENDBRANCH   1  24
BRANCH   6  34
HETATM   34  C22 UNL     1       6.342 -13.663  -1.497  1.00  0.00     0.433 C
HETATM   35  F1  UNL     1       5.553 -14.615  -2.123  1.00  0.00    -0.165 F
HETATM   36  F2  UNL     1       7.430 -14.230  -0.915  1.00  0.00    -0.165 F
HETATM   37  F3  UNL     1       5.549 -12.969  -0.618  1.00  0.00    -0.165 F
ENDBRANCH   6  34
TORSDOF 6
ENDMDL