MODEL 1
REMARK VINA RESULT: -8.870178383      0.000      0.000
REMARK  5 active torsions:
REMARK  status: ('A' for Active; 'I' for Inactive)
REMARK    1  A    between atoms: C11_13  and  N2_14
REMARK    2  A    between atoms: C12_16  and  C13_17
REMARK    3  A    between atoms: C13_17  and  S1_18
REMARK    4  A    between atoms: S1_18  and  C14_19
REMARK    5  A    between atoms: N3_25  and  N4_26
REMARK       I    between atoms: N4_26  and  C17_28
REMARK       I    between atoms: C17_28  and  N5_30
ROOT
HETATM    1  C1  UNL     1       0.678 -12.917  -4.793  1.00  0.00     0.010 C
HETATM    2  C2  UNL     1       0.456 -11.731  -5.739  1.00  0.00    -0.018 C
HETATM    3  C3  UNL     1      -0.189 -10.630  -4.907  1.00  0.00     0.008 C
HETATM    4  C4  UNL     1       0.928 -10.114  -3.991  1.00  0.00     0.056 C
HETATM    5  C5  UNL     1       1.716  -9.125  -4.827  1.00  0.00     0.126 C
HETATM    6  C6  UNL     1       1.859  -9.690  -6.198  1.00  0.00     0.056 C
HETATM    7  C7  UNL     1       1.788 -11.215  -6.206  1.00  0.00     0.008 C
HETATM    8  N1  UNL     1       0.980  -7.876  -4.770  1.00  0.00    -0.360 N
ATOM      9  H1  UNL     1       0.301  -7.548  -5.456  1.00  0.00     0.162 HD
HETATM   10  C8  UNL     1       1.373  -7.191  -3.589  1.00  0.00     0.059 A
HETATM   11  C9  UNL     1       0.780  -6.187  -2.837  1.00  0.00     0.034 A
HETATM   12  C10 UNL     1       1.413  -5.705  -1.710  1.00  0.00     0.032 A
HETATM   13  C11 UNL     1       2.634  -6.250  -1.362  1.00  0.00     0.034 A
HETATM   14  C15 UNL     1       3.227  -7.258  -2.121  1.00  0.00     0.063 A
HETATM   15  C16 UNL     1       2.606  -7.742  -3.241  1.00  0.00     0.082 A
HETATM   16  N3  UNL     1       2.953  -8.745  -4.197  1.00  0.00    -0.257 N
ENDROOT
BRANCH  16  17
HETATM   17  N4  UNL     1       4.229  -9.251  -4.467  1.00  0.00    -0.246 N
HETATM   18  C17 UNL     1       4.792 -10.329  -3.747  1.00  0.00     0.337 C
HETATM   19  O1  UNL     1       4.101 -10.841  -2.832  1.00  0.00    -0.245 OA
HETATM   20  N5  UNL     1       6.068 -10.846  -4.005  1.00  0.00    -0.333 N
HETATM   21  C18 UNL     1       6.977 -10.365  -5.015  1.00  0.00     0.127 C
HETATM   22  C22 UNL     1       6.582 -11.981  -3.214  1.00  0.00     0.127 C
HETATM   23  C19 UNL     1       8.360 -10.205  -4.413  1.00  0.00     0.020 C
HETATM   24  C20 UNL     1       8.931 -11.523  -3.944  1.00  0.00     0.003 C
HETATM   25  C21 UNL     1       7.832 -12.554  -3.861  1.00  0.00     0.020 C
ATOM     26  H4  UNL     1       4.776  -8.824  -5.214  1.00  0.00     0.192 HD
ENDBRANCH  16  17
BRANCH  13  27
HETATM   27  N2  UNL     1       3.283  -5.770  -0.217  1.00  0.00    -0.369 N
HETATM   28  C12 UNL     1       4.412  -5.187  -0.165  1.00  0.00     0.071 C
ATOM     29  H2  UNL     1       2.798  -5.902   0.670  1.00  0.00     0.165 HD
BRANCH  28  30
HETATM   30  C13 UNL     1       5.279  -4.898  -1.340  1.00  0.00     0.127 C
BRANCH  30  31
HETATM   31  S1  UNL     1       6.860  -5.759  -1.230  1.00  0.00    -0.051 SA
BRANCH  31  32
HETATM   32  C14 UNL     1       6.751  -7.383  -2.058  1.00  0.00     0.443 C
HETATM   33  F1  UNL     1       6.289  -7.271  -3.333  1.00  0.00    -0.160 F
HETATM   34  F2  UNL     1       5.913  -8.215  -1.339  1.00  0.00    -0.160 F
HETATM   35  F3  UNL     1       8.030  -7.946  -2.090  1.00  0.00    -0.160 F
ENDBRANCH  31  32
ENDBRANCH  30  31
ENDBRANCH  28  30
ENDBRANCH  13  27
TORSDOF 5
ENDMDL