MODEL 1
REMARK VINA RESULT: -9.697451701      0.000      0.000
REMARK  7 active torsions:
REMARK  status: ('A' for Active; 'I' for Inactive)
REMARK    1  A    between atoms: C2_2  and  C3_4
REMARK    2  A    between atoms: C5_6  and  C6_7
REMARK    3  A    between atoms: C7_11  and  C8_12
REMARK    4  A    between atoms: N1_15  and  C11_16
REMARK    5  A    between atoms: C11_16  and  N2_17
REMARK    6  A    between atoms: C12_18  and  O2_19
REMARK    7  A    between atoms: C15_23  and  O3_24
ROOT
HETATM    1  C8  UNL     1       3.520 -12.067  -3.583  1.00  0.00     0.023 C
HETATM    2  C9  UNL     1       4.709 -11.341  -4.175  1.00  0.00     0.039 C
HETATM    3  C10 UNL     1       5.536 -10.538  -3.262  1.00  0.00     0.275 C
HETATM    4  N1  UNL     1       4.798  -9.529  -2.514  1.00  0.00     0.106 N
HETATM    5  C22 UNL     1       3.405  -9.943  -2.401  1.00  0.00     0.275 C
HETATM    6  C23 UNL     1       3.436 -11.465  -2.153  1.00  0.00     0.039 C
ENDROOT
BRANCH   4   7
HETATM    7  C11 UNL     1       4.855  -8.298  -3.242  1.00  0.00     0.406 C
BRANCH   7   8
HETATM    8  N2  UNL     1       5.523  -7.254  -2.497  1.00  0.00    -0.280 N
HETATM    9  C12 UNL     1       4.854  -6.182  -1.973  1.00  0.00     0.152 A
HETATM   10  C13 UNL     1       5.785  -5.428  -1.325  1.00  0.00     0.004 A
HETATM   11  C14 UNL     1       7.021  -6.013  -1.437  1.00  0.00     0.004 A
HETATM   12  C21 UNL     1       5.720  -4.156  -0.557  1.00  0.00     0.044 C
HETATM   13  C15 UNL     1       6.819  -7.168  -2.186  1.00  0.00     0.152 A
HETATM   14  C16 UNL     1       8.206  -5.364  -0.801  1.00  0.00     0.052 C
HETATM   15  C17 UNL     1       7.877  -4.793   0.546  1.00  0.00    -0.043 C
HETATM   16  C18 UNL     1       8.717  -3.526   0.723  1.00  0.00     0.015 C
HETATM   17  C19 UNL     1       8.265  -5.759   1.661  1.00  0.00     0.015 C
HETATM   18  C20 UNL     1       6.451  -4.423   0.757  1.00  0.00     0.014 C
BRANCH   9  19
HETATM   19  O2  UNL     1       3.471  -5.949  -2.105  1.00  0.00    -0.345 OA
ATOM     20  H2  UNL     1       2.996  -5.238  -1.692  1.00  0.00     0.219 HD
ENDBRANCH   9  19
BRANCH  13  21
HETATM   21  O3  UNL     1       7.884  -8.013  -2.489  1.00  0.00    -0.345 OA
ATOM     22  H3  UNL     1       8.785  -7.817  -2.717  1.00  0.00     0.219 HD
ENDBRANCH  13  21
ENDBRANCH   7   8
ENDBRANCH   4   7
BRANCH   1  23
HETATM   23  C7  UNL     1       3.746 -13.506  -3.479  1.00  0.00    -0.038 A
HETATM   24  C5  UNL     1       2.783 -14.440  -3.744  1.00  0.00     0.055 A
HETATM   25  C4  UNL     1       3.078 -15.802  -3.529  1.00  0.00     0.032 A
HETATM   26  C3  UNL     1       4.303 -16.222  -3.064  1.00  0.00     0.016 A
HETATM   27  C25 UNL     1       5.276 -15.288  -2.799  1.00  0.00    -0.048 A
HETATM   28  C24 UNL     1       4.975 -13.950  -3.011  1.00  0.00     0.016 A
HETATM   29  C26 UNL     1       6.622 -15.688  -2.293  1.00  0.00     0.049 C
BRANCH  24  30
HETATM   30  C6  UNL     1       1.481 -14.042  -4.304  1.00  0.00     0.418 C
HETATM   31  F1  UNL     1       1.317 -14.419  -5.633  1.00  0.00    -0.166 F
HETATM   32  F2  UNL     1       0.528 -14.897  -3.655  1.00  0.00    -0.166 F
HETATM   33  F3  UNL     1       1.035 -12.798  -4.009  1.00  0.00    -0.166 F
ENDBRANCH  24  30
BRANCH  26  34
HETATM   34  C2  UNL     1       4.503 -17.642  -2.882  1.00  0.00     0.156 C
HETATM   35  C1  UNL     1       5.180 -18.440  -3.920  1.00  0.00     0.097 C
HETATM   36  O1  UNL     1       4.104 -18.203  -1.843  1.00  0.00    -0.293 OA
ENDBRANCH  26  34
ENDBRANCH   1  23
TORSDOF 7
ENDMDL