MODEL 5
REMARK VINA RESULT: -9.631272158      1.933      2.204
REMARK  7 active torsions:
REMARK  status: ('A' for Active; 'I' for Inactive)
REMARK    1  A    between atoms: N1_1  and  N2_4
REMARK    2  A    between atoms: N2_4  and  N3_5
REMARK    3  A    between atoms: N3_5  and  C1_7
REMARK    4  A    between atoms: N4_10  and  N5_11
REMARK       I    between atoms: N5_11  and  C4_13
REMARK       I    between atoms: C4_13  and  N6_15
REMARK    5  A    between atoms: N6_15  and  C5_17
REMARK    6  A    between atoms: C6_18  and  C7_19
REMARK    7  A    between atoms: C8_23  and  C9_24
ROOT
HETATM    1  C5  UNL     1       4.300 -12.779  -2.614  1.00  0.00     0.067 A
HETATM    2  C6  UNL     1       5.108 -13.869  -2.372  1.00  0.00     0.098 A
HETATM    3  C8  UNL     1       4.893 -15.147  -2.840  1.00  0.00     0.031 A
HETATM    4  N7  UNL     1       3.798 -15.307  -3.589  1.00  0.00    -0.352 N
ATOM      5  H7  UNL     1       3.574 -16.229  -3.966  1.00  0.00     0.166 HD
HETATM    6  C12 UNL     1       2.976 -14.249  -3.853  1.00  0.00     0.087 A
HETATM    7  S1  UNL     1       1.572 -14.176  -4.812  1.00  0.00    -0.075 SA
HETATM    8  C13 UNL     1       1.205 -12.531  -4.635  1.00  0.00    -0.008 A
HETATM    9  C14 UNL     1       2.204 -12.067  -3.812  1.00  0.00    -0.030 A
HETATM   10  C15 UNL     1       3.141 -12.976  -3.415  1.00  0.00     0.033 A
HETATM   11  C16 UNL     1       1.922 -10.619  -3.385  1.00  0.00     0.040 C
HETATM   12  C17 UNL     1       0.436 -10.615  -2.940  1.00  0.00     0.005 C
HETATM   13  C18 UNL     1      -0.506 -10.834  -4.068  1.00  0.00     0.005 C
HETATM   14  C19 UNL     1       0.159 -11.603  -5.196  1.00  0.00     0.047 C
ENDROOT
BRANCH   1  15
HETATM   15  N6  UNL     1       4.614 -11.519  -2.070  1.00  0.00    -0.306 N
HETATM   16  C4  UNL     1       5.155 -10.410  -2.781  1.00  0.00     0.339 C
HETATM   17  N5  UNL     1       5.428  -9.205  -2.087  1.00  0.00    -0.250 N
HETATM   18  O1  UNL     1       5.397 -10.455  -3.991  1.00  0.00    -0.245 OA
ATOM     19  H5  UNL     1       5.223  -9.182  -1.088  1.00  0.00     0.192 HD
ATOM     20  H6  UNL     1       4.438 -11.388  -1.074  1.00  0.00     0.171 HD
BRANCH  17  21
HETATM   21  N4  UNL     1       5.946  -8.068  -2.653  1.00  0.00    -0.303 N
HETATM   22  C3  UNL     1       7.302  -7.803  -2.414  1.00  0.00     0.085 C
HETATM   23  C2  UNL     1       7.602  -6.655  -1.493  1.00  0.00     0.074 C
HETATM   24  C1  UNL     1       6.314  -6.173  -0.806  1.00  0.00     0.120 C
HETATM   25  C21 UNL     1       5.372  -5.783  -1.929  1.00  0.00     0.049 C
HETATM   26  C20 UNL     1       5.040  -6.970  -2.765  1.00  0.00     0.150 C
BRANCH  24  27
HETATM   27  N3  UNL     1       6.680  -4.997  -0.024  1.00  0.00    -0.247 N
ATOM     28  H3  UNL     1       7.669  -4.780   0.094  1.00  0.00     0.197 HD
BRANCH  27  29
HETATM   29  N2  UNL     1       5.860  -4.262   0.496  1.00  0.00    -0.248 NA
BRANCH  29  30
HETATM   30  N1  UNL     1       5.009  -3.538   1.018  1.00  0.00    -0.261 N
ATOM     31  H12 UNL     1       6.024  -3.500   1.099  1.00  0.00     0.193 HD
ATOM     32  H11 UNL     1       4.287  -2.952   1.439  1.00  0.00     0.193 HD
ENDBRANCH  29  30
ENDBRANCH  27  29
ENDBRANCH  24  27
ENDBRANCH  17  21
ENDBRANCH   1  15
BRANCH   2  33
HETATM   33  C7  UNL     1       6.259 -13.692  -1.458  1.00  0.00     0.421 C
HETATM   34  F1  UNL     1       7.305 -13.013  -2.012  1.00  0.00    -0.166 F
HETATM   35  F2  UNL     1       5.718 -12.947  -0.376  1.00  0.00    -0.166 F
HETATM   36  F3  UNL     1       6.748 -14.806  -0.871  1.00  0.00    -0.166 F
ENDBRANCH   2  33
BRANCH   3  37
HETATM   37  C9  UNL     1       5.867 -16.260  -2.655  1.00  0.00     0.036 A
HETATM   38  C10 UNL     1       5.378 -17.645  -2.314  1.00  0.00     0.011 A
HETATM   39  C11 UNL     1       5.505 -17.402  -3.742  1.00  0.00     0.011 A
ENDBRANCH   3  37
TORSDOF 7
ENDMDL