MODEL 2
REMARK VINA RESULT: -7.872610660      2.699      5.525
REMARK  7 active torsions:
REMARK  status: ('A' for Active; 'I' for Inactive)
REMARK    1  A    between atoms: C3_5  and  N2_6
REMARK    2  A    between atoms: N2_6  and  S1_8
REMARK    3  A    between atoms: S1_8  and  N3_9
REMARK    4  A    between atoms: S1_8  and  C4_13
REMARK    5  A    between atoms: N4_20  and  C8_21
REMARK    6  A    between atoms: C8_21  and  C10_24
REMARK    7  A    between atoms: C10_24  and  C11_25
ROOT
HETATM    1  C1  UNL     1       3.957  -6.304  -2.374  1.00  0.00     0.091 C
HETATM    2  C2  UNL     1       3.607  -7.460  -3.235  1.00  0.00     0.108 A
HETATM    3  N1  UNL     1       4.446  -8.275  -3.885  1.00  0.00    -0.177 N
ATOM      4  H1  UNL     1       5.463  -8.197  -3.868  1.00  0.00     0.185 HD
HETATM    5  C3  UNL     1       3.760  -9.211  -4.565  1.00  0.00     0.711 A
HETATM    6  N4  UNL     1       2.460  -8.971  -4.331  1.00  0.00    -0.097 N
HETATM    7  N5  UNL     1       2.372  -7.908  -3.523  1.00  0.00    -0.270 N
ATOM      8  H5  UNL     1       1.503  -7.499  -3.180  1.00  0.00     0.189 HD
ENDROOT
BRANCH   5   9
HETATM    9  N2  UNL     1       4.196 -10.167  -5.306  1.00  0.00    -0.127 N
ATOM     10  H2  UNL     1       3.556 -10.904  -5.603  1.00  0.00     0.196 HD
BRANCH   9  11
HETATM   11  S1  UNL     1       5.840 -10.223  -5.805  1.00  0.00     0.157 S
HETATM   12  O1  UNL     1       6.454  -8.843  -5.725  1.00  0.00    -0.222 OA
BRANCH  11  13
HETATM   13  N3  UNL     1       6.017 -10.784  -7.233  1.00  0.00    -0.340 N
ATOM     14  H32 UNL     1       6.173 -10.185  -8.045  1.00  0.00     0.167 HD
ATOM     15  H31 UNL     1       5.960 -11.802  -7.270  1.00  0.00     0.167 HD
ENDBRANCH  11  13
BRANCH  11  16
HETATM   16  C4  UNL     1       6.804 -11.232  -4.712  1.00  0.00     0.102 A
HETATM   17  C5  UNL     1       6.366 -11.944  -3.626  1.00  0.00     0.057 A
HETATM   18  C6  UNL     1       7.297 -12.646  -2.941  1.00  0.00     0.064 A
HETATM   19 CL1  UNL     1       6.874 -13.624  -1.498  1.00  0.00    -0.082 Cl
HETATM   20  C7  UNL     1       8.585 -12.577  -3.397  1.00  0.00     0.097 A
HETATM   21 CL2  UNL     1      10.012 -13.383  -2.709  1.00  0.00    -0.074 Cl
HETATM   22  S2  UNL     1       8.472 -11.554  -4.749  1.00  0.00    -0.064 SA
ENDBRANCH  11  16
ENDBRANCH   9  11
ENDBRANCH   5   9
BRANCH   6  23
HETATM   23  C8  UNL     1       1.283  -9.710  -4.843  1.00  0.00     0.144 C
HETATM   24  C9  UNL     1       0.151  -8.679  -4.744  1.00  0.00     0.059 C
HETATM   25 CL3  UNL     1       1.634 -10.158  -6.496  1.00  0.00    -0.093 Cl
BRANCH  23  26
HETATM   26  C10 UNL     1       0.957 -10.836  -3.945  1.00  0.00     0.054 C
BRANCH  26  27
HETATM   27  C11 UNL     1       1.842 -12.008  -3.890  1.00  0.00    -0.011 C
HETATM   28  C12 UNL     1       1.342 -13.306  -4.402  1.00  0.00     0.005 C
HETATM   29  C13 UNL     1       1.967 -14.494  -3.643  1.00  0.00     0.000 C
HETATM   30  C14 UNL     1       3.399 -14.211  -3.318  1.00  0.00     0.000 C
HETATM   31  C15 UNL     1       3.403 -13.100  -2.263  1.00  0.00     0.000 C
HETATM   32  C16 UNL     1       2.183 -12.222  -2.402  1.00  0.00     0.005 C
ENDBRANCH  26  27
ENDBRANCH  23  26
ENDBRANCH   6  23
TORSDOF 7
ENDMDL