MODEL 5
REMARK VINA RESULT: -7.803060161      2.173      3.090
REMARK  7 active torsions:
REMARK  status: ('A' for Active; 'I' for Inactive)
REMARK    1  A    between atoms: O1_2  and  C2_3
REMARK    2  A    between atoms: C7_8  and  C8_9
REMARK    3  A    between atoms: C8_9  and  N1_10
REMARK    4  A    between atoms: C8_9  and  C15_18
REMARK    5  A    between atoms: N1_10  and  C9_12
REMARK    6  A    between atoms: C22_31  and  N4_32
REMARK    7  A    between atoms: N4_32  and  C23_34
ROOT
HETATM    1  C2  UNL     1       6.127  -9.711  -3.522  1.00  0.00     0.079 A
HETATM    2  C3  UNL     1       7.464  -9.514  -3.489  1.00  0.00     0.069 A
HETATM    3  C4  UNL     1       8.320 -10.198  -4.348  1.00  0.00     0.065 A
HETATM    4  C5  UNL     1       7.759 -11.080  -5.233  1.00  0.00     0.061 A
HETATM    5  C6  UNL     1       6.374 -11.258  -5.249  1.00  0.00     0.044 A
HETATM    6  C7  UNL     1       5.516 -10.591  -4.405  1.00  0.00     0.009 A
HETATM    7  N2  UNL     1       8.772 -11.610  -5.929  1.00  0.00    -0.342 N
ATOM      8  H2  UNL     1       8.671 -12.312  -6.662  1.00  0.00     0.167 HD
HETATM    9  C16 UNL     1       9.942 -11.086  -5.523  1.00  0.00     0.107 A
HETATM   10  N3  UNL     1       9.669 -10.213  -4.561  1.00  0.00    -0.332 N
HETATM   11  C17 UNL     1      10.662  -9.333  -3.967  1.00  0.00     0.139 C
HETATM   12  C18 UNL     1      11.991  -9.335  -4.628  1.00  0.00    -0.029 C
HETATM   13  C19 UNL     1      13.051  -9.678  -3.586  1.00  0.00     0.016 C
HETATM   14  C20 UNL     1      12.313  -7.859  -5.010  1.00  0.00     0.016 C
HETATM   15  C21 UNL     1      12.150 -10.102  -5.879  1.00  0.00     0.043 C
HETATM   16  C22 UNL     1      11.340 -11.384  -5.948  1.00  0.00     0.151 C
ENDROOT
BRANCH   6  17
HETATM   17  C8  UNL     1       4.071 -10.876  -4.381  1.00  0.00     0.222 C
BRANCH  17  18
HETATM   18  N1  UNL     1       3.303 -10.885  -5.528  1.00  0.00    -0.402 N
ATOM     19  H1  UNL     1       3.377 -11.630  -6.220  1.00  0.00     0.154 HD
BRANCH  18  20
HETATM   20  C9  UNL     1       2.389  -9.779  -5.694  1.00  0.00     0.077 C
HETATM   21  C10 UNL     1       1.070 -10.312  -6.180  1.00  0.00     0.024 C
HETATM   22  C11 UNL     1       0.432 -11.172  -5.141  1.00  0.00     0.002 C
HETATM   23  C12 UNL     1       0.339 -10.493  -3.799  1.00  0.00     0.000 C
HETATM   24  C13 UNL     1       0.673  -9.054  -4.005  1.00  0.00     0.002 C
HETATM   25  C14 UNL     1       2.135  -8.981  -4.454  1.00  0.00     0.024 C
ENDBRANCH  18  20
ENDBRANCH  17  18
BRANCH  17  26
HETATM   26  C15 UNL     1       3.791 -12.102  -3.476  1.00  0.00     0.411 C
HETATM   27  F1  UNL     1       3.124 -11.584  -2.320  1.00  0.00    -0.168 F
HETATM   28  F2  UNL     1       4.950 -12.660  -3.004  1.00  0.00    -0.168 F
HETATM   29  F3  UNL     1       3.010 -13.013  -4.135  1.00  0.00    -0.168 F
ENDBRANCH  17  26
ENDBRANCH   6  17
BRANCH   1  30
HETATM   30  O1  UNL     1       5.331  -9.008  -2.649  1.00  0.00    -0.355 OA
HETATM   31  C1  UNL     1       5.807  -7.815  -2.039  1.00  0.00     0.210 C
ENDBRANCH   1  30
BRANCH  16  32
HETATM   32  N4  UNL     1      12.024 -12.401  -5.209  1.00  0.00    -0.373 N
ATOM     33  H4  UNL     1      13.031 -12.457  -5.361  1.00  0.00     0.161 HD
BRANCH  32  34
HETATM   34  C23 UNL     1      11.487 -13.335  -4.299  1.00  0.00     0.070 C
HETATM   35  C24 UNL     1      11.090 -14.686  -4.848  1.00  0.00     0.081 C
HETATM   36  S1  UNL     1      11.309 -12.993  -2.714  1.00  0.00    -0.066 SA
ENDBRANCH  32  34
ENDBRANCH  16  32
TORSDOF 7
ENDMDL