MODEL 3
REMARK VINA RESULT: -9.193750426      1.936      3.072
REMARK  7 active torsions:
REMARK  status: ('A' for Active; 'I' for Inactive)
REMARK    1  A    between atoms: C2_2  and  N1_3
REMARK    2  A    between atoms: C2_2  and  C10_15
REMARK    3  A    between atoms: N1_3  and  C3_5
REMARK    4  A    between atoms: C6_8  and  C7_9
REMARK       I    between atoms: C10_15  and  N2_17
REMARK    5  A    between atoms: N2_17  and  N3_19
REMARK    6  A    between atoms: C11_21  and  C12_22
REMARK    7  A    between atoms: C19_29  and  C20_30
ROOT
HETATM    1  N3  UNL     1       3.904 -10.103  -5.276  1.00  0.00    -0.310 N
ATOM      2  H3  UNL     1       4.399 -10.305  -6.145  1.00  0.00     0.185 HD
HETATM    3  C11 UNL     1       3.798  -8.884  -5.084  1.00  0.00     0.120 C
ENDROOT
BRANCH   1   4
HETATM    4  N2  UNL     1       3.533 -11.242  -4.634  1.00  0.00    -0.269 N
HETATM    5  C10 UNL     1       4.442 -12.112  -3.965  1.00  0.00     0.258 C
HETATM    6  O1  UNL     1       5.641 -11.801  -3.987  1.00  0.00    -0.269 OA
ATOM      7  H2  UNL     1       2.544 -11.490  -4.631  1.00  0.00     0.190 HD
BRANCH   5   8
HETATM    8  C2  UNL     1       3.942 -13.307  -3.295  1.00  0.00     0.171 C
HETATM    9  C1  UNL     1       2.871 -12.901  -2.269  1.00  0.00     0.042 C
BRANCH   8  10
HETATM   10  N1  UNL     1       4.912 -14.125  -2.627  1.00  0.00    -0.377 N
ATOM     11  H1  UNL     1       5.599 -13.712  -1.997  1.00  0.00     0.160 HD
BRANCH  10  12
HETATM   12  C3  UNL     1       4.890 -15.544  -2.868  1.00  0.00     0.028 A
HETATM   13  C4  UNL     1       5.991 -16.251  -2.375  1.00  0.00     0.030 A
HETATM   14  C5  UNL     1       6.073 -17.604  -2.588  1.00  0.00     0.018 A
HETATM   15  C6  UNL     1       5.099 -18.317  -3.275  1.00  0.00     0.048 A
HETATM   16  C8  UNL     1       4.044 -17.579  -3.732  1.00  0.00     0.018 A
HETATM   17  C9  UNL     1       3.920 -16.219  -3.542  1.00  0.00     0.030 A
BRANCH  15  18
HETATM   18  C7  UNL     1       5.215 -19.776  -3.517  1.00  0.00     0.417 C
HETATM   19  F1  UNL     1       5.888 -20.021  -4.676  1.00  0.00    -0.166 F
HETATM   20  F2  UNL     1       5.834 -20.322  -2.433  1.00  0.00    -0.166 F
HETATM   21  F3  UNL     1       3.902 -20.254  -3.632  1.00  0.00    -0.166 F
ENDBRANCH  15  18
ENDBRANCH  10  12
ENDBRANCH   8  10
ENDBRANCH   5   8
ENDBRANCH   1   4
BRANCH   3  22
HETATM   22  C12 UNL     1       3.135  -8.287  -3.913  1.00  0.00     0.126 C
HETATM   23  C13 UNL     1       1.684  -7.963  -4.091  1.00  0.00     0.055 C
HETATM   24  C14 UNL     1       3.259  -9.103  -2.651  1.00  0.00     0.050 C
HETATM   25  C15 UNL     1       4.611  -8.966  -1.973  1.00  0.00     0.044 C
HETATM   26  C16 UNL     1       5.125  -7.579  -2.187  1.00  0.00     0.096 C
HETATM   27  C17 UNL     1       6.531  -7.424  -1.714  1.00  0.00     0.042 C
HETATM   28  C25 UNL     1       4.186  -6.561  -1.526  1.00  0.00     0.042 C
HETATM   29  O2  UNL     1       5.045  -7.316  -3.574  1.00  0.00    -0.229 OA
HETATM   30  C18 UNL     1       6.971  -5.966  -1.724  1.00  0.00     0.008 C
HETATM   31  C19 UNL     1       6.014  -5.111  -0.918  1.00  0.00    -0.007 C
HETATM   32  C24 UNL     1       4.878  -5.908  -0.325  1.00  0.00     0.008 C
HETATM   33  O3  UNL     1       3.767  -7.015  -3.756  1.00  0.00    -0.224 OA
BRANCH  31  34
HETATM   34  C20 UNL     1       6.707  -4.244   0.081  1.00  0.00    -0.048 C
HETATM   35  C21 UNL     1       7.628  -5.158   0.878  1.00  0.00     0.015 C
HETATM   36  C22 UNL     1       7.490  -3.188  -0.624  1.00  0.00     0.015 C
HETATM   37  C23 UNL     1       5.649  -3.634   0.979  1.00  0.00     0.015 C
ENDBRANCH  31  34
ENDBRANCH   3  22
TORSDOF 7
ENDMDL