MODEL 4
REMARK VINA RESULT: -9.511281522      0.607      1.203
REMARK  6 active torsions:
REMARK  status: ('A' for Active; 'I' for Inactive)
REMARK    1  A    between atoms: O1_1  and  C1_3
REMARK    2  A    between atoms: C3_5  and  C4_6
REMARK    3  A    between atoms: C5_9  and  C6_10
REMARK    4  A    between atoms: C13_17  and  N2_18
REMARK    5  A    between atoms: C24_34  and  O2_35
REMARK    6  A    between atoms: O2_35  and  C25_36
ROOT
HETATM    1  C4  UNL     1       5.766  -6.986  -2.646  1.00  0.00     0.117 A
HETATM    2  N1  UNL     1       4.489  -7.018  -3.080  1.00  0.00    -0.345 N
ATOM      3  H1  UNL     1       3.831  -6.330  -2.714  1.00  0.00     0.167 HD
HETATM    4  C5  UNL     1       4.046  -7.921  -3.976  1.00  0.00     0.018 A
HETATM    5  C12 UNL     1       4.962  -8.836  -4.452  1.00  0.00     0.073 A
HETATM    6  C13 UNL     1       6.271  -8.834  -4.035  1.00  0.00     0.106 A
HETATM    7  N4  UNL     1       6.625  -7.897  -3.137  1.00  0.00    -0.328 N
ATOM      8  H4  UNL     1       7.591  -7.877  -2.813  1.00  0.00     0.169 HD
ENDROOT
BRANCH   1   9
HETATM    9  C3  UNL     1       6.195  -5.980  -1.668  1.00  0.00     0.011 A
HETATM   10  C2  UNL     1       7.516  -5.837  -1.399  1.00  0.00     0.054 A
HETATM   11  C1  UNL     1       7.944  -4.894  -0.479  1.00  0.00     0.100 A
HETATM   12  C24 UNL     1       7.037  -4.094   0.172  1.00  0.00     0.111 A
HETATM   13  C23 UNL     1       5.680  -4.265  -0.129  1.00  0.00     0.041 A
HETATM   14  C22 UNL     1       5.260  -5.205  -1.045  1.00  0.00     0.018 A
BRANCH  11  15
HETATM   15  O1  UNL     1       9.315  -4.812  -0.269  1.00  0.00    -0.358 OA
ATOM     16  H1  UNL     1       9.727  -3.982  -0.478  1.00  0.00     0.217 HD
ENDBRANCH  11  15
BRANCH  12  17
HETATM   17  O2  UNL     1       7.445  -3.150   1.097  1.00  0.00    -0.252 OA
BRANCH  17  18
HETATM   18  C25 UNL     1       7.871  -1.843   0.793  1.00  0.00     0.530 C
HETATM   19  F1  UNL     1       9.236  -1.764   1.018  1.00  0.00    -0.144 F
HETATM   20  F2  UNL     1       7.674  -1.588  -0.578  1.00  0.00    -0.144 F
HETATM   21  F3  UNL     1       7.153  -0.877   1.442  1.00  0.00    -0.144 F
ENDBRANCH  17  18
ENDBRANCH  12  17
ENDBRANCH   1   9
BRANCH   4  22
HETATM   22  C6  UNL     1       2.664  -7.976  -4.462  1.00  0.00     0.036 C
HETATM   23  C7  UNL     1       2.318  -9.354  -4.964  1.00  0.00     0.011 C
HETATM   24  C8  UNL     1       0.891  -9.725  -4.793  1.00  0.00     0.001 C
HETATM   25  C9  UNL     1      -0.073  -8.582  -4.894  1.00  0.00     0.000 C
HETATM   26  C10 UNL     1       0.340  -7.384  -4.076  1.00  0.00     0.001 C
HETATM   27  C11 UNL     1       1.662  -7.608  -3.374  1.00  0.00     0.011 C
ENDBRANCH   4  22
BRANCH   6  28
HETATM   28  N2  UNL     1       7.204  -9.781  -4.533  1.00  0.00    -0.366 N
HETATM   29  C14 UNL     1       7.018 -10.565  -5.739  1.00  0.00     0.125 C
HETATM   30  C15 UNL     1       8.177 -11.501  -5.825  1.00  0.00     0.031 C
HETATM   31  C16 UNL     1       8.638 -11.573  -4.376  1.00  0.00    -0.020 C
HETATM   32  C17 UNL     1      10.060 -12.070  -4.281  1.00  0.00     0.039 C
HETATM   33  C20 UNL     1       7.707 -12.464  -3.621  1.00  0.00     0.039 C
HETATM   34  C21 UNL     1       8.490 -10.137  -3.944  1.00  0.00     0.134 C
HETATM   35  C18 UNL     1      10.008 -13.581  -4.440  1.00  0.00     0.233 C
HETATM   36  N3  UNL     1       9.472 -14.131  -3.217  1.00  0.00    -0.075 N
HETATM   37  C19 UNL     1       8.512 -13.256  -2.623  1.00  0.00     0.233 C
ATOM     38  H32 UNL     1       9.084 -15.063  -3.366  1.00  0.00     0.277 HD
ATOM     39  H31 UNL     1      10.214 -14.372  -2.560  1.00  0.00     0.277 HD
ENDBRANCH   6  28
TORSDOF 6
ENDMDL