MODEL 4
REMARK VINA RESULT: -9.173591424      3.428      8.898
REMARK  6 active torsions:
REMARK  status: ('A' for Active; 'I' for Inactive)
REMARK    1  A    between atoms: C2_2  and  C4_4
REMARK    2  A    between atoms: C7_9  and  C8_10
REMARK    3  A    between atoms: C10_12  and  N2_13
REMARK    4  A    between atoms: C13_16  and  N3_17
REMARK    5  A    between atoms: C21_25  and  C22_26
REMARK    6  A    between atoms: C23_30  and  O1_31
ROOT
HETATM    1  C8  UNL     1       3.324  -8.092  -2.825  1.00  0.00     0.044 A
HETATM    2  C9  UNL     1       3.489  -9.475  -2.623  1.00  0.00     0.047 A
HETATM    3  C10 UNL     1       2.585 -10.387  -3.115  1.00  0.00     0.032 A
HETATM    4  C20 UNL     1       1.501  -9.956  -3.816  1.00  0.00     0.048 A
HETATM    5  C21 UNL     1       1.303  -8.642  -4.033  1.00  0.00     0.084 A
HETATM    6  C23 UNL     1       2.225  -7.689  -3.533  1.00  0.00     0.094 A
ENDROOT
BRANCH   1   7
HETATM    7  C7  UNL     1       4.316  -7.179  -2.276  1.00  0.00     0.119 A
HETATM    8  N1  UNL     1       5.654  -7.183  -2.551  1.00  0.00    -0.339 N
HETATM    9  C6  UNL     1       6.272  -6.177  -1.849  1.00  0.00     0.069 A
ATOM     10  H1  UNL     1       6.123  -7.833  -3.181  1.00  0.00     0.167 HD
HETATM   11  C5  UNL     1       7.517  -5.681  -1.694  1.00  0.00     0.047 A
HETATM   12  C24 UNL     1       5.266  -5.577  -1.152  1.00  0.00     0.103 A
HETATM   13  C4  UNL     1       7.662  -4.615  -0.846  1.00  0.00    -0.010 A
HETATM   14  S1  UNL     1       6.074  -4.340  -0.299  1.00  0.00    -0.074 SA
HETATM   15  N4  UNL     1       4.081  -6.194  -1.419  1.00  0.00    -0.334 N
ATOM     16  H4  UNL     1       3.174  -5.943  -1.028  1.00  0.00     0.168 HD
BRANCH  13  17
HETATM   17  C2  UNL     1       8.927  -3.874  -0.489  1.00  0.00     0.018 C
HETATM   18  C1  UNL     1      10.002  -4.113  -1.525  1.00  0.00     0.015 C
HETATM   19  C3  UNL     1       8.620  -2.413  -0.428  1.00  0.00     0.015 C
ENDBRANCH  13  17
ENDBRANCH   1   7
BRANCH   6  20
HETATM   20  O1  UNL     1       1.966  -6.385  -3.787  1.00  0.00    -0.359 OA
ATOM     21  H1  UNL     1       1.114  -5.995  -3.626  1.00  0.00     0.217 HD
ENDBRANCH   6  20
BRANCH   3  22
HETATM   22  N2  UNL     1       2.758 -11.785  -2.907  1.00  0.00    -0.379 N
HETATM   23  C11 UNL     1       2.331 -12.845  -3.807  1.00  0.00     0.125 C
HETATM   24  C12 UNL     1       2.434 -14.063  -2.963  1.00  0.00     0.046 C
HETATM   25  C13 UNL     1       3.612 -13.816  -2.054  1.00  0.00     0.103 C
HETATM   26  C19 UNL     1       3.398 -12.349  -1.735  1.00  0.00     0.148 C
BRANCH  25  27
HETATM   27  N3  UNL     1       4.875 -13.968  -2.688  1.00  0.00    -0.383 N
HETATM   28  C14 UNL     1       5.234 -15.246  -3.120  1.00  0.00     0.059 C
HETATM   29  C15 UNL     1       6.560 -15.575  -2.550  1.00  0.00     0.046 C
HETATM   30  C16 UNL     1       7.217 -14.183  -2.510  1.00  0.00     0.030 C
HETATM   31  C17 UNL     1       5.991 -13.350  -2.074  1.00  0.00     0.080 C
HETATM   32  C18 UNL     1       6.014 -13.326  -0.582  1.00  0.00     0.032 C
ENDBRANCH  25  27
ENDBRANCH   3  22
BRANCH   5  33
HETATM   33  C22 UNL     1       0.116  -8.137  -4.802  1.00  0.00     0.420 C
HETATM   34  F1  UNL     1      -0.515  -7.115  -4.141  1.00  0.00    -0.166 F
HETATM   35  F2  UNL     1       0.513  -7.757  -6.088  1.00  0.00    -0.166 F
HETATM   36  F3  UNL     1      -0.760  -9.189  -4.955  1.00  0.00    -0.166 F
ENDBRANCH   5  33
TORSDOF 6
ENDMDL