MODEL 5
REMARK VINA RESULT: -9.770444374      2.957      8.396
REMARK  8 active torsions:
REMARK  status: ('A' for Active; 'I' for Inactive)
REMARK    1  A    between atoms: N1_1  and  N2_4
REMARK    2  A    between atoms: N2_4  and  C1_6
REMARK    3  A    between atoms: C3_10  and  C4_11
REMARK       I    between atoms: C4_11  and  N4_13
REMARK    4  A    between atoms: N4_13  and  C5_15
REMARK    5  A    between atoms: C5_15  and  C6_16
REMARK    6  A    between atoms: C6_16  and  N5_17
REMARK       I    between atoms: N5_17  and  C7_19
REMARK    7  A    between atoms: C7_19  and  C8_21
REMARK    8  A    between atoms: C12_25  and  N6_26
ROOT
HETATM    1  C5  UNL     1      58.995  -7.752  42.924  1.00  0.00     0.142 C
ENDROOT
BRANCH   1   2
HETATM    2  N4  UNL     1      59.115  -8.915  43.730  1.00  0.00    -0.354 N
HETATM    3  C4  UNL     1      58.655  -9.016  45.065  1.00  0.00     0.271 C
HETATM    4  O1  UNL     1      58.095  -8.004  45.589  1.00  0.00    -0.266 OA
ATOM      5  H4  UNL     1      59.564  -9.733  43.319  1.00  0.00     0.162 HD
BRANCH   3   6
HETATM    6  C3  UNL     1      58.790 -10.214  45.867  1.00  0.00     0.142 A
HETATM    7  N3  UNL     1      57.712 -10.826  46.370  1.00  0.00    -0.355 N
HETATM    8  C2  UNL     1      57.818 -11.949  47.132  1.00  0.00     0.138 A
ATOM      9  H3  UNL     1      56.786 -10.440  46.179  1.00  0.00     0.165 HD
HETATM   10  C1  UNL     1      59.057 -12.483  47.401  1.00  0.00     0.136 A
HETATM   11  N11 UNL     1      60.140 -11.874  46.899  1.00  0.00    -0.327 N
HETATM   12  C16 UNL     1      60.023 -10.754  46.141  1.00  0.00     0.150 A
ATOM     13  H11 UNL     1      61.066 -12.257  47.089  1.00  0.00     0.168 HD
HETATM   14  N10 UNL     1      61.229 -10.182  45.656  1.00  0.00    -0.080 NA
BRANCH  10  15
HETATM   15  N2  UNL     1      59.211 -13.545  48.115  1.00  0.00    -0.291 N
ATOM     16  H2  UNL     1      59.221 -13.476  49.133  1.00  0.00     0.188 HD
BRANCH  15  17
HETATM   17  N1  UNL     1      59.363 -14.780  47.506  1.00  0.00    -0.344 N
ATOM     18  H12 UNL     1      58.911 -14.945  46.607  1.00  0.00     0.176 HD
ATOM     19  H11 UNL     1      59.918 -15.510  47.954  1.00  0.00     0.176 HD
ENDBRANCH  15  17
ENDBRANCH  10  15
ENDBRANCH   3   6
ENDBRANCH   1   2
BRANCH   1  20
HETATM   20  C6  UNL     1      59.339  -7.966  41.473  1.00  0.00     0.142 C
BRANCH  20  21
HETATM   21  N5  UNL     1      58.345  -8.810  40.822  1.00  0.00    -0.354 N
HETATM   22  C7  UNL     1      57.386  -8.300  39.931  1.00  0.00     0.268 C
HETATM   23  O2  UNL     1      57.408  -7.061  39.698  1.00  0.00    -0.266 OA
ATOM     24  H5  UNL     1      58.345  -9.810  41.020  1.00  0.00     0.162 HD
BRANCH  22  25
HETATM   25  C8  UNL     1      56.376  -9.160  39.275  1.00  0.00     0.102 A
HETATM   26  C9  UNL     1      56.767 -10.121  38.374  1.00  0.00     0.035 A
HETATM   27  C10 UNL     1      55.788 -10.893  37.786  1.00  0.00     0.006 A
HETATM   28  C11 UNL     1      54.466 -10.675  38.125  1.00  0.00     0.049 A
HETATM   29  C12 UNL     1      54.067  -9.716  39.026  1.00  0.00     0.110 A
HETATM   30  N9  UNL     1      55.076  -8.990  39.566  1.00  0.00    -0.338 N
ATOM     31  H9  UNL     1      54.832  -8.266  40.241  1.00  0.00     0.167 HD
BRANCH  29  32
HETATM   32  N6  UNL     1      52.722  -9.457  39.384  1.00  0.00    -0.306 N
HETATM   33  C13 UNL     1      51.587  -9.968  38.600  1.00  0.00     0.153 C
HETATM   34  C14 UNL     1      50.471  -9.039  39.018  1.00  0.00     0.142 C
HETATM   35  N7  UNL     1      50.928  -8.496  40.268  1.00  0.00    -0.363 N
HETATM   36  C15 UNL     1      52.199  -8.741  40.460  1.00  0.00     0.192 C
ATOM     37  H7  UNL     1      50.336  -7.984  40.922  1.00  0.00     0.162 HD
HETATM   38  N8  UNL     1      52.867  -8.313  41.627  1.00  0.00    -0.063 NA
ENDBRANCH  29  32
ENDBRANCH  22  25
ENDBRANCH  20  21
ENDBRANCH   1  20
TORSDOF 8
ENDMDL