MODEL 2
REMARK VINA RESULT: -8.744712747      2.131      3.539
REMARK  11 active torsions:
REMARK  status: ('A' for Active; 'I' for Inactive)
REMARK    1  A    between atoms: C2_2  and  O1_3
REMARK    2  A    between atoms: O1_3  and  C3_4
REMARK    3  A    between atoms: C3_4  and  C4_6
REMARK    4  A    between atoms: C4_6  and  C5_7
REMARK    5  A    between atoms: C5_7  and  N1_8
REMARK    6  A    between atoms: C8_17  and  C9_18
REMARK    7  A    between atoms: C9_18  and  O3_19
REMARK    8  A    between atoms: C9_18  and  N3_21
REMARK    9  A    between atoms: C10_23  and  C12_25
REMARK       I    between atoms: C12_25  and  N4_27
REMARK   10  A    between atoms: N4_27  and  N5_28
REMARK   11  A    between atoms: N5_28  and  C13_30
ROOT
HETATM    1  C9  UNL     1      56.468  -9.026  43.256  1.00  0.00     0.249 C
ENDROOT
BRANCH   1   2
HETATM    2  C8  UNL     1      57.373  -9.651  44.256  1.00  0.00     0.204 C
HETATM    3  C6  UNL     1      58.294  -8.583  44.891  1.00  0.00     0.219 C
HETATM    4  N2  UNL     1      59.049  -9.511  45.797  1.00  0.00    -0.025 N
HETATM    5  C7  UNL     1      59.273  -8.103  43.879  1.00  0.00     0.043 C
HETATM    6  C4  UNL     1      58.851 -10.814  45.208  1.00  0.00     0.339 C
ATOM      7  H22 UNL     1      58.779  -9.450  46.779  1.00  0.00     0.282 HD
ATOM      8  H21 UNL     1      60.027  -9.258  45.937  1.00  0.00     0.282 HD
HETATM    9  O5  UNL     1      58.301 -10.551  43.917  1.00  0.00    -0.333 OA
BRANCH   6  10
HETATM   10  C3  UNL     1      57.746 -11.482  45.977  1.00  0.00     0.325 C
HETATM   11  O2  UNL     1      57.376 -11.080  47.136  1.00  0.00    -0.260 OA
BRANCH  10  12
HETATM   12  O1  UNL     1      57.053 -12.551  45.482  1.00  0.00    -0.318 OA
BRANCH  12  13
HETATM   13  C2  UNL     1      56.608 -13.575  46.382  1.00  0.00     0.174 C
HETATM   14  C1  UNL     1      57.128 -14.868  45.753  1.00  0.00     0.034 C
ENDBRANCH  12  13
ENDBRANCH  10  12
ENDBRANCH   6  10
BRANCH   6  15
HETATM   15  C5  UNL     1      60.076 -11.665  45.114  1.00  0.00     0.309 C
BRANCH  15  16
HETATM   16  N1  UNL     1      60.126 -12.616  46.218  1.00  0.00    -0.074 N
ATOM     17  H13 UNL     1      59.534 -12.324  46.995  1.00  0.00     0.274 HD
ATOM     18  H12 UNL     1      59.655 -13.490  45.986  1.00  0.00     0.274 HD
ATOM     19  H11 UNL     1      61.090 -12.772  46.514  1.00  0.00     0.274 HD
ENDBRANCH  15  16
ENDBRANCH   6  15
ENDBRANCH   1   2
BRANCH   1  20
HETATM   20  O3  UNL     1      55.848  -8.011  43.925  1.00  0.00    -0.374 OA
ATOM     21  H3  UNL     1      54.969  -8.329  44.095  1.00  0.00     0.212 HD
ENDBRANCH   1  20
BRANCH   1  22
HETATM   22  N3  UNL     1      56.994  -8.628  41.993  1.00  0.00    -0.360 N
HETATM   23  C10 UNL     1      56.276  -8.597  40.988  1.00  0.00     0.088 C
HETATM   24  C11 UNL     1      54.876  -8.916  40.788  1.00  0.00     0.075 C
ATOM     25  H3  UNL     1      57.977  -8.365  41.917  1.00  0.00     0.162 HD
BRANCH  23  26
HETATM   26  C12 UNL     1      57.097  -8.178  39.591  1.00  0.00     0.357 C
HETATM   27  O4  UNL     1      57.565  -7.331  39.773  1.00  0.00    -0.248 OA
HETATM   28  N4  UNL     1      56.696  -9.339  38.782  1.00  0.00    -0.265 NA
BRANCH  28  29
HETATM   29  N5  UNL     1      56.357 -10.333  38.076  1.00  0.00    -0.062 N
ATOM     30  H5  UNL     1      57.125 -10.891  37.702  1.00  0.00     0.221 HD
BRANCH  29  31
HETATM   31  C13 UNL     1      55.019 -10.789  37.726  1.00  0.00     0.699 C
HETATM   32  N6  UNL     1      54.443 -11.783  38.245  1.00  0.00    -0.224 N
HETATM   33  C14 UNL     1      53.124 -12.158  37.831  1.00  0.00     0.139 C
ATOM     34  H6  UNL     1      54.920 -12.324  38.966  1.00  0.00     0.177 HD
HETATM   35  C15 UNL     1      52.302 -10.956  37.304  1.00  0.00     0.040 C
HETATM   36  C16 UNL     1      53.118 -10.424  36.173  1.00  0.00     0.139 C
HETATM   37  N7  UNL     1      54.408 -10.020  36.721  1.00  0.00    -0.224 N
ATOM     38  H7  UNL     1      54.868  -9.177  36.373  1.00  0.00     0.177 HD
ENDBRANCH  29  31
ENDBRANCH  28  29
ENDBRANCH  23  26
ENDBRANCH   1  22
TORSDOF 11
ENDMDL