MODEL 5
REMARK VINA RESULT: -7.969283853      2.396      7.791
REMARK  11 active torsions:
REMARK  status: ('A' for Active; 'I' for Inactive)
REMARK    1  A    between atoms: O1_2  and  N1_3
REMARK    2  A    between atoms: N1_3  and  O2_4
REMARK    3  A    between atoms: N1_3  and  C2_6
REMARK    4  A    between atoms: C2_6  and  C3_7
REMARK    5  A    between atoms: C3_7  and  C4_8
REMARK    6  A    between atoms: C4_8  and  N2_9
REMARK       I    between atoms: N2_9  and  C5_11
REMARK       I    between atoms: C5_11  and  N5_16
REMARK    7  A    between atoms: N5_16  and  C7_18
REMARK    8  A    between atoms: C9_20  and  O3_21
REMARK    9  A    between atoms: O3_21  and  C10_22
REMARK   10  A    between atoms: C11_25  and  N7_26
REMARK   11  A    between atoms: C16_38  and  N10_39
ROOT
HETATM    1  N2  UNL     1      58.643 -12.613  46.809  1.00  0.00    -0.226 N
ATOM      2  H2  UNL     1      58.365 -12.457  47.778  1.00  0.00     0.177 HD
HETATM    3  C5  UNL     1      58.432 -11.586  45.865  1.00  0.00     0.683 C
HETATM    4  N3  UNL     1      57.201 -11.355  45.492  1.00  0.00    -0.126 N
ATOM      5  H3  UNL     1      57.024 -10.618  44.810  1.00  0.00     0.197 HD
HETATM    6  C6  UNL     1      56.130 -12.073  45.988  1.00  0.00     0.196 C
HETATM    7  N4  UNL     1      55.221 -12.663  46.409  1.00  0.00    -0.171 NA
HETATM    8  N5  UNL     1      59.516 -10.834  45.340  1.00  0.00    -0.219 N
ATOM      9  H5  UNL     1      60.408 -11.281  45.125  1.00  0.00     0.178 HD
ENDROOT
BRANCH   1  10
HETATM   10  C4  UNL     1      59.249 -13.896  46.442  1.00  0.00     0.139 C
BRANCH  10  11
HETATM   11  C3  UNL     1      58.353 -15.005  46.878  1.00  0.00     0.039 C
BRANCH  11  12
HETATM   12  C2  UNL     1      58.122 -15.017  48.351  1.00  0.00     0.155 C
BRANCH  12  13
HETATM   13  N1  UNL     1      56.850 -14.510  48.775  1.00  0.00    -0.072 NA
BRANCH  13  14
HETATM   14  O1  UNL     1      55.871 -15.360  48.280  1.00  0.00    -0.284 OA
HETATM   15  C1  UNL     1      55.742 -16.473  49.126  1.00  0.00     0.232 C
ENDBRANCH  13  14
BRANCH  13  16
HETATM   16  O2  UNL     1      56.667 -14.622  50.137  1.00  0.00    -0.289 OA
ATOM     17  H2  UNL     1      57.553 -14.777  50.444  1.00  0.00     0.239 HD
ENDBRANCH  13  16
ENDBRANCH  12  13
ENDBRANCH  11  12
ENDBRANCH  10  11
ENDBRANCH   1  10
BRANCH   8  18
HETATM   18  C7  UNL     1      59.322  -9.402  45.116  1.00  0.00     0.132 C
HETATM   19  C8  UNL     1      58.640  -9.144  43.800  1.00  0.00     0.060 C
HETATM   20  C9  UNL     1      59.055  -7.811  43.296  1.00  0.00     0.132 C
HETATM   21  C14 UNL     1      60.518  -7.911  42.939  1.00  0.00     0.035 C
HETATM   22  C15 UNL     1      61.295  -8.130  44.186  1.00  0.00     0.037 C
HETATM   23  C16 UNL     1      60.558  -8.634  45.361  1.00  0.00     0.206 C
BRANCH  20  24
HETATM   24  O3  UNL     1      58.259  -7.255  42.305  1.00  0.00    -0.328 OA
BRANCH  24  25
HETATM   25  C10 UNL     1      57.442  -7.989  41.480  1.00  0.00     0.186 A
HETATM   26  N6  UNL     1      57.869  -8.564  40.412  1.00  0.00    -0.324 N
HETATM   27  C11 UNL     1      56.813  -9.269  39.726  1.00  0.00     0.391 A
ATOM     28  H6  UNL     1      58.836  -8.526  40.090  1.00  0.00     0.165 HD
HETATM   29  N8  UNL     1      55.631  -9.048  40.538  1.00  0.00    -0.325 N
HETATM   30  C12 UNL     1      54.300  -9.543  40.291  1.00  0.00     0.155 C
HETATM   31  C13 UNL     1      56.013  -8.245  41.644  1.00  0.00     0.151 A
HETATM   32  N9  UNL     1      55.290  -7.807  42.617  1.00  0.00    -0.382 N
ATOM     33  H92 UNL     1      55.565  -7.230  43.412  1.00  0.00     0.157 HD
ATOM     34  H91 UNL     1      54.292  -7.986  42.732  1.00  0.00     0.157 HD
BRANCH  27  35
HETATM   35  N7  UNL     1      56.609  -8.726  38.388  1.00  0.00    -0.040 N
ATOM     36  H73 UNL     1      57.460  -8.302  38.019  1.00  0.00     0.279 HD
ATOM     37  H72 UNL     1      56.492  -9.466  37.695  1.00  0.00     0.279 HD
ATOM     38  H71 UNL     1      55.826  -8.072  38.375  1.00  0.00     0.279 HD
ENDBRANCH  27  35
ENDBRANCH  24  25
ENDBRANCH  20  24
BRANCH  23  39
HETATM   39  N10 UNL     1      60.340  -7.557  46.346  1.00  0.00    -0.073 N
ATOM     40 3H10 UNL     1      59.822  -6.778  45.939  1.00  0.00     0.274 HD
ATOM     41 2H10 UNL     1      59.668  -7.836  47.062  1.00  0.00     0.274 HD
ATOM     42 1H10 UNL     1      61.219  -7.246  46.761  1.00  0.00     0.274 HD
ENDBRANCH  23  39
ENDBRANCH   8  18
TORSDOF 11
ENDMDL