MODEL 3
REMARK VINA RESULT: -8.031451596      2.454      8.505
REMARK  6 active torsions:
REMARK  status: ('A' for Active; 'I' for Inactive)
REMARK    1  A    between atoms: C3_3  and  C4_4
REMARK       I    between atoms: C4_4  and  N1_6
REMARK       I    between atoms: N1_6  and  C5_8
REMARK       I    between atoms: C5_8  and  N2_9
REMARK       I    between atoms: C5_8  and  N3_13
REMARK    2  A    between atoms: C8_21  and  C9_22
REMARK    3  A    between atoms: C9_22  and  C10_23
REMARK    4  A    between atoms: C10_23  and  C11_24
REMARK    5  A    between atoms: C14_32  and  N7_33
REMARK    6  A    between atoms: N7_33  and  C15_35
ROOT
HETATM    1  C15 UNL     1      54.928  -7.568  41.298  1.00  0.00     0.262 C
HETATM    2  C16 UNL     1      55.417  -8.002  42.628  1.00  0.00     0.079 C
HETATM    3  N8  UNL     1      55.800  -8.364  43.663  1.00  0.00    -0.196 NA
ENDROOT
BRANCH   1   4
HETATM    4  N7  UNL     1      53.521  -7.831  41.155  1.00  0.00    -0.214 N
ATOM      5  H7  UNL     1      52.853  -7.502  41.853  1.00  0.00     0.178 HD
BRANCH   4   6
HETATM    6  C14 UNL     1      53.083  -8.564  40.014  1.00  0.00     0.678 C
HETATM    7  N6  UNL     1      52.483  -9.850  39.976  1.00  0.00    -0.202 N
HETATM    8  C12 UNL     1      51.921 -10.001  38.657  1.00  0.00     0.176 C
ATOM      9  H6  UNL     1      52.456 -10.534  40.733  1.00  0.00     0.179 HD
HETATM   10  C7  UNL     1      51.881 -11.372  38.166  1.00  0.00     0.032 A
HETATM   11  C13 UNL     1      50.487  -9.514  38.719  1.00  0.00     0.168 C
HETATM   12  C17 UNL     1      52.679  -9.042  37.855  1.00  0.00     0.271 C
HETATM   13  C6  UNL     1      50.564 -11.599  37.749  1.00  0.00     0.111 A
HETATM   14  C8  UNL     1      52.807 -12.386  38.066  1.00  0.00    -0.036 A
HETATM   15  N4  UNL     1      50.186 -12.771  37.260  1.00  0.00    -0.337 N
HETATM   16  N5  UNL     1      49.768 -10.433  37.917  1.00  0.00    -0.372 N
HETATM   17  C3  UNL     1      51.051 -13.789  37.144  1.00  0.00     0.108 A
ATOM     18  H4  UNL     1      49.218 -12.902  36.966  1.00  0.00     0.167 HD
HETATM   19  C2  UNL     1      52.366 -13.590  37.552  1.00  0.00    -0.023 A
HETATM   20  C1  UNL     1      53.302 -14.712  37.455  1.00  0.00     0.051 C
ATOM     21  H5  UNL     1      48.837 -10.284  37.527  1.00  0.00     0.161 HD
HETATM   22  N9  UNL     1      53.198  -8.092  38.796  1.00  0.00    -0.158 N
HETATM   23  O3  UNL     1      52.892  -8.972  36.606  1.00  0.00    -0.269 OA
ATOM     24  H9  UNL     1      53.598  -7.186  38.554  1.00  0.00     0.187 HD
BRANCH  17  25
HETATM   25  C4  UNL     1      50.533 -15.025  36.590  1.00  0.00     0.271 C
HETATM   26  O1  UNL     1      49.459 -15.513  36.956  1.00  0.00    -0.266 OA
HETATM   27  N1  UNL     1      51.267 -15.710  35.591  1.00  0.00    -0.306 N
HETATM   28  C5  UNL     1      50.834 -16.943  34.981  1.00  0.00     0.483 C
ATOM     29  H1  UNL     1      52.154 -15.309  35.286  1.00  0.00     0.166 HD
HETATM   30  N2  UNL     1      50.596 -16.654  33.571  1.00  0.00    -0.033 N
HETATM   31  N3  UNL     1      51.766 -18.014  35.058  1.00  0.00    -0.033 N
ATOM     32  H23 UNL     1      49.947 -15.882  33.423  1.00  0.00     0.278 HD
ATOM     33  H22 UNL     1      51.402 -16.236  33.105  1.00  0.00     0.278 HD
ATOM     34  H21 UNL     1      50.290 -17.526  33.139  1.00  0.00     0.278 HD
ATOM     35  H33 UNL     1      52.665 -17.726  34.669  1.00  0.00     0.278 HD
ATOM     36  H32 UNL     1      52.035 -18.177  36.028  1.00  0.00     0.278 HD
ATOM     37  H31 UNL     1      51.460 -18.886  34.625  1.00  0.00     0.278 HD
ENDBRANCH  17  25
BRANCH  14  38
HETATM   38  C9  UNL     1      54.186 -12.200  38.453  1.00  0.00     0.047 C
BRANCH  38  39
HETATM   39  C10 UNL     1      55.057 -11.454  37.468  1.00  0.00     0.074 C
BRANCH  39  40
HETATM   40  C11 UNL     1      55.996 -10.540  38.210  1.00  0.00     0.231 C
HETATM   41  O2  UNL     1      55.737 -10.347  39.385  1.00  0.00    -0.307 OA
ENDBRANCH  39  40
ENDBRANCH  38  39
ENDBRANCH  14  38
ENDBRANCH   4   6
ENDBRANCH   1   4
TORSDOF 6
ENDMDL