MODEL 3
REMARK VINA RESULT: -9.308271014      1.425      1.910
REMARK  9 active torsions:
REMARK  status: ('A' for Active; 'I' for Inactive)
REMARK    1  A    between atoms: N1_1  and  C1_4
REMARK    2  A    between atoms: C2_7  and  C3_8
REMARK    3  A    between atoms: C3_8  and  C4_9
REMARK    4  A    between atoms: C4_9  and  C5_10
REMARK    5  A    between atoms: C5_10  and  S1_11
REMARK    6  A    between atoms: C6_17  and  N4_18
REMARK    7  A    between atoms: N4_18  and  N5_20
REMARK    8  A    between atoms: N5_20  and  C7_22
REMARK    9  A    between atoms: N7_26  and  C9_27
ROOT
HETATM    1  C1  UNL     1      58.226 -15.586  47.442  1.00  0.00     0.691 A
HETATM    2  N2  UNL     1      56.985 -15.240  47.046  1.00  0.00    -0.180 N
ATOM      3  H2  UNL     1      56.214 -15.888  47.208  1.00  0.00     0.185 HD
HETATM    4  C2  UNL     1      56.738 -14.064  46.444  1.00  0.00     0.113 A
HETATM    5  N3  UNL     1      57.762 -13.217  46.237  1.00  0.00    -0.178 N
ATOM      6  H3  UNL     1      57.605 -12.316  45.785  1.00  0.00     0.185 HD
HETATM    7  C6  UNL     1      59.002 -13.578  46.639  1.00  0.00     0.712 A
HETATM    8  N10 UNL     1      59.252 -14.754  47.241  1.00  0.00    -0.021 N
ATOM      9  H10 UNL     1      60.196 -15.003  47.534  1.00  0.00     0.203 HD
ENDROOT
BRANCH   7  10
HETATM   10  N4  UNL     1      59.957 -12.769  46.436  1.00  0.00    -0.130 N
ATOM     11  H4  UNL     1      60.665 -12.638  47.160  1.00  0.00     0.205 HD
BRANCH  10  12
HETATM   12  N5  UNL     1      60.058 -12.057  45.247  1.00  0.00    -0.274 N
ATOM     13  H5  UNL     1      60.166 -12.579  44.377  1.00  0.00     0.189 HD
BRANCH  12  14
HETATM   14  C7  UNL     1      60.018 -10.630  45.180  1.00  0.00     0.111 C
HETATM   15  N6  UNL     1      58.894 -10.139  44.830  1.00  0.00    -0.361 N
HETATM   16  C8  UNL     1      58.454  -8.760  44.647  1.00  0.00     0.250 C
ATOM     17  H6  UNL     1      58.173 -10.836  44.645  1.00  0.00     0.162 HD
HETATM   18  N7  UNL     1      59.461  -8.156  43.744  1.00  0.00    -0.335 N
HETATM   19  C12 UNL     1      60.821  -8.011  44.058  1.00  0.00     0.188 C
HETATM   20  N8  UNL     1      61.448  -6.878  43.482  1.00  0.00    -0.064 NA
HETATM   21  N9  UNL     1      61.564  -8.760  44.799  1.00  0.00    -0.357 N
HETATM   22  C13 UNL     1      61.271  -9.947  45.528  1.00  0.00     0.199 C
ATOM     23  H9  UNL     1      62.532  -8.447  44.875  1.00  0.00     0.162 HD
BRANCH  18  24
HETATM   24  C9  UNL     1      58.948  -7.740  42.497  1.00  0.00     0.088 A
HETATM   25  C10 UNL     1      57.754  -8.134  41.779  1.00  0.00     0.027 A
HETATM   26  C11 UNL     1      59.167  -8.507  41.228  1.00  0.00     0.027 A
ENDBRANCH  18  24
ENDBRANCH  12  14
ENDBRANCH  10  12
ENDBRANCH   7  10
BRANCH   4  27
HETATM   27  C3  UNL     1      55.331 -13.726  46.020  1.00  0.00     0.079 C
BRANCH  27  28
HETATM   28  C4  UNL     1      54.477 -14.870  46.495  1.00  0.00     0.025 C
BRANCH  28  29
HETATM   29  C5  UNL     1      53.092 -14.486  46.885  1.00  0.00     0.165 C
BRANCH  29  30
HETATM   30  S1  UNL     1      52.954 -13.624  48.404  1.00  0.00     0.101 S
HETATM   31  O1  UNL     1      51.589 -13.690  48.995  1.00  0.00    -0.595 OA
HETATM   32  O2  UNL     1      53.451 -12.193  48.291  1.00  0.00    -0.595 OA
HETATM   33  O3  UNL     1      54.013 -14.369  49.507  1.00  0.00    -0.595 OA
ENDBRANCH  29  30
ENDBRANCH  28  29
ENDBRANCH  27  28
ENDBRANCH   4  27
BRANCH   1  34
HETATM   34  N1  UNL     1      58.459 -16.723  48.022  1.00  0.00    -0.234 N
ATOM     35  H12 UNL     1      57.756 -17.458  47.947  1.00  0.00     0.174 HD
ATOM     36  H11 UNL     1      59.320 -16.887  48.542  1.00  0.00     0.174 HD
ENDBRANCH   1  34
TORSDOF 9
ENDMDL