MODEL 4
REMARK VINA RESULT: -9.243739967      3.540      8.423
REMARK  8 active torsions:
REMARK  status: ('A' for Active; 'I' for Inactive)
REMARK    1  A    between atoms: N3_10  and  C6_11
REMARK    2  A    between atoms: C6_11  and  C7_12
REMARK       I    between atoms: C7_12  and  N4_14
REMARK    3  A    between atoms: N4_14  and  C8_16
REMARK    4  A    between atoms: C8_16  and  C9_17
REMARK    5  A    between atoms: C9_17  and  N5_18
REMARK    6  A    between atoms: N6_21  and  C12_22
REMARK    7  A    between atoms: C13_25  and  N8_26
REMARK    8  A    between atoms: C16_35  and  N11_36
ROOT
HETATM    1  C7  UNL     1      57.747 -11.529  46.201  1.00  0.00     0.236 C
HETATM    2  O1  UNL     1      57.273 -10.962  47.214  1.00  0.00    -0.272 OA
HETATM    3  N4  UNL     1      58.986 -11.171  45.625  1.00  0.00    -0.355 N
ATOM      4  H4  UNL     1      59.298 -11.688  44.802  1.00  0.00     0.162 HD
ENDROOT
BRANCH   3   5
HETATM    5  C8  UNL     1      59.838 -10.123  46.125  1.00  0.00     0.167 C
BRANCH   5   6
HETATM    6  C9  UNL     1      61.243 -10.238  45.552  1.00  0.00     0.087 C
BRANCH   6   7
HETATM    7  N5  UNL     1      61.442  -9.509  44.368  1.00  0.00    -0.349 N
HETATM    8  C10 UNL     1      61.660 -10.176  43.190  1.00  0.00     0.088 C
HETATM    9  C11 UNL     1      60.892  -9.677  41.992  1.00  0.00     0.186 C
HETATM   10  N6  UNL     1      60.218  -8.425  42.257  1.00  0.00    -0.206 N
HETATM   11  C14 UNL     1      60.677  -7.478  43.230  1.00  0.00     0.186 C
HETATM   12  C15 UNL     1      61.220  -8.146  44.476  1.00  0.00     0.088 C
BRANCH  10  13
HETATM   13  C12 UNL     1      59.045  -8.141  41.515  1.00  0.00     0.710 A
HETATM   14  N7  UNL     1      58.241  -7.056  41.713  1.00  0.00    -0.020 N
HETATM   15  C13 UNL     1      57.208  -7.084  40.850  1.00  0.00     0.705 A
ATOM     16  H7  UNL     1      58.400  -6.330  42.412  1.00  0.00     0.203 HD
HETATM   17  N9  UNL     1      57.377  -8.181  40.122  1.00  0.00    -0.118 N
HETATM   18  N10 UNL     1      58.470  -8.812  40.517  1.00  0.00    -0.117 N
ATOM     19  H9  UNL     1      56.758  -8.491  39.373  1.00  0.00     0.206 HD
ATOM     20  H10 UNL     1      58.820  -9.683  40.117  1.00  0.00     0.206 HD
BRANCH  15  21
HETATM   21  N8  UNL     1      56.284  -6.176  40.807  1.00  0.00    -0.233 N
ATOM     22  H82 UNL     1      56.351  -5.164  40.711  1.00  0.00     0.174 HD
ATOM     23  H81 UNL     1      55.287  -6.382  40.872  1.00  0.00     0.174 HD
ENDBRANCH  15  21
ENDBRANCH  10  13
ENDBRANCH   6   7
ENDBRANCH   5   6
ENDBRANCH   3   5
BRANCH   1  24
HETATM   24  C6  UNL     1      56.910 -12.626  45.630  1.00  0.00     0.234 C
BRANCH  24  25
HETATM   25  N3  UNL     1      56.994 -13.797  46.504  1.00  0.00    -0.318 N
HETATM   26  C3  UNL     1      56.011 -14.278  47.304  1.00  0.00     0.141 A
HETATM   27  N1  UNL     1      54.749 -13.850  47.537  1.00  0.00    -0.330 N
HETATM   28  C4  UNL     1      56.432 -15.402  47.981  1.00  0.00     0.122 A
HETATM   29  C2  UNL     1      53.959 -14.515  48.401  1.00  0.00     0.080 A
ATOM     30  H1  UNL     1      54.396 -13.022  47.058  1.00  0.00     0.168 HD
HETATM   31  C1  UNL     1      52.558 -14.024  48.662  1.00  0.00     0.089 C
HETATM   32  N12 UNL     1      54.349 -15.609  49.068  1.00  0.00    -0.331 N
HETATM   33  C16 UNL     1      55.595 -16.060  48.860  1.00  0.00     0.131 A
ATOM     34  H12 UNL     1      53.719 -16.084  49.714  1.00  0.00     0.168 HD
HETATM   35  N2  UNL     1      57.704 -15.591  47.567  1.00  0.00    -0.346 N
HETATM   36  C5  UNL     1      58.037 -14.633  46.688  1.00  0.00     0.185 A
ATOM     37  H2  UNL     1      58.317 -16.346  47.876  1.00  0.00     0.167 HD
BRANCH  33  38
HETATM   38  N11 UNL     1      56.018 -17.109  49.483  1.00  0.00    -0.383 N
ATOM     39 2H11 UNL     1      57.011 -17.216  49.691  1.00  0.00     0.157 HD
ATOM     40 1H11 UNL     1      55.356 -17.831  49.764  1.00  0.00     0.157 HD
ENDBRANCH  33  38
ENDBRANCH  24  25
ENDBRANCH   1  24
TORSDOF 8
ENDMDL