MODEL 2
REMARK VINA RESULT: -9.400083357      0.997      1.207
REMARK  8 active torsions:
REMARK  status: ('A' for Active; 'I' for Inactive)
REMARK    1  A    between atoms: N1_1  and  C1_4
REMARK    2  A    between atoms: N4_12  and  C5_13
REMARK    3  A    between atoms: C5_13  and  C6_14
REMARK    4  A    between atoms: C8_16  and  N5_17
REMARK    5  A    between atoms: C8_16  and  C9_21
REMARK    6  A    between atoms: C9_21  and  C10_22
REMARK    7  A    between atoms: C10_22  and  N6_23
REMARK       I    between atoms: N6_23  and  C11_25
REMARK    8  A    between atoms: C11_25  and  C12_27
ROOT
HETATM    1  C6  UNL     1      54.871  -9.535  39.676  1.00  0.00     0.142 C
HETATM    2  C7  UNL     1      56.282  -9.108  39.673  1.00  0.00     0.074 C
HETATM    3  C8  UNL     1      56.405  -8.028  40.733  1.00  0.00     0.148 C
HETATM    4  C16 UNL     1      54.962  -7.794  41.059  1.00  0.00     0.207 C
HETATM    5  O2  UNL     1      54.368  -9.044  40.895  1.00  0.00    -0.382 OA
ENDROOT
BRANCH   1   6
HETATM    6  C5  UNL     1      53.984  -9.038  38.520  1.00  0.00     0.164 C
BRANCH   6   7
HETATM    7  N4  UNL     1      53.048 -10.032  38.174  1.00  0.00    -0.314 N
HETATM    8  C4  UNL     1      51.658  -9.949  38.497  1.00  0.00     0.105 A
HETATM    9  C1  UNL     1      51.082  -8.950  39.231  1.00  0.00     0.129 A
HETATM   10  C3  UNL     1      50.846 -11.005  38.044  1.00  0.00     0.059 A
HETATM   11  N2  UNL     1      49.741  -9.015  39.492  1.00  0.00    -0.337 N
HETATM   12  C2  UNL     1      48.976 -10.029  39.051  1.00  0.00     0.182 A
ATOM     13  H2  UNL     1      49.307  -8.270  40.037  1.00  0.00     0.168 HD
HETATM   14  N3  UNL     1      49.525 -11.020  38.332  1.00  0.00    -0.352 N
ATOM     15  H3  UNL     1      48.942 -11.788  38.000  1.00  0.00     0.166 HD
HETATM   16  C18 UNL     1      51.347 -12.158  37.262  1.00  0.00     0.181 A
HETATM   17  N9  UNL     1      52.748 -12.108  37.029  1.00  0.00    -0.359 N
HETATM   18  C17 UNL     1      53.528 -11.179  37.420  1.00  0.00     0.191 A
ATOM     19  H9  UNL     1      53.164 -12.878  36.506  1.00  0.00     0.162 HD
HETATM   20  N8  UNL     1      54.911 -11.277  37.172  1.00  0.00    -0.063 NA
BRANCH   9  21
HETATM   21  N1  UNL     1      51.771  -7.995  39.693  1.00  0.00    -0.384 N
ATOM     22  H12 UNL     1      51.664  -7.045  39.338  1.00  0.00     0.157 HD
ATOM     23  H11 UNL     1      52.468  -8.172  40.417  1.00  0.00     0.157 HD
ENDBRANCH   9  21
ENDBRANCH   6   7
ENDBRANCH   1   6
BRANCH   3  24
HETATM   24  N5  UNL     1      57.022  -6.823  40.270  1.00  0.00    -0.068 N
ATOM     25  H53 UNL     1      56.923  -6.082  40.963  1.00  0.00     0.275 HD
ATOM     26  H52 UNL     1      58.038  -6.920  40.265  1.00  0.00     0.275 HD
ATOM     27  H51 UNL     1      56.690  -6.508  39.359  1.00  0.00     0.275 HD
ENDBRANCH   3  24
BRANCH   3  28
HETATM   28  C9  UNL     1      57.121  -8.542  41.954  1.00  0.00     0.060 C
BRANCH  28  29
HETATM   29  C10 UNL     1      58.504  -8.000  42.007  1.00  0.00     0.125 C
BRANCH  29  30
HETATM   30  N6  UNL     1      59.460  -8.941  42.562  1.00  0.00    -0.359 N
HETATM   31  C11 UNL     1      60.699  -8.507  43.069  1.00  0.00     0.248 C
HETATM   32  O1  UNL     1      60.975  -7.282  43.036  1.00  0.00    -0.271 OA
ATOM     33  H6  UNL     1      59.229  -9.934  42.585  1.00  0.00     0.162 HD
BRANCH  31  34
HETATM   34  C12 UNL     1      61.714  -9.411  43.646  1.00  0.00     0.277 C
HETATM   35  C13 UNL     1      61.404 -10.845  43.274  1.00  0.00     0.044 C
HETATM   36  C14 UNL     1      60.569 -11.346  44.415  1.00  0.00     0.030 C
HETATM   37  C15 UNL     1      60.924 -10.455  45.555  1.00  0.00     0.233 C
HETATM   38  N7  UNL     1      61.730  -9.371  45.089  1.00  0.00    -0.062 N
ATOM     39  H72 UNL     1      62.673  -9.381  45.477  1.00  0.00     0.278 HD
ATOM     40  H71 UNL     1      61.440  -8.469  45.466  1.00  0.00     0.278 HD
ENDBRANCH  31  34
ENDBRANCH  29  30
ENDBRANCH  28  29
ENDBRANCH   3  28
TORSDOF 8
ENDMDL