MODEL 3
REMARK VINA RESULT: -8.576107776      3.202      7.679
REMARK  8 active torsions:
REMARK  status: ('A' for Active; 'I' for Inactive)
REMARK       I    between atoms: C2_2  and  N1_4
REMARK    1  A    between atoms: N1_4  and  N2_6
REMARK       I    between atoms: N2_6  and  C3_8
REMARK    2  A    between atoms: C3_8  and  C4_10
REMARK       I    between atoms: C4_10  and  N3_12
REMARK    3  A    between atoms: N3_12  and  N4_14
REMARK    4  A    between atoms: C5_16  and  C6_17
REMARK    5  A    between atoms: C5_16  and  C9_29
REMARK    6  A    between atoms: C6_17  and  S1_18
REMARK    7  A    between atoms: S1_18  and  C7_19
REMARK       I    between atoms: C9_29  and  N8_31
REMARK    8  A    between atoms: N8_31  and  N9_33
ROOT
HETATM    1  N4  UNL     1      55.162 -13.030  46.393  1.00  0.00    -0.296 N
ATOM      2  H4  UNL     1      54.381 -12.450  46.697  1.00  0.00     0.187 HD
HETATM    3  C5  UNL     1      55.270 -14.243  46.851  1.00  0.00     0.104 C
ENDROOT
BRANCH   3   4
HETATM    4  C6  UNL     1      56.382 -15.135  46.448  1.00  0.00     0.146 C
BRANCH   4   5
HETATM    5  S1  UNL     1      57.665 -15.200  47.753  1.00  0.00    -0.086 SA
BRANCH   5   6
HETATM    6  C7  UNL     1      58.757 -13.808  47.505  1.00  0.00     0.168 A
HETATM    7  N5  UNL     1      59.655 -13.592  46.526  1.00  0.00    -0.300 N
HETATM    8  C8  UNL     1      60.271 -12.404  46.715  1.00  0.00     0.242 A
ATOM      9  H5  UNL     1      59.844 -14.232  45.754  1.00  0.00     0.171 HD
HETATM   10  N6  UNL     1      61.187 -11.829  46.012  1.00  0.00    -0.364 N
HETATM   11  O4  UNL     1      59.739 -11.909  47.812  1.00  0.00    -0.199 OA
ATOM     12  H62 UNL     1      61.599 -12.213  45.162  1.00  0.00     0.159 HD
ATOM     13  H61 UNL     1      61.652 -10.932  46.155  1.00  0.00     0.159 HD
HETATM   14  N7  UNL     1      58.855 -12.702  48.295  1.00  0.00    -0.235 N
ATOM     15  H7  UNL     1      58.309 -12.532  49.140  1.00  0.00     0.197 HD
ENDBRANCH   5   6
ENDBRANCH   4   5
ENDBRANCH   3   4
BRANCH   3  16
HETATM   16  C9  UNL     1      54.262 -14.709  47.780  1.00  0.00     0.284 C
HETATM   17  O5  UNL     1      54.352 -15.863  48.258  1.00  0.00    -0.265 OA
HETATM   18  N8  UNL     1      53.163 -13.901  48.172  1.00  0.00    -0.265 N
ATOM     19  H8  UNL     1      53.078 -12.959  47.789  1.00  0.00     0.190 HD
BRANCH  18  20
HETATM   20  N9  UNL     1      52.199 -14.356  49.063  1.00  0.00    -0.307 N
HETATM   21  C10 UNL     1      50.956 -14.311  48.677  1.00  0.00    -0.004 C
HETATM   22  C11 UNL     1      49.927 -14.797  49.629  1.00  0.00     0.064 C
HETATM   23  C12 UNL     1      50.557 -13.804  47.350  1.00  0.00     0.064 C
ATOM     24  H9  UNL     1      52.455 -14.711  49.984  1.00  0.00     0.186 HD
ENDBRANCH  18  20
ENDBRANCH   3  16
BRANCH   1  25
HETATM   25  N3  UNL     1      56.099 -12.504  45.485  1.00  0.00    -0.261 N
HETATM   26  C4  UNL     1      56.905 -11.410  45.877  1.00  0.00     0.329 C
HETATM   27  O3  UNL     1      56.774 -10.925  47.028  1.00  0.00    -0.261 OA
ATOM     28  H3  UNL     1      56.195 -12.907  44.553  1.00  0.00     0.190 HD
BRANCH  26  29
HETATM   29  C3  UNL     1      57.873 -10.861  44.954  1.00  0.00     0.329 C
HETATM   30  N2  UNL     1      58.059  -9.455  44.887  1.00  0.00    -0.259 N
ATOM     31  H2  UNL     1      57.507  -8.848  45.494  1.00  0.00     0.190 HD
HETATM   32  O2  UNL     1      58.534 -11.637  44.223  1.00  0.00    -0.261 OA
BRANCH  30  33
HETATM   33  N1  UNL     1      58.981  -8.890  44.009  1.00  0.00    -0.267 N
HETATM   34  C2  UNL     1      60.273  -8.572  44.485  1.00  0.00     0.232 C
HETATM   35  C1  UNL     1      61.333  -7.971  43.649  1.00  0.00     0.119 C
HETATM   36  O1  UNL     1      60.556  -8.806  45.683  1.00  0.00    -0.272 OA
ATOM     37  H1  UNL     1      58.728  -8.708  43.037  1.00  0.00     0.190 HD
ENDBRANCH  30  33
ENDBRANCH  26  29
ENDBRANCH   1  25
TORSDOF 8
ENDMDL