MODEL 1
REMARK VINA RESULT: -9.223318660      0.000      0.000
REMARK  10 active torsions:
REMARK  status: ('A' for Active; 'I' for Inactive)
REMARK    1  A    between atoms: C5_6  and  C6_7
REMARK    2  A    between atoms: C7_17  and  C8_18
REMARK    3  A    between atoms: C8_18  and  N7_19
REMARK    4  A    between atoms: N7_19  and  N8_20
REMARK       I    between atoms: N8_20  and  C9_22
REMARK       I    between atoms: C9_22  and  N9_24
REMARK    5  A    between atoms: N9_24  and  N10_26
REMARK    6  A    between atoms: N10_26  and  C10_28
REMARK    7  A    between atoms: C10_28  and  C11_29
REMARK    8  A    between atoms: C11_29  and  C12_30
REMARK    9  A    between atoms: C12_30  and  O2_33
REMARK   10  A    between atoms: N11_36  and  O3_37
ROOT
HETATM    1  C1  UNL     1      50.732  -8.013  40.055  1.00  0.00     0.072 C
HETATM    2  C2  UNL     1      51.520  -9.138  39.487  1.00  0.00     0.062 A
HETATM    3  C3  UNL     1      50.880 -10.216  38.890  1.00  0.00     0.101 A
HETATM    4  C4  UNL     1      49.429 -10.211  38.839  1.00  0.00     0.104 C
HETATM    5  N1  UNL     1      48.281 -10.180  38.813  1.00  0.00    -0.191 NA
HETATM    6  C5  UNL     1      51.636 -11.233  38.382  1.00  0.00     0.123 A
HETATM    7  N4  UNL     1      52.961 -11.131  38.490  1.00  0.00    -0.216 N
HETATM    8  N5  UNL     1      53.901 -11.958  38.088  1.00  0.00    -0.233 N
ATOM      9  H5  UNL     1      53.730 -12.844  37.612  1.00  0.00     0.209 HD
HETATM   10  N6  UNL     1      55.076 -11.491  38.380  1.00  0.00    -0.280 N
ATOM     11  H6  UNL     1      55.961 -11.951  38.170  1.00  0.00     0.189 HD
HETATM   12  C7  UNL     1      54.935 -10.256  39.030  1.00  0.00     0.128 A
HETATM   13  C15 UNL     1      53.593 -10.073  39.075  1.00  0.00     0.186 A
HETATM   14  N11 UNL     1      52.865  -9.060  39.582  1.00  0.00    -0.207 N
ENDROOT
BRANCH   6  15
HETATM   15  C6  UNL     1      51.054 -12.375  37.740  1.00  0.00     0.140 C
HETATM   16  N2  UNL     1      50.205 -12.216  36.764  1.00  0.00    -0.386 N
ATOM     17  H22 UNL     1      49.994 -11.254  36.498  1.00  0.00     0.157 HD
ATOM     18  H21 UNL     1      49.791 -13.028  36.307  1.00  0.00     0.157 HD
HETATM   19  N3  UNL     1      51.343 -13.693  38.105  1.00  0.00    -0.081 NA
ENDBRANCH   6  15
BRANCH  14  20
HETATM   20  O3  UNL     1      53.447  -7.975  40.181  1.00  0.00    -0.281 OA
ATOM     21  H3  UNL     1      54.035  -8.097  40.917  1.00  0.00     0.245 HD
ENDBRANCH  14  20
BRANCH  12  22
HETATM   22  C8  UNL     1      56.078  -9.492  39.464  1.00  0.00     0.244 C
BRANCH  22  23
HETATM   23  N7  UNL     1      56.503  -9.069  40.466  1.00  0.00    -0.332 NA
BRANCH  23  24
HETATM   24  N8  UNL     1      56.972  -8.589  41.589  1.00  0.00    -0.184 N
HETATM   25  C9  UNL     1      58.314  -8.184  41.748  1.00  0.00     0.363 C
HETATM   26  O1  UNL     1      59.100  -8.282  40.781  1.00  0.00    -0.243 OA
HETATM   27  N9  UNL     1      58.767  -7.676  42.976  1.00  0.00    -0.254 N
ATOM     28  H9  UNL     1      58.097  -7.609  43.742  1.00  0.00     0.191 HD
ATOM     29  H8  UNL     1      56.339  -8.503  42.385  1.00  0.00     0.207 HD
BRANCH  27  30
HETATM   30  N10 UNL     1      60.073  -7.258  43.214  1.00  0.00    -0.332 N
ATOM     31  H10 UNL     1      60.397  -6.316  42.993  1.00  0.00     0.180 HD
BRANCH  30  32
HETATM   32  C10 UNL     1      60.928  -8.251  43.791  1.00  0.00     0.142 C
BRANCH  32  33
HETATM   33  C11 UNL     1      61.978  -8.591  42.745  1.00  0.00     0.058 C
BRANCH  33  34
HETATM   34  C12 UNL     1      62.069 -10.081  42.512  1.00  0.00     0.052 C
HETATM   35  C13 UNL     1      61.794 -10.343  41.051  1.00  0.00     0.045 C
HETATM   36  C14 UNL     1      60.949 -10.704  43.364  1.00  0.00     0.045 C
BRANCH  34  37
HETATM   37  O2  UNL     1      63.252 -10.646  42.935  1.00  0.00    -0.391 OA
ATOM     38  H2  UNL     1      63.143 -11.350  43.563  1.00  0.00     0.210 HD
ENDBRANCH  34  37
ENDBRANCH  33  34
ENDBRANCH  32  33
ENDBRANCH  30  32
ENDBRANCH  27  30
ENDBRANCH  23  24
ENDBRANCH  22  23
ENDBRANCH  12  22
TORSDOF 10
ENDMDL