MODEL 3
REMARK VINA RESULT: -7.300326458      1.590      2.514
REMARK  7 active torsions:
REMARK  status: ('A' for Active; 'I' for Inactive)
REMARK    1  A    between atoms: N1_2  and  C2_3
REMARK    2  A    between atoms: N1_2  and  S1_19
REMARK    3  A    between atoms: C2_3  and  C3_4
REMARK    4  A    between atoms: C4_7  and  C5_8
REMARK    5  A    between atoms: C5_8  and  C6_9
REMARK    6  A    between atoms: C6_9  and  N3_10
REMARK    7  A    between atoms: S1_19  and  C11_22
ROOT
HETATM    1  C3  UNL     1      13.193 -45.113   6.571  1.00  0.00     0.095 A
HETATM    2  N2  UNL     1      11.971 -45.395   6.041  1.00  0.00    -0.347 N
ATOM      3  H2  UNL     1      11.091 -44.959   6.318  1.00  0.00     0.167 HD
HETATM    4  C4  UNL     1      12.110 -46.332   5.102  1.00  0.00     0.027 A
HETATM    5  C10 UNL     1      13.467 -46.625   5.064  1.00  0.00     0.114 A
HETATM    6  N5  UNL     1      14.118 -45.873   5.968  1.00  0.00    -0.353 N
ATOM      7  H5  UNL     1      15.121 -45.880   6.158  1.00  0.00     0.166 HD
ENDROOT
BRANCH   1   8
HETATM    8  C2  UNL     1      13.484 -44.133   7.643  1.00  0.00     0.183 C
BRANCH   8   9
HETATM    9  N1  UNL     1      13.139 -42.795   7.211  1.00  0.00    -0.204 NA
HETATM   10  C1  UNL     1      14.299 -42.195   6.626  1.00  0.00     0.130 C
BRANCH   9  11
HETATM   11  S1  UNL     1      12.513 -41.937   8.554  1.00  0.00     0.243 S
HETATM   12  O1  UNL     1      13.606 -41.080   9.160  1.00  0.00    -0.206 OA
HETATM   13  O2  UNL     1      12.122 -42.941   9.602  1.00  0.00    -0.206 OA
BRANCH  11  14
HETATM   14  C11 UNL     1      11.143 -40.960   8.163  1.00  0.00     0.074 A
HETATM   15  C12 UNL     1      10.315 -40.512   9.165  1.00  0.00     0.025 A
HETATM   16  C13 UNL     1       9.202 -39.725   8.906  1.00  0.00     0.002 A
HETATM   17  C14 UNL     1       8.915 -39.380   7.617  1.00  0.00     0.000 A
HETATM   18  C15 UNL     1       9.727 -39.812   6.583  1.00  0.00     0.002 A
HETATM   19  C16 UNL     1      10.832 -40.597   6.870  1.00  0.00     0.025 A
ENDBRANCH  11  14
ENDBRANCH   9  11
ENDBRANCH   8   9
ENDBRANCH   1   8
BRANCH   4  20
HETATM   20  C5  UNL     1      11.027 -46.925   4.277  1.00  0.00     0.078 C
BRANCH  20  21
HETATM   21  C6  UNL     1      10.987 -46.181   2.963  1.00  0.00     0.135 C
BRANCH  21  22
HETATM   22  N3  UNL     1      11.237 -47.059   1.838  1.00  0.00    -0.351 N
HETATM   23  C7  UNL     1      10.983 -48.382   1.839  1.00  0.00     0.108 A
HETATM   24  C8  UNL     1      11.347 -48.879   0.606  1.00  0.00     0.106 A
HETATM   25  N4  UNL     1      11.818 -47.858  -0.132  1.00  0.00    -0.361 N
HETATM   26  C9  UNL     1      11.744 -46.758   0.634  1.00  0.00     0.182 A
ATOM     27  H4  UNL     1      12.165 -47.910  -1.090  1.00  0.00     0.166 HD
ENDBRANCH  21  22
ENDBRANCH  20  21
ENDBRANCH   4  20
TORSDOF 7
ENDMDL