MODEL 4
REMARK VINA RESULT: -7.777257812      3.575      6.906
REMARK  7 active torsions:
REMARK  status: ('A' for Active; 'I' for Inactive)
REMARK    1  A    between atoms: C3_3  and  N1_4
REMARK    2  A    between atoms: N1_4  and  C4_5
REMARK    3  A    between atoms: N1_4  and  C12_13
REMARK    4  A    between atoms: C4_5  and  C5_6
REMARK    5  A    between atoms: C12_13  and  C13_14
REMARK    6  A    between atoms: N2_16  and  C15_17
REMARK    7  A    between atoms: C15_17  and  C16_18
ROOT
HETATM    1  C1  UNL     1      11.006 -41.926   7.254  1.00  0.00     0.014 C
HETATM    2  C2  UNL     1      11.496 -43.019   7.468  1.00  0.00    -0.098 C
HETATM    3  C3  UNL     1      12.084 -44.347   7.708  1.00  0.00     0.215 C
ENDROOT
BRANCH   3   4
HETATM    4  N1  UNL     1      12.587 -44.858   6.492  1.00  0.00    -0.373 N
BRANCH   4   5
HETATM    5  C4  UNL     1      13.985 -44.741   6.262  1.00  0.00     0.161 C
BRANCH   5   6
HETATM    6  C5  UNL     1      14.414 -43.657   5.384  1.00  0.00    -0.040 A
HETATM    7  C6  UNL     1      14.504 -42.366   5.832  1.00  0.00     0.009 A
HETATM    8  C7  UNL     1      14.912 -41.314   5.018  1.00  0.00     0.007 A
HETATM    9  C8  UNL     1      15.240 -41.594   3.698  1.00  0.00    -0.062 A
HETATM   10  C9  UNL     1      15.677 -40.482   2.816  1.00  0.00     0.048 C
HETATM   11  C10 UNL     1      15.163 -42.882   3.209  1.00  0.00     0.007 A
HETATM   12  C11 UNL     1      14.754 -43.896   4.049  1.00  0.00     0.009 A
ENDBRANCH   5   6
ENDBRANCH   4   5
BRANCH   4  13
HETATM   13  C12 UNL     1      11.758 -44.827   5.352  1.00  0.00     0.119 C
BRANCH  13  14
HETATM   14  C13 UNL     1      11.787 -46.130   4.652  1.00  0.00     0.081 A
HETATM   15  C14 UNL     1      12.287 -46.434   3.406  1.00  0.00     0.144 A
HETATM   16  N2  UNL     1      12.113 -47.750   3.159  1.00  0.00    -0.283 N
HETATM   17  N4  UNL     1      11.524 -48.264   4.209  1.00  0.00    -0.240 N
HETATM   18  N5  UNL     1      11.315 -47.326   5.117  1.00  0.00    -0.284 N
ATOM     19  H4  UNL     1      11.264 -49.245   4.311  1.00  0.00     0.208 HD
ATOM     20  H5  UNL     1      10.872 -47.472   6.024  1.00  0.00     0.188 HD
BRANCH  16  21
HETATM   21  C15 UNL     1      12.510 -48.459   1.937  1.00  0.00     0.189 C
BRANCH  21  22
HETATM   22  C16 UNL     1      13.969 -48.359   1.719  1.00  0.00    -0.023 A
HETATM   23  C17 UNL     1      14.498 -47.753   0.602  1.00  0.00     0.015 A
HETATM   24  C18 UNL     1      15.861 -47.675   0.431  1.00  0.00     0.075 A
HETATM   25  C19 UNL     1      16.696 -48.210   1.388  1.00  0.00     0.245 A
HETATM   26  O1  UNL     1      17.950 -48.139   1.230  1.00  0.00    -0.268 OA
HETATM   27  N3  UNL     1      16.175 -48.806   2.487  1.00  0.00    -0.333 N
HETATM   28  C20 UNL     1      14.845 -48.879   2.648  1.00  0.00     0.100 A
ATOM     29  H3  UNL     1      16.795 -49.201   3.195  1.00  0.00     0.168 HD
ENDBRANCH  21  22
ENDBRANCH  16  21
ENDBRANCH  13  14
ENDBRANCH   4  13
ENDBRANCH   3   4
TORSDOF 7
ENDMDL