MODEL 1
REMARK VINA RESULT: -7.379442944      0.000      0.000
REMARK  7 active torsions:
REMARK  status: ('A' for Active; 'I' for Inactive)
REMARK    1  A    between atoms: C7_10  and  C8_11
REMARK    2  A    between atoms: N4_18  and  C13_20
REMARK    3  A    between atoms: C13_20  and  C14_21
REMARK    4  A    between atoms: C14_21  and  O1_22
REMARK    5  A    between atoms: O1_22  and  C15_23
REMARK    6  A    between atoms: C15_23  and  C16_24
REMARK    7  A    between atoms: C16_24  and  N5_25
ROOT
HETATM    1  C8  UNL     1      13.447 -41.674   6.211  1.00  0.00     0.018 A
HETATM    2  C9  UNL     1      13.765 -42.975   5.912  1.00  0.00     0.017 A
HETATM    3  C10 UNL     1      14.616 -43.276   4.836  1.00  0.00     0.018 A
HETATM    4  C11 UNL     1      15.124 -42.246   4.090  1.00  0.00     0.089 A
HETATM    5  N3  UNL     1      14.808 -40.975   4.391  1.00  0.00    -0.352 N
ATOM      6  H3  UNL     1      15.194 -40.218   3.827  1.00  0.00     0.166 HD
HETATM    7  C12 UNL     1      13.980 -40.676   5.437  1.00  0.00     0.112 A
HETATM    8  N4  UNL     1      13.696 -39.462   5.719  1.00  0.00    -0.374 N
ATOM      9  H4  UNL     1      13.079 -39.304   6.516  1.00  0.00     0.161 HD
ENDROOT
BRANCH   1  10
HETATM   10  C7  UNL     1      12.560 -41.360   7.313  1.00  0.00    -0.021 A
HETATM   11  C6  UNL     1      12.879 -41.765   8.616  1.00  0.00     0.014 A
HETATM   12  C5  UNL     1      12.036 -41.478   9.648  1.00  0.00     0.033 A
HETATM   13  C4  UNL     1      10.875 -40.789   9.398  1.00  0.00     0.062 A
HETATM   14  N2  UNL     1       9.884 -40.385  10.224  1.00  0.00    -0.296 N
HETATM   15  C20 UNL     1      10.541 -40.382   8.125  1.00  0.00     0.017 A
HETATM   16  N1  UNL     1       8.989 -39.760   9.495  1.00  0.00    -0.302 N
HETATM   17  C3  UNL     1       9.875 -40.630  11.654  1.00  0.00     0.178 C
HETATM   18  C2  UNL     1       9.337 -39.726   8.199  1.00  0.00     0.034 A
ATOM     19  H1  UNL     1       8.133 -39.351   9.868  1.00  0.00     0.186 HD
HETATM   20  C1  UNL     1       8.627 -39.130   7.039  1.00  0.00     0.070 C
HETATM   21  C19 UNL     1      11.390 -40.672   7.094  1.00  0.00     0.028 A
ENDBRANCH   1  10
BRANCH   8  22
HETATM   22  C13 UNL     1      14.164 -38.298   5.016  1.00  0.00     0.147 C
BRANCH  22  23
HETATM   23  C14 UNL     1      13.061 -37.876   4.049  1.00  0.00     0.187 C
BRANCH  23  24
HETATM   24  O1  UNL     1      12.943 -36.504   3.992  1.00  0.00    -0.388 OA
BRANCH  24  25
HETATM   25  C15 UNL     1      14.046 -35.889   4.520  1.00  0.00     0.198 C
BRANCH  25  26
HETATM   26  C16 UNL     1      14.732 -35.014   3.505  1.00  0.00     0.297 C
BRANCH  26  27
HETATM   27  N5  UNL     1      16.019 -35.620   3.103  1.00  0.00     0.082 N
HETATM   28  C17 UNL     1      15.752 -36.208   1.781  1.00  0.00     0.309 C
HETATM   29  C18 UNL     1      16.999 -34.566   2.867  1.00  0.00     0.309 C
ENDBRANCH  26  27
ENDBRANCH  25  26
ENDBRANCH  24  25
ENDBRANCH  23  24
ENDBRANCH  22  23
ENDBRANCH   8  22
TORSDOF 7
ENDMDL