MODEL 2
REMARK VINA RESULT: -7.809787281      4.925      9.858
REMARK  8 active torsions:
REMARK  status: ('A' for Active; 'I' for Inactive)
REMARK    1  A    between atoms: N1_2  and  C3_4
REMARK    2  A    between atoms: C6_7  and  C7_8
REMARK    3  A    between atoms: C7_8  and  C8_9
REMARK    4  A    between atoms: C8_9  and  N2_10
REMARK    5  A    between atoms: N2_10  and  C9_12
REMARK    6  A    between atoms: C10_15  and  C11_16
REMARK    7  A    between atoms: C11_16  and  C12_17
REMARK    8  A    between atoms: C12_17  and  C13_18
ROOT
HETATM    1  C9  UNL     1      16.481 -45.409   0.921  1.00  0.00     0.678 A
HETATM    2  N3  UNL     1      15.667 -46.196   1.647  1.00  0.00    -0.196 N
ATOM      3  H3  UNL     1      14.747 -45.855   1.927  1.00  0.00     0.184 HD
HETATM    4  C10 UNL     1      16.065 -47.440   2.007  1.00  0.00     0.028 A
HETATM    5  C17 UNL     1      17.291 -47.948   1.656  1.00  0.00     0.043 A
HETATM    6  C18 UNL     1      18.115 -47.128   0.910  1.00  0.00     0.108 A
HETATM    7  N6  UNL     1      17.680 -45.896   0.572  1.00  0.00    -0.202 N
ATOM      8  H6  UNL     1      18.298 -45.302   0.020  1.00  0.00     0.183 HD
ENDROOT
BRANCH   1   9
HETATM    9  N2  UNL     1      16.129 -44.207   0.558  1.00  0.00    -0.226 N
ATOM     10  H2  UNL     1      16.643 -43.707  -0.166  1.00  0.00     0.177 HD
BRANCH   9  11
HETATM   11  C8  UNL     1      14.984 -43.602   1.213  1.00  0.00     0.142 C
BRANCH  11  12
HETATM   12  C7  UNL     1      15.483 -42.511   2.126  1.00  0.00     0.058 C
BRANCH  12  13
HETATM   13  C6  UNL     1      15.029 -42.646   3.507  1.00  0.00    -0.057 A
HETATM   14  C5  UNL     1      14.562 -43.840   4.022  1.00  0.00     0.009 A
HETATM   15  C4  UNL     1      14.147 -43.904   5.338  1.00  0.00     0.030 A
HETATM   16  C3  UNL     1      14.184 -42.802   6.166  1.00  0.00     0.029 A
HETATM   17  C20 UNL     1      14.651 -41.598   5.660  1.00  0.00     0.030 A
HETATM   18  C19 UNL     1      15.065 -41.546   4.337  1.00  0.00     0.009 A
BRANCH  16  19
HETATM   19  N1  UNL     1      13.751 -42.882   7.529  1.00  0.00    -0.390 N
HETATM   20  C1  UNL     1      13.618 -41.669   8.298  1.00  0.00     0.149 C
HETATM   21  C2  UNL     1      13.453 -44.164   8.117  1.00  0.00     0.149 C
ENDBRANCH  16  19
ENDBRANCH  12  13
ENDBRANCH  11  12
ENDBRANCH   9  11
ENDBRANCH   1   9
BRANCH   4  22
HETATM   22  C11 UNL     1      15.148 -48.296   2.813  1.00  0.00     0.062 C
BRANCH  22  23
HETATM   23  C12 UNL     1      14.618 -47.438   3.939  1.00  0.00     0.046 C
BRANCH  23  24
HETATM   24  C13 UNL     1      13.150 -47.546   4.045  1.00  0.00    -0.040 A
HETATM   25  C14 UNL     1      12.461 -47.986   2.919  1.00  0.00     0.027 A
HETATM   26  C15 UNL     1      11.100 -48.083   3.026  1.00  0.00     0.107 A
HETATM   27  N4  UNL     1      10.493 -47.758   4.186  1.00  0.00    -0.312 N
HETATM   28  N5  UNL     1      11.170 -47.339   5.251  1.00  0.00    -0.312 N
ATOM     29  H4  UNL     1       9.478 -47.837   4.247  1.00  0.00     0.186 HD
HETATM   30  C16 UNL     1      12.504 -47.222   5.216  1.00  0.00     0.114 A
ATOM     31  H5  UNL     1      10.666 -47.104   6.106  1.00  0.00     0.186 HD
ENDBRANCH  23  24
ENDBRANCH  22  23
ENDBRANCH   4  22
TORSDOF 8
ENDMDL