MODEL 5
REMARK VINA RESULT: -6.275806881      4.970      6.926
REMARK  9 active torsions:
REMARK  status: ('A' for Active; 'I' for Inactive)
REMARK    1  A    between atoms: C2_2  and  N1_3
REMARK    2  A    between atoms: N1_3  and  C3_5
REMARK    3  A    between atoms: C7_11  and  N3_12
REMARK    4  A    between atoms: C10_15  and  N4_16
REMARK    5  A    between atoms: N4_16  and  C11_18
REMARK    6  A    between atoms: C11_18  and  C12_19
REMARK    7  A    between atoms: C12_19  and  O1_20
REMARK    8  A    between atoms: O1_20  and  C13_21
REMARK    9  A    between atoms: C13_21  and  C14_22
ROOT
HETATM    1  C3  UNL     1      11.210 -40.994   7.678  1.00  0.00     0.679 C
HETATM    2  N2  UNL     1      11.630 -42.165   8.190  1.00  0.00    -0.196 N
ATOM      3  H2  UNL     1      11.416 -42.292   9.179  1.00  0.00     0.184 HD
HETATM    4  C4  UNL     1      12.284 -43.200   7.627  1.00  0.00     0.025 C
HETATM    5  C5  UNL     1      12.537 -44.389   8.481  1.00  0.00     0.068 C
HETATM    6  C6  UNL     1      12.760 -43.301   6.326  1.00  0.00     0.058 C
HETATM    7  C7  UNL     1      12.867 -42.266   5.393  1.00  0.00     0.076 C
HETATM    8  C10 UNL     1      12.387 -40.969   5.522  1.00  0.00     0.143 C
HETATM    9  N5  UNL     1      11.519 -40.525   6.457  1.00  0.00    -0.175 N
ATOM     10  H5  UNL     1      11.007 -39.685   6.188  1.00  0.00     0.186 HD
ENDROOT
BRANCH   8  11
HETATM   11  N4  UNL     1      12.850 -40.171   4.640  1.00  0.00    -0.372 N
ATOM     12  H4  UNL     1      12.936 -40.536   3.691  1.00  0.00     0.161 HD
BRANCH  11  13
HETATM   13  C11 UNL     1      13.263 -38.808   4.849  1.00  0.00     0.147 C
BRANCH  13  14
HETATM   14  C12 UNL     1      12.472 -37.947   3.879  1.00  0.00     0.187 C
BRANCH  14  15
HETATM   15  O1  UNL     1      12.901 -36.650   3.821  1.00  0.00    -0.385 OA
BRANCH  15  16
HETATM   16  C13 UNL     1      14.089 -36.363   4.430  1.00  0.00     0.206 C
BRANCH  16  17
HETATM   17  C14 UNL     1      15.156 -35.845   3.576  1.00  0.00    -0.035 A
HETATM   18  C15 UNL     1      15.542 -36.405   2.374  1.00  0.00     0.010 A
HETATM   19  C16 UNL     1      16.567 -35.851   1.630  1.00  0.00     0.007 A
HETATM   20  C17 UNL     1      17.226 -34.738   2.061  1.00  0.00    -0.062 A
HETATM   21  C18 UNL     1      18.318 -34.173   1.238  1.00  0.00     0.048 C
HETATM   22  C19 UNL     1      16.868 -34.144   3.266  1.00  0.00     0.007 A
HETATM   23  C20 UNL     1      15.845 -34.711   3.991  1.00  0.00     0.010 A
ENDBRANCH  16  17
ENDBRANCH  15  16
ENDBRANCH  14  15
ENDBRANCH  13  14
ENDBRANCH  11  13
ENDBRANCH   8  11
BRANCH   7  24
HETATM   24  N3  UNL     1      13.529 -42.526   4.174  1.00  0.00    -0.387 N
HETATM   25  C8  UNL     1      12.870 -42.839   2.932  1.00  0.00     0.149 C
HETATM   26  C9  UNL     1      14.972 -42.476   4.162  1.00  0.00     0.149 C
ENDBRANCH   7  24
BRANCH   1  27
HETATM   27  N1  UNL     1      10.440 -40.239   8.410  1.00  0.00    -0.226 N
ATOM     28  H1  UNL     1       9.909 -39.500   7.949  1.00  0.00     0.177 HD
BRANCH  27  29
HETATM   29  C2  UNL     1      10.299 -40.392   9.822  1.00  0.00     0.133 C
HETATM   30  C1  UNL     1       8.903 -39.948  10.230  1.00  0.00     0.027 C
ENDBRANCH  27  29
ENDBRANCH   1  27
TORSDOF 9
ENDMDL