MODEL 2
REMARK VINA RESULT: -7.262725067      0.476      1.227
REMARK  7 active torsions:
REMARK  status: ('A' for Active; 'I' for Inactive)
REMARK    1  A    between atoms: S1_2  and  N1_4
REMARK    2  A    between atoms: S1_2  and  C13_21
REMARK    3  A    between atoms: N1_4  and  C1_6
REMARK    4  A    between atoms: C1_6  and  C2_7
REMARK    5  A    between atoms: C1_6  and  C9_14
REMARK    6  A    between atoms: C2_7  and  C3_8
REMARK    7  A    between atoms: C9_14  and  N2_15
ROOT
HETATM    1  C1  UNL     1      12.543 -41.247   7.746  1.00  0.00     0.115 C
ENDROOT
BRANCH   1   2
HETATM    2  N1  UNL     1      12.985 -42.516   8.202  1.00  0.00    -0.308 N
ATOM      3  H1  UNL     1      13.906 -42.595   8.634  1.00  0.00     0.172 HD
BRANCH   2   4
HETATM    4  S1  UNL     1      12.054 -43.860   8.053  1.00  0.00     0.274 S
HETATM    5  O1  UNL     1      10.641 -43.442   7.635  1.00  0.00    -0.199 OA
HETATM    6  O2  UNL     1      11.850 -44.702   9.272  1.00  0.00    -0.199 OA
BRANCH   4   7
HETATM    7  C13 UNL     1      12.616 -44.917   6.793  1.00  0.00     0.148 A
HETATM    8  C14 UNL     1      13.959 -45.236   6.648  1.00  0.00     0.043 A
HETATM    9  C15 UNL     1      14.394 -46.076   5.652  1.00  0.00     0.004 A
HETATM   10  C16 UNL     1      13.485 -46.615   4.775  1.00  0.00     0.017 A
HETATM   11  C17 UNL     1      12.162 -46.293   4.928  1.00  0.00     0.089 A
HETATM   12  N4  UNL     1      11.795 -45.480   5.904  1.00  0.00    -0.355 N
ATOM     13  H4  UNL     1      10.801 -45.265   5.984  1.00  0.00     0.166 HD
ENDBRANCH   4   7
ENDBRANCH   2   4
ENDBRANCH   1   2
BRANCH   1  14
HETATM   14  C2  UNL     1      13.595 -40.640   6.793  1.00  0.00     0.066 C
BRANCH  14  15
HETATM   15  C3  UNL     1      13.740 -41.479   5.597  1.00  0.00    -0.056 A
HETATM   16  C4  UNL     1      12.613 -41.846   4.850  1.00  0.00     0.007 A
HETATM   17  C5  UNL     1      12.678 -42.658   3.743  1.00  0.00     0.001 A
HETATM   18  C6  UNL     1      13.884 -43.158   3.312  1.00  0.00     0.000 A
HETATM   19  C7  UNL     1      15.016 -42.822   4.018  1.00  0.00     0.001 A
HETATM   20  C8  UNL     1      14.937 -42.007   5.126  1.00  0.00     0.007 A
ENDBRANCH  14  15
ENDBRANCH   1  14
BRANCH   1  21
HETATM   21  C9  UNL     1      12.257 -40.307   8.844  1.00  0.00     0.155 C
BRANCH  21  22
HETATM   22  N2  UNL     1      10.906 -40.220   9.330  1.00  0.00    -0.350 N
HETATM   23  C10 UNL     1      10.474 -40.527  10.580  1.00  0.00     0.108 A
HETATM   24  C11 UNL     1       9.115 -40.297  10.666  1.00  0.00     0.106 A
HETATM   25  N3  UNL     1       8.732 -39.845   9.438  1.00  0.00    -0.361 N
HETATM   26  C12 UNL     1       9.820 -39.808   8.654  1.00  0.00     0.182 A
ATOM     27  H3  UNL     1       7.784 -39.583   9.164  1.00  0.00     0.166 HD
ENDBRANCH  21  22
ENDBRANCH   1  21
TORSDOF 7
ENDMDL