MODEL 4
REMARK VINA RESULT: -7.558536623      3.159      4.990
REMARK  7 active torsions:
REMARK  status: ('A' for Active; 'I' for Inactive)
REMARK    1  A    between atoms: S1_2  and  N1_4
REMARK    2  A    between atoms: S1_2  and  C7_15
REMARK    3  A    between atoms: N1_4  and  C1_6
REMARK    4  A    between atoms: C1_6  and  C2_7
REMARK    5  A    between atoms: C2_7  and  C3_8
REMARK    6  A    between atoms: C3_8  and  N2_9
REMARK    7  A    between atoms: C10_18  and  C11_19
ROOT
HETATM    1  O1  UNL     1      14.457 -46.565   5.745  1.00  0.00    -0.200 OA
HETATM    2  S1  UNL     1      13.062 -46.280   5.272  1.00  0.00     0.260 S
HETATM    3  O2  UNL     1      12.253 -47.540   5.421  1.00  0.00    -0.200 OA
ENDROOT
BRANCH   2   4
HETATM    4  N1  UNL     1      13.103 -45.757   3.625  1.00  0.00    -0.315 N
ATOM      5  H1  UNL     1      12.312 -45.825   2.985  1.00  0.00     0.172 HD
BRANCH   4   6
HETATM    6  C1  UNL     1      14.388 -45.213   3.267  1.00  0.00     0.134 C
BRANCH   6   7
HETATM    7  C2  UNL     1      14.231 -43.710   3.166  1.00  0.00     0.040 C
BRANCH   7   8
HETATM    8  C3  UNL     1      14.930 -42.999   4.311  1.00  0.00     0.131 C
BRANCH   8   9
HETATM    9  N2  UNL     1      14.164 -41.914   4.849  1.00  0.00    -0.352 N
HETATM   10  C4  UNL     1      14.293 -41.276   6.026  1.00  0.00     0.108 A
HETATM   11  C5  UNL     1      13.341 -40.288   6.140  1.00  0.00     0.106 A
HETATM   12  N3  UNL     1      12.621 -40.325   5.013  1.00  0.00    -0.361 N
HETATM   13  C6  UNL     1      13.125 -41.303   4.252  1.00  0.00     0.182 A
ATOM     14  H3  UNL     1      11.835 -39.721   4.778  1.00  0.00     0.166 HD
ENDBRANCH   8   9
ENDBRANCH   7   8
ENDBRANCH   6   7
ENDBRANCH   4   6
ENDBRANCH   2   4
BRANCH   2  15
HETATM   15  C7  UNL     1      12.410 -44.972   6.222  1.00  0.00     0.094 A
HETATM   16  C8  UNL     1      12.950 -44.739   7.466  1.00  0.00     0.029 A
HETATM   17  C9  UNL     1      12.425 -43.698   8.213  1.00  0.00     0.032 A
HETATM   18  C10 UNL     1      11.403 -42.887   7.794  1.00  0.00     0.042 A
HETATM   19  N4  UNL     1      10.901 -43.160   6.552  1.00  0.00    -0.364 N
HETATM   20  C17 UNL     1      11.384 -44.161   5.798  1.00  0.00     0.113 A
ATOM     21  H4  UNL     1      10.139 -42.588   6.188  1.00  0.00     0.165 HD
BRANCH  18  22
HETATM   22  C11 UNL     1      10.836 -41.786   8.564  1.00  0.00    -0.009 A
HETATM   23  C12 UNL     1      10.203 -40.724   7.927  1.00  0.00     0.013 A
HETATM   24  C13 UNL     1       9.658 -39.674   8.632  1.00  0.00     0.001 A
HETATM   25  C14 UNL     1       9.721 -39.635  10.007  1.00  0.00     0.000 A
HETATM   26  C15 UNL     1      10.342 -40.677  10.652  1.00  0.00     0.001 A
HETATM   27  C16 UNL     1      10.894 -41.743   9.934  1.00  0.00     0.013 A
ENDBRANCH  18  22
ENDBRANCH   2  15
TORSDOF 7
ENDMDL