MODEL 4
REMARK VINA RESULT: -7.754830242      3.076      8.537
REMARK  7 active torsions:
REMARK  status: ('A' for Active; 'I' for Inactive)
REMARK    1  A    between atoms: S1_2  and  C1_4
REMARK    2  A    between atoms: S1_2  and  N2_12
REMARK    3  A    between atoms: C1_4  and  C2_5
REMARK    4  A    between atoms: N2_12  and  C7_14
REMARK    5  A    between atoms: C7_14  and  C8_15
REMARK    6  A    between atoms: C8_15  and  C9_16
REMARK    7  A    between atoms: C12_21  and  C13_22
ROOT
HETATM    1  C8  UNL     1      13.654 -44.756   7.617  1.00  0.00     0.103 C
ENDROOT
BRANCH   1   2
HETATM    2  C7  UNL     1      14.203 -45.416   6.364  1.00  0.00     0.079 C
BRANCH   2   3
HETATM    3  N2  UNL     1      13.183 -45.745   5.478  1.00  0.00    -0.298 N
ATOM      4  H2  UNL     1      12.380 -45.120   5.406  1.00  0.00     0.177 HD
BRANCH   3   5
HETATM    5  S1  UNL     1      13.215 -47.107   4.533  1.00  0.00     0.234 S
HETATM    6  O1  UNL     1      12.227 -48.157   5.090  1.00  0.00    -0.205 OA
HETATM    7  O2  UNL     1      14.598 -47.799   4.675  1.00  0.00    -0.205 OA
BRANCH   5   8
HETATM    8  C1  UNL     1      12.853 -46.928   2.841  1.00  0.00     0.202 C
BRANCH   8   9
HETATM    9  C2  UNL     1      11.737 -46.063   2.434  1.00  0.00    -0.040 A
HETATM   10  C3  UNL     1      11.756 -45.203   1.362  1.00  0.00     0.025 A
HETATM   11  C4  UNL     1      10.705 -44.404   1.000  1.00  0.00     0.088 A
HETATM   12  N1  UNL     1       9.570 -44.436   1.714  1.00  0.00    -0.375 N
HETATM   13  C5  UNL     1       9.490 -45.259   2.777  1.00  0.00     0.088 A
ATOM     14  H1  UNL     1       8.779 -43.845   1.456  1.00  0.00     0.164 HD
HETATM   15  C6  UNL     1      10.531 -46.068   3.158  1.00  0.00     0.025 A
ENDBRANCH   8   9
ENDBRANCH   5   8
ENDBRANCH   3   5
ENDBRANCH   2   3
ENDBRANCH   1   2
BRANCH   1  16
HETATM   16  C9  UNL     1      13.482 -43.303   7.503  1.00  0.00     0.030 A
HETATM   17  C10 UNL     1      14.237 -42.434   6.782  1.00  0.00     0.113 A
HETATM   18  N3  UNL     1      14.003 -41.105   6.756  1.00  0.00    -0.371 N
HETATM   19  C11 UNL     1      12.972 -40.620   7.479  1.00  0.00     0.117 A
ATOM     20  H3  UNL     1      14.592 -40.482   6.204  1.00  0.00     0.164 HD
HETATM   21  C12 UNL     1      12.166 -41.442   8.231  1.00  0.00     0.058 A
HETATM   22  N4  UNL     1      12.461 -42.754   8.208  1.00  0.00    -0.356 N
ATOM     23  H4  UNL     1      11.875 -43.381   8.759  1.00  0.00     0.166 HD
BRANCH  21  24
HETATM   24  C13 UNL     1      11.056 -40.918   9.006  1.00  0.00    -0.008 A
HETATM   25  C14 UNL     1      10.945 -41.141  10.344  1.00  0.00     0.014 A
HETATM   26  C15 UNL     1       9.869 -40.633  11.094  1.00  0.00     0.001 A
HETATM   27  C16 UNL     1       8.901 -39.890  10.462  1.00  0.00     0.000 A
HETATM   28  C17 UNL     1       8.998 -39.655   9.109  1.00  0.00     0.001 A
HETATM   29  C18 UNL     1      10.071 -40.169   8.394  1.00  0.00     0.014 A
ENDBRANCH  21  24
ENDBRANCH   1  16
TORSDOF 7
ENDMDL