MODEL 2
REMARK VINA RESULT: -8.049569789      1.524      1.856
REMARK  7 active torsions:
REMARK  status: ('A' for Active; 'I' for Inactive)
REMARK    1  A    between atoms: S1_2  and  N1_4
REMARK    2  A    between atoms: S1_2  and  C9_17
REMARK    3  A    between atoms: N1_4  and  C1_6
REMARK    4  A    between atoms: C1_6  and  C2_7
REMARK    5  A    between atoms: C2_7  and  O3_8
REMARK    6  A    between atoms: O3_8  and  C3_9
REMARK    7  A    between atoms: C3_9  and  C4_10
ROOT
HETATM    1  O1  UNL     1      11.871 -41.763  10.630  1.00  0.00    -0.201 OA
HETATM    2  S1  UNL     1      11.121 -42.003   9.373  1.00  0.00     0.258 S
HETATM    3  O2  UNL     1      10.217 -43.193   9.540  1.00  0.00    -0.201 OA
ENDROOT
BRANCH   2   4
HETATM    4  N1  UNL     1      10.114 -40.649   8.981  1.00  0.00    -0.313 N
ATOM      5  H1  UNL     1       9.544 -40.580   8.139  1.00  0.00     0.172 HD
BRANCH   4   6
HETATM    6  C1  UNL     1      10.187 -39.625  10.007  1.00  0.00     0.158 C
BRANCH   6   7
HETATM    7  C2  UNL     1       9.075 -39.906  10.982  1.00  0.00     0.188 C
BRANCH   7   8
HETATM    8  O3  UNL     1       9.521 -39.868  12.273  1.00  0.00    -0.384 OA
BRANCH   8   9
HETATM    9  C3  UNL     1       8.499 -39.924  13.199  1.00  0.00     0.224 C
BRANCH   9  10
HETATM   10  C4  UNL     1       8.373 -38.630  13.943  1.00  0.00     0.033 A
HETATM   11  C5  UNL     1       7.893 -37.465  13.397  1.00  0.00     0.027 A
HETATM   12  C6  UNL     1       7.792 -36.294  14.126  1.00  0.00     0.003 A
HETATM   13  C7  UNL     1       8.190 -36.310  15.444  1.00  0.00     0.017 A
HETATM   14  C8  UNL     1       8.676 -37.498  15.992  1.00  0.00     0.088 A
HETATM   15  N2  UNL     1       8.749 -38.601  15.234  1.00  0.00    -0.367 N
ATOM     16  H2  UNL     1       9.107 -39.458  15.655  1.00  0.00     0.165 HD
ENDBRANCH   9  10
ENDBRANCH   8   9
ENDBRANCH   7   8
ENDBRANCH   6   7
ENDBRANCH   4   6
ENDBRANCH   2   4
BRANCH   2  17
HETATM   17  C9  UNL     1      12.208 -42.286   8.004  1.00  0.00     0.081 A
HETATM   18  C10 UNL     1      13.515 -41.844   8.079  1.00  0.00     0.026 A
HETATM   19  C11 UNL     1      14.347 -42.079   6.992  1.00  0.00     0.015 A
HETATM   20  C12 UNL     1      13.903 -42.733   5.856  1.00  0.00    -0.009 A
HETATM   21  C13 UNL     1      14.726 -42.969   4.769  1.00  0.00     0.015 A
HETATM   22  C16 UNL     1      12.596 -43.174   5.782  1.00  0.00     0.043 A
HETATM   23  C14 UNL     1      14.268 -43.630   3.631  1.00  0.00     0.018 A
HETATM   24  C15 UNL     1      12.952 -44.048   3.612  1.00  0.00     0.088 A
HETATM   25  N3  UNL     1      12.162 -43.810   4.678  1.00  0.00    -0.365 N
ATOM     26  H3  UNL     1      11.193 -44.126   4.647  1.00  0.00     0.165 HD
HETATM   27  C17 UNL     1      11.766 -42.938   6.871  1.00  0.00     0.055 A
ENDBRANCH   2  17
TORSDOF 7
ENDMDL