MODEL 4
REMARK VINA RESULT: -7.104101114      1.931      2.420
REMARK  7 active torsions:
REMARK  status: ('A' for Active; 'I' for Inactive)
REMARK    1  A    between atoms: N1_2  and  C2_3
REMARK    2  A    between atoms: N1_2  and  C9_10
REMARK    3  A    between atoms: C2_3  and  C3_4
REMARK    4  A    between atoms: C9_10  and  C10_11
REMARK    5  A    between atoms: N4_18  and  C12_19
REMARK    6  A    between atoms: C12_19  and  C13_20
REMARK    7  A    between atoms: C13_20  and  C14_21
ROOT
HETATM    1  C14 UNL     1      12.701 -40.349   5.843  1.00  0.00    -0.057 A
HETATM    2  C15 UNL     1      13.748 -41.084   6.335  1.00  0.00     0.009 A
HETATM    3  C16 UNL     1      13.530 -42.149   7.174  1.00  0.00     0.023 A
HETATM    4  C17 UNL     1      12.247 -42.507   7.543  1.00  0.00     0.044 A
HETATM    5  C18 UNL     1      12.018 -43.613   8.414  1.00  0.00     0.099 C
HETATM    6  N5  UNL     1      11.847 -44.503   9.117  1.00  0.00    -0.191 NA
HETATM    7  C19 UNL     1      11.176 -41.775   7.056  1.00  0.00     0.023 A
HETATM    8  C20 UNL     1      11.428 -40.697   6.205  1.00  0.00     0.009 A
ENDROOT
BRANCH   1   9
HETATM    9  C13 UNL     1      12.881 -39.189   4.934  1.00  0.00     0.059 C
BRANCH   9  10
HETATM   10  C12 UNL     1      14.329 -38.686   4.983  1.00  0.00     0.140 C
BRANCH  10  11
HETATM   11  N4  UNL     1      14.683 -38.301   3.650  1.00  0.00    -0.285 N
HETATM   12  C10 UNL     1      15.335 -39.077   2.742  1.00  0.00     0.131 A
HETATM   13  N2  UNL     1      15.445 -38.303   1.649  1.00  0.00    -0.283 N
HETATM   14  N3  UNL     1      14.904 -37.125   1.845  1.00  0.00    -0.250 N
ATOM     15  H2  UNL     1      15.891 -38.594   0.779  1.00  0.00     0.188 HD
HETATM   16  C11 UNL     1      14.428 -37.118   3.093  1.00  0.00     0.342 A
ATOM     17  H3  UNL     1      14.856 -36.359   1.174  1.00  0.00     0.192 HD
HETATM   18  O1  UNL     1      13.841 -36.114   3.592  1.00  0.00    -0.245 OA
BRANCH  12  19
HETATM   19  C9  UNL     1      15.818 -40.476   2.926  1.00  0.00     0.350 C
BRANCH  19  20
HETATM   20  N1  UNL     1      14.727 -41.360   2.627  1.00  0.00     0.095 N
HETATM   21  C1  UNL     1      14.070 -41.040   1.382  1.00  0.00     0.310 C
BRANCH  20  22
HETATM   22  C2  UNL     1      15.066 -42.755   2.755  1.00  0.00     0.311 C
BRANCH  22  23
HETATM   23  C3  UNL     1      14.091 -43.535   3.534  1.00  0.00    -0.030 A
HETATM   24  C4  UNL     1      14.568 -44.482   4.405  1.00  0.00     0.009 A
HETATM   25  C5  UNL     1      13.721 -45.252   5.170  1.00  0.00     0.001 A
HETATM   26  C6  UNL     1      12.362 -45.066   5.058  1.00  0.00     0.000 A
HETATM   27  C7  UNL     1      11.890 -44.113   4.183  1.00  0.00     0.001 A
HETATM   28  C8  UNL     1      12.741 -43.351   3.425  1.00  0.00     0.009 A
ENDBRANCH  22  23
ENDBRANCH  20  22
ENDBRANCH  19  20
ENDBRANCH  12  19
ENDBRANCH  10  11
ENDBRANCH   9  10
ENDBRANCH   1   9
TORSDOF 7
ENDMDL