MODEL 3
REMARK VINA RESULT: -6.286735548      1.781      5.592
REMARK  3 active torsions:
REMARK  status: ('A' for Active; 'I' for Inactive)
REMARK       I    between atoms: N3_4  and  C2_6
REMARK       I    between atoms: C2_6  and  N4_8
REMARK    1  A    between atoms: N4_8  and  C3_10
REMARK    2  A    between atoms: C3_10  and  N5_11
REMARK    3  A    between atoms: N7_16  and  N8_17
ROOT
HETATM    1  C3  UNL     1     -27.024   0.317  26.235  1.00  0.00     0.376 A
HETATM    2  N6  UNL     1     -26.916  -0.703  27.227  1.00  0.00    -0.044 NA
HETATM    3  N7  UNL     1     -26.595  -1.697  26.320  1.00  0.00    -0.163 N
HETATM    4  C4  UNL     1     -26.590  -0.753  25.270  1.00  0.00     0.331 A
HETATM    5  O2  UNL     1     -26.356  -0.681  24.040  1.00  0.00    -0.263 OA
ENDROOT
BRANCH   1   6
HETATM    6  N4  UNL     1     -26.097   1.394  26.238  1.00  0.00    -0.287 N
HETATM    7  C2  UNL     1     -26.159   2.446  27.178  1.00  0.00     0.325 C
HETATM    8  N3  UNL     1     -25.208   3.478  27.119  1.00  0.00    -0.285 N
HETATM    9  O1  UNL     1     -27.042   2.499  28.080  1.00  0.00    -0.247 OA
HETATM   10  C1  UNL     1     -25.560   4.647  26.694  1.00  0.00     0.204 C
ATOM     11  H3  UNL     1     -24.246   3.306  27.410  1.00  0.00     0.172 HD
HETATM   12  N1  UNL     1     -24.530   5.622  26.672  1.00  0.00    -0.066 NA
HETATM   13  N2  UNL     1     -26.879   4.884  26.294  1.00  0.00    -0.066 NA
ATOM     14  H4  UNL     1     -25.358   1.409  25.534  1.00  0.00     0.168 HD
ENDBRANCH   1   6
BRANCH   1  15
HETATM   15  N5  UNL     1     -28.420   0.681  26.042  1.00  0.00    -0.026 N
ATOM     16  H53 UNL     1     -29.018  -0.120  26.246  1.00  0.00     0.279 HD
ATOM     17  H52 UNL     1     -28.717   1.323  26.776  1.00  0.00     0.279 HD
ATOM     18  H51 UNL     1     -28.657   1.066  25.128  1.00  0.00     0.279 HD
ENDBRANCH   1  15
BRANCH   3  19
HETATM   19  N8  UNL     1     -26.367  -3.060  26.392  1.00  0.00    -0.324 N
ATOM     20  H82 UNL     1     -26.842  -3.881  26.016  1.00  0.00     0.178 HD
ATOM     21  H81 UNL     1     -25.667  -3.657  26.834  1.00  0.00     0.178 HD
ENDBRANCH   3  19
TORSDOF 3
ENDMDL