MODEL 5
REMARK VINA RESULT: -5.769157651      2.143      2.271
REMARK  5 active torsions:
REMARK  status: ('A' for Active; 'I' for Inactive)
REMARK    1  A    between atoms: N1_1  and  N2_4
REMARK       I    between atoms: N2_4  and  C1_6
REMARK       I    between atoms: C1_6  and  N3_8
REMARK    2  A    between atoms: N3_8  and  C2_10
REMARK    3  A    between atoms: C2_10  and  C3_11
REMARK    4  A    between atoms: C2_10  and  C4_14
REMARK       I    between atoms: C4_14  and  N5_16
REMARK    5  A    between atoms: N5_16  and  N6_18
ROOT
HETATM    1  C2  UNL     1     -26.171   2.747  27.078  1.00  0.00     0.269 C
ENDROOT
BRANCH   1   2
HETATM    2  N3  UNL     1     -27.608   2.473  27.126  1.00  0.00    -0.321 N
HETATM    3  C1  UNL     1     -28.172   1.252  26.708  1.00  0.00     0.335 C
HETATM    4  N2  UNL     1     -29.557   1.052  26.779  1.00  0.00    -0.258 N
HETATM    5  O1  UNL     1     -27.440   0.342  26.273  1.00  0.00    -0.246 OA
ATOM      6  H2  UNL     1     -30.138   1.810  27.138  1.00  0.00     0.191 HD
ATOM      7  H3  UNL     1     -28.229   3.200  27.478  1.00  0.00     0.165 HD
BRANCH   4   8
HETATM    8  N1  UNL     1     -30.183  -0.130  26.383  1.00  0.00    -0.341 N
ATOM      9  H12 UNL     1     -31.194  -0.103  26.251  1.00  0.00     0.177 HD
ATOM     10  H11 UNL     1     -29.681  -1.003  26.224  1.00  0.00     0.177 HD
ENDBRANCH   4   8
ENDBRANCH   1   2
BRANCH   1  11
HETATM   11  C3  UNL     1     -25.558   2.393  28.357  1.00  0.00     0.263 C
HETATM   12  N4  UNL     1     -26.262   1.790  29.412  1.00  0.00    -0.060 NA
HETATM   13  O2  UNL     1     -24.331   2.639  28.536  1.00  0.00    -0.274 OA
ENDBRANCH   1  11
BRANCH   1  14
HETATM   14  C4  UNL     1     -26.011   4.160  26.675  1.00  0.00     0.267 C
HETATM   15  O3  UNL     1     -27.035   4.851  26.347  1.00  0.00    -0.269 OA
HETATM   16  N5  UNL     1     -24.725   4.740  26.656  1.00  0.00    -0.274 N
ATOM     17  H5  UNL     1     -23.910   4.185  26.918  1.00  0.00     0.189 HD
BRANCH  16  18
HETATM   18  N6  UNL     1     -24.571   6.065  26.281  1.00  0.00    -0.343 N
ATOM     19  H62 UNL     1     -24.505   6.296  25.289  1.00  0.00     0.176 HD
ATOM     20  H61 UNL     1     -24.524   6.794  26.993  1.00  0.00     0.176 HD
ENDBRANCH  16  18
ENDBRANCH   1  14
TORSDOF 5
ENDMDL