MODEL 4
REMARK VINA RESULT: -6.037625033      2.567      5.363
REMARK  5 active torsions:
REMARK  status: ('A' for Active; 'I' for Inactive)
REMARK    1  A    between atoms: C2_2  and  N1_3
REMARK    2  A    between atoms: C2_2  and  N2_7
REMARK    3  A    between atoms: N2_7  and  N3_9
REMARK       I    between atoms: C3_11  and  N5_13
REMARK       I    between atoms: C4_15  and  N7_17
REMARK    4  A    between atoms: N7_17  and  N8_19
REMARK    5  A    between atoms: N8_19  and  O1_20
ROOT
HETATM    1  N3  UNL     1     -26.351   3.009  27.656  1.00  0.00    -0.276 N
ATOM      2  H3  UNL     1     -25.617   2.427  28.058  1.00  0.00     0.189 HD
HETATM    3  C3  UNL     1     -27.485   2.492  27.364  1.00  0.00     0.209 C
HETATM    4  N4  UNL     1     -28.506   3.293  26.809  1.00  0.00    -0.062 NA
HETATM    5  N5  UNL     1     -27.708   1.135  27.597  1.00  0.00    -0.303 N
ATOM      6  H5  UNL     1     -28.297   0.890  28.393  1.00  0.00     0.171 HD
HETATM    7  C4  UNL     1     -27.235   0.162  26.896  1.00  0.00     0.208 C
HETATM    8  N6  UNL     1     -27.577  -1.144  27.295  1.00  0.00    -0.062 NA
HETATM    9  N7  UNL     1     -26.400   0.329  25.760  1.00  0.00    -0.251 N
ATOM     10  H7  UNL     1     -25.528   0.846  25.860  1.00  0.00     0.187 HD
ENDROOT
BRANCH   1  11
HETATM   11  N2  UNL     1     -26.118   4.351  27.431  1.00  0.00    -0.304 N
ATOM     12  H2  UNL     1     -26.425   5.041  28.117  1.00  0.00     0.182 HD
BRANCH  11  13
HETATM   13  C2  UNL     1     -25.438   4.787  26.226  1.00  0.00     0.292 C
HETATM   14  C1  UNL     1     -24.474   5.919  26.518  1.00  0.00     0.064 C
BRANCH  13  15
HETATM   15  N1  UNL     1     -26.444   5.299  25.304  1.00  0.00    -0.058 N
ATOM     16  H13 UNL     1     -27.159   4.609  25.072  1.00  0.00     0.276 HD
ATOM     17  H12 UNL     1     -27.061   5.990  25.731  1.00  0.00     0.276 HD
ATOM     18  H11 UNL     1     -25.953   5.655  24.484  1.00  0.00     0.276 HD
ENDBRANCH  13  15
ENDBRANCH  11  13
ENDBRANCH   1  11
BRANCH   9  19
HETATM   19  N8  UNL     1     -26.742  -0.200  24.491  1.00  0.00     0.021 NA
BRANCH  19  20
HETATM   20  O1  UNL     1     -25.766   0.030  23.586  1.00  0.00    -0.277 OA
ATOM     21  H1  UNL     1     -26.045  -0.211  22.710  1.00  0.00     0.240 HD
ENDBRANCH  19  20
ENDBRANCH   9  19
TORSDOF 5
ENDMDL