MODEL 5
REMARK VINA RESULT: -6.011437494      1.538      4.170
REMARK  3 active torsions:
REMARK  status: ('A' for Active; 'I' for Inactive)
REMARK    1  A    between atoms: C1_2  and  N1_3
REMARK    2  A    between atoms: N1_3  and  N2_5
REMARK    3  A    between atoms: N2_5  and  C2_7
ROOT
HETATM    1  C2  UNL     1     -27.682   2.683  27.443  1.00  0.00     0.164 A
HETATM    2  C3  UNL     1     -26.688   3.516  27.080  1.00  0.00     0.112 A
HETATM    3  N3  UNL     1     -26.699   4.622  26.322  1.00  0.00    -0.303 N
ATOM      4  H3  UNL     1     -27.525   5.022  25.877  1.00  0.00     0.171 HD
HETATM    5  C4  UNL     1     -25.460   5.121  26.241  1.00  0.00     0.325 A
HETATM    6  O2  UNL     1     -25.035   6.140  25.636  1.00  0.00    -0.247 OA
HETATM    7  N4  UNL     1     -24.670   4.312  26.958  1.00  0.00    -0.305 N
ATOM      8  H4  UNL     1     -23.665   4.434  27.084  1.00  0.00     0.171 HD
HETATM    9  C5  UNL     1     -25.397   3.319  27.484  1.00  0.00     0.084 A
HETATM   10  C6  UNL     1     -25.063   2.295  28.254  1.00  0.00     0.139 A
HETATM   11  N5  UNL     1     -26.071   1.379  28.672  1.00  0.00    -0.308 N
ATOM     12  H5  UNL     1     -25.822   0.588  29.265  1.00  0.00     0.186 HD
HETATM   13  N6  UNL     1     -27.397   1.558  28.272  1.00  0.00    -0.283 N
ATOM     14  H6  UNL     1     -28.132   0.911  28.561  1.00  0.00     0.188 HD
ENDROOT
BRANCH   1  15
HETATM   15  N2  UNL     1     -29.010   2.878  27.035  1.00  0.00    -0.280 N
ATOM     16  H2  UNL     1     -29.609   3.412  27.665  1.00  0.00     0.188 HD
BRANCH  15  17
HETATM   17  N1  UNL     1     -29.594   2.421  25.862  1.00  0.00    -0.276 N
ATOM     18  H1  UNL     1     -28.983   2.035  25.143  1.00  0.00     0.189 HD
BRANCH  17  19
HETATM   19  C1  UNL     1     -30.991   2.457  25.598  1.00  0.00     0.368 C
HETATM   20  O1  UNL     1     -31.582   3.557  25.322  1.00  0.00    -0.282 OA
ENDBRANCH  17  19
ENDBRANCH  15  17
ENDBRANCH   1  15
TORSDOF 3
ENDMDL