MODEL 5
REMARK VINA RESULT: -5.922562167      2.497      5.395
REMARK  3 active torsions:
REMARK  status: ('A' for Active; 'I' for Inactive)
REMARK    1  A    between atoms: N1_1  and  N2_4
REMARK    2  A    between atoms: N2_4  and  N3_5
REMARK    3  A    between atoms: C4_9  and  N4_10
ROOT
HETATM    1  N3  UNL     1     -27.404  -2.173  24.243  1.00  0.00    -0.119 NA
HETATM    2  C1  UNL     1     -27.654  -0.834  24.750  1.00  0.00     0.178 C
HETATM    3  C2  UNL     1     -27.246  -1.037  26.193  1.00  0.00     0.135 A
HETATM    4  C3  UNL     1     -25.748  -0.963  26.348  1.00  0.00     0.118 A
HETATM    5  C4  UNL     1     -26.198   0.133  27.248  1.00  0.00     0.083 A
HETATM    6  N7  UNL     1     -27.476   0.038  27.088  1.00  0.00    -0.360 N
ATOM      7  H7  UNL     1     -28.296   0.525  27.449  1.00  0.00     0.162 HD
HETATM    8  C6  UNL     1     -27.853  -2.336  26.490  1.00  0.00     0.263 C
HETATM    9  O1  UNL     1     -28.177  -2.756  27.616  1.00  0.00    -0.269 OA
HETATM   10  N8  UNL     1     -27.988  -2.999  25.242  1.00  0.00    -0.271 N
ATOM     11  H8  UNL     1     -28.426  -3.908  25.090  1.00  0.00     0.185 HD
ENDROOT
BRANCH   1  12
HETATM   12  N2  UNL     1     -27.930  -2.401  22.999  1.00  0.00    -0.035 NA
BRANCH  12  13
HETATM   13  N1  UNL     1     -29.227  -1.911  22.835  1.00  0.00    -0.332 N
ATOM     14  H12 UNL     1     -29.700  -1.918  21.931  1.00  0.00     0.173 HD
ATOM     15  H11 UNL     1     -29.647  -1.554  23.693  1.00  0.00     0.173 HD
ENDBRANCH  12  13
ENDBRANCH   1  12
BRANCH   5  16
HETATM   16  N4  UNL     1     -25.421   1.019  28.045  1.00  0.00    -0.323 N
HETATM   17  C5  UNL     1     -25.344   2.282  27.807  1.00  0.00     0.202 C
HETATM   18  N5  UNL     1     -24.527   3.053  28.688  1.00  0.00    -0.066 NA
HETATM   19  N6  UNL     1     -26.037   2.869  26.727  1.00  0.00    -0.066 NA
ATOM     20  H4  UNL     1     -24.903   0.638  28.837  1.00  0.00     0.169 HD
ENDBRANCH   5  16
TORSDOF 3
ENDMDL