MODEL 3
REMARK VINA RESULT: -5.477826164      1.327      1.683
REMARK  3 active torsions:
REMARK  status: ('A' for Active; 'I' for Inactive)
REMARK    1  A    between atoms: N1_1  and  N2_4
REMARK       I    between atoms: C1_6  and  N3_7
REMARK       I    between atoms: C1_6  and  N6_12
REMARK    2  A    between atoms: N6_12  and  S1_14
REMARK    3  A    between atoms: S1_14  and  N7_15
ROOT
HETATM    1  N2  UNL     1     -28.346   0.755  27.906  1.00  0.00    -0.138 N
ATOM      2  H2  UNL     1     -28.411   0.897  28.913  1.00  0.00     0.205 HD
HETATM    3  C1  UNL     1     -27.224   0.895  27.299  1.00  0.00     0.709 C
HETATM    4  N3  UNL     1     -26.039   1.253  28.019  1.00  0.00    -0.164 N
ATOM      5  H3  UNL     1     -25.646   0.587  28.684  1.00  0.00     0.186 HD
HETATM    6  C2  UNL     1     -25.456   2.383  27.854  1.00  0.00     0.215 C
HETATM    7  N4  UNL     1     -26.013   3.303  26.923  1.00  0.00    -0.066 NA
HETATM    8  N5  UNL     1     -24.290   2.662  28.601  1.00  0.00    -0.066 NA
HETATM    9  N6  UNL     1     -27.197   0.686  25.902  1.00  0.00    -0.098 N
ATOM     10  H6  UNL     1     -27.545   1.431  25.300  1.00  0.00     0.199 HD
ENDROOT
BRANCH   1  11
HETATM   11  N1  UNL     1     -29.473   0.408  27.169  1.00  0.00    -0.331 N
ATOM     12  H12 UNL     1     -30.028  -0.401  27.450  1.00  0.00     0.177 HD
ATOM     13  H11 UNL     1     -29.726   0.971  26.357  1.00  0.00     0.177 HD
ENDBRANCH   1  11
BRANCH   9  14
HETATM   14  S1  UNL     1     -26.610  -0.752  25.149  1.00  0.00     0.330 S
HETATM   15  O1  UNL     1     -25.951  -0.391  23.871  1.00  0.00    -0.182 OA
HETATM   16  O2  UNL     1     -25.713  -1.535  26.058  1.00  0.00    -0.182 OA
BRANCH  14  17
HETATM   17  N7  UNL     1     -28.027  -1.735  24.858  1.00  0.00    -0.311 N
ATOM     18  H72 UNL     1     -28.196  -2.676  25.211  1.00  0.00     0.170 HD
ATOM     19  H71 UNL     1     -28.636  -1.166  24.269  1.00  0.00     0.170 HD
ENDBRANCH  14  17
ENDBRANCH   9  14
TORSDOF 3
ENDMDL