MODEL 5
REMARK VINA RESULT: -5.925886024      1.962      2.247
REMARK  3 active torsions:
REMARK  status: ('A' for Active; 'I' for Inactive)
REMARK    1  A    between atoms: N1_1  and  N2_4
REMARK       I    between atoms: N2_4  and  C1_6
REMARK       I    between atoms: C1_6  and  N3_8
REMARK       I    between atoms: N3_8  and  C2_10
REMARK       I    between atoms: C2_10  and  N4_12
REMARK       I    between atoms: N4_12  and  C3_14
REMARK    2  A    between atoms: C3_14  and  C4_16
REMARK    3  A    between atoms: C4_16  and  N5_17
ROOT
HETATM    1  N2  UNL     1     -25.920   3.562  27.430  1.00  0.00    -0.258 N
ATOM      2  H2  UNL     1     -26.787   3.482  26.897  1.00  0.00     0.191 HD
HETATM    3  C1  UNL     1     -25.293   2.423  27.941  1.00  0.00     0.342 C
HETATM    4  O1  UNL     1     -24.202   2.661  28.593  1.00  0.00    -0.245 OA
HETATM    5  N3  UNL     1     -25.668   1.094  27.851  1.00  0.00    -0.259 N
ATOM      6  H3  UNL     1     -25.053   0.414  28.298  1.00  0.00     0.175 HD
HETATM    7  C2  UNL     1     -26.853   0.564  27.182  1.00  0.00     0.330 C
HETATM    8  O2  UNL     1     -26.880  -0.712  27.306  1.00  0.00    -0.246 OA
HETATM    9  N4  UNL     1     -27.744   1.403  26.546  1.00  0.00    -0.275 N
ATOM     10  H4  UNL     1     -27.785   2.419  26.465  1.00  0.00     0.173 HD
HETATM   11  C3  UNL     1     -28.767   0.157  25.935  1.00  0.00     0.292 C
HETATM   12  O3  UNL     1     -28.440  -0.898  26.189  1.00  0.00    -0.268 OA
ENDROOT
BRANCH  11  13
HETATM   13  C4  UNL     1     -29.860   0.740  25.201  1.00  0.00     0.387 A
HETATM   14  C5  UNL     1     -29.886   0.283  23.731  1.00  0.00     0.316 A
HETATM   15  N6  UNL     1     -30.910  -0.103  24.663  1.00  0.00    -0.025 N
ATOM     16  H62 UNL     1     -31.278  -1.011  24.946  1.00  0.00     0.281 HD
ATOM     17  H61 UNL     1     -31.926  -0.012  24.647  1.00  0.00     0.281 HD
BRANCH  13  18
HETATM   18  N5  UNL     1     -30.198   2.161  25.373  1.00  0.00    -0.034 N
ATOM     19  H53 UNL     1     -30.098   2.396  26.360  1.00  0.00     0.278 HD
ATOM     20  H52 UNL     1     -29.457   2.720  24.951  1.00  0.00     0.278 HD
ATOM     21  H51 UNL     1     -31.095   2.521  25.047  1.00  0.00     0.278 HD
ENDBRANCH  13  18
ENDBRANCH  11  13
BRANCH   1  22
HETATM   22  N1  UNL     1     -25.330   4.834  27.665  1.00  0.00    -0.341 N
ATOM     23  H12 UNL     1     -24.679   5.222  26.982  1.00  0.00     0.177 HD
ATOM     24  H11 UNL     1     -25.571   5.338  28.519  1.00  0.00     0.177 HD
ENDBRANCH   1  22
TORSDOF 3
ENDMDL