MODEL 4
REMARK VINA RESULT: -5.872493703      1.526      2.281
REMARK  6 active torsions:
REMARK  status: ('A' for Active; 'I' for Inactive)
REMARK    1  A    between atoms: C1_4  and  N2_5
REMARK    2  A    between atoms: C1_4  and  C2_10
REMARK    3  A    between atoms: N2_5  and  N3_7
REMARK    4  A    between atoms: C2_10  and  N4_11
REMARK    5  A    between atoms: C2_10  and  C3_15
REMARK       I    between atoms: C3_15  and  N5_17
REMARK    6  A    between atoms: N5_17  and  C4_19
ROOT
HETATM    1  C2  UNL     1     -27.058  -0.156  27.133  1.00  0.00     0.343 C
ENDROOT
BRANCH   1   2
HETATM    2  C1  UNL     1     -26.237  -0.920  26.190  1.00  0.00     0.129 C
HETATM    3  N1  UNL     1     -25.135  -1.506  26.565  1.00  0.00    -0.386 N
ATOM      4  H12 UNL     1     -24.563  -2.038  25.908  1.00  0.00     0.157 HD
ATOM      5  H11 UNL     1     -24.864  -1.413  27.544  1.00  0.00     0.157 HD
BRANCH   2   6
HETATM    6  N2  UNL     1     -26.615  -1.050  24.819  1.00  0.00    -0.294 N
ATOM      7  H2  UNL     1     -27.260  -1.794  24.554  1.00  0.00     0.187 HD
BRANCH   6   8
HETATM    8  N3  UNL     1     -26.132  -0.189  23.827  1.00  0.00    -0.344 N
ATOM      9  H32 UNL     1     -25.598  -0.598  23.061  1.00  0.00     0.176 HD
ATOM     10  H31 UNL     1     -26.299   0.817  23.852  1.00  0.00     0.176 HD
ENDBRANCH   6   8
ENDBRANCH   2   6
ENDBRANCH   1   2
BRANCH   1  11
HETATM   11  N4  UNL     1     -28.328   0.206  26.548  1.00  0.00    -0.059 N
ATOM     12  H43 UNL     1     -28.285   1.117  26.094  1.00  0.00     0.275 HD
ATOM     13  H42 UNL     1     -28.541  -0.366  25.731  1.00  0.00     0.275 HD
ATOM     14  H41 UNL     1     -29.078   0.166  27.238  1.00  0.00     0.275 HD
ENDBRANCH   1  11
BRANCH   1  15
HETATM   15  C3  UNL     1     -26.299   1.038  27.610  1.00  0.00     0.274 C
HETATM   16  O1  UNL     1     -25.958   1.154  28.816  1.00  0.00    -0.270 OA
HETATM   17  N5  UNL     1     -25.986   2.024  26.649  1.00  0.00    -0.155 N
ATOM     18  H5  UNL     1     -25.791   1.710  25.699  1.00  0.00     0.187 HD
BRANCH  17  19
HETATM   19  C4  UNL     1     -25.927   3.277  26.878  1.00  0.00     0.716 A
HETATM   20  N6  UNL     1     -26.811   4.161  26.384  1.00  0.00    -0.115 N
HETATM   21  N7  UNL     1     -26.507   5.366  26.780  1.00  0.00    -0.213 N
ATOM     22  H6  UNL     1     -27.604   3.924  25.787  1.00  0.00     0.207 HD
HETATM   23  N8  UNL     1     -25.427   5.265  27.529  1.00  0.00    -0.213 N
ATOM     24  H7  UNL     1     -27.010   6.224  26.553  1.00  0.00     0.210 HD
HETATM   25  N9  UNL     1     -25.058   3.999  27.601  1.00  0.00    -0.115 N
ATOM     26  H8  UNL     1     -24.950   6.043  27.983  1.00  0.00     0.210 HD
ATOM     27  H9  UNL     1     -24.256   3.635  28.115  1.00  0.00     0.207 HD
ENDBRANCH  17  19
ENDBRANCH   1  15
TORSDOF 6
ENDMDL