MODEL 1
REMARK VINA RESULT: -6.915177125      0.000      0.000
REMARK  1 active torsions:
REMARK  status: ('A' for Active; 'I' for Inactive)
REMARK       I    between atoms: N1_1  and  C1_5
REMARK       I    between atoms: C1_5  and  N2_6
REMARK       I    between atoms: C1_5  and  N3_10
REMARK    1  A    between atoms: N3_10  and  C2_12
ROOT
HETATM    1  C2  UNL     1     -28.305   2.785  27.066  1.00  0.00     0.688 C
HETATM    2  N4  UNL     1     -27.770   2.033  28.072  1.00  0.00    -0.141 N
ATOM      3  H4  UNL     1     -28.384   1.310  28.449  1.00  0.00     0.189 HD
HETATM    4  C3  UNL     1     -26.544   2.107  28.643  1.00  0.00     0.341 C
HETATM    5  O1  UNL     1     -26.374   1.443  29.687  1.00  0.00    -0.246 OA
HETATM    6  N5  UNL     1     -25.454   2.800  28.251  1.00  0.00    -0.270 N
ATOM      7  H5  UNL     1     -24.567   2.561  28.695  1.00  0.00     0.174 HD
HETATM    8  C4  UNL     1     -25.434   3.778  27.328  1.00  0.00     0.318 C
HETATM    9  O2  UNL     1     -24.293   4.248  27.061  1.00  0.00    -0.262 OA
HETATM   10  C5  UNL     1     -26.475   4.354  26.620  1.00  0.00     0.328 C
HETATM   11  O3  UNL     1     -26.197   5.328  25.883  1.00  0.00    -0.261 OA
HETATM   12  N6  UNL     1     -27.782   3.954  26.655  1.00  0.00    -0.151 N
ATOM     13  H6  UNL     1     -28.458   4.642  26.322  1.00  0.00     0.188 HD
ENDROOT
BRANCH   1  14
HETATM   14  N3  UNL     1     -29.361   2.335  26.498  1.00  0.00    -0.173 N
HETATM   15  C1  UNL     1     -29.573   0.915  26.377  1.00  0.00     0.494 C
HETATM   16  N1  UNL     1     -31.013   0.632  26.329  1.00  0.00    -0.032 N
HETATM   17  N2  UNL     1     -28.964   0.496  25.120  1.00  0.00    -0.032 N
ATOM     18  H13 UNL     1     -31.465   1.055  25.519  1.00  0.00     0.278 HD
ATOM     19  H12 UNL     1     -31.209  -0.345  26.109  1.00  0.00     0.278 HD
ATOM     20  H11 UNL     1     -31.439   0.925  27.208  1.00  0.00     0.278 HD
ATOM     21  H23 UNL     1     -29.160  -0.481  24.900  1.00  0.00     0.278 HD
ATOM     22  H22 UNL     1     -29.416   0.919  24.310  1.00  0.00     0.278 HD
ATOM     23  H21 UNL     1     -27.963   0.692  25.153  1.00  0.00     0.278 HD
ATOM     24  H3  UNL     1     -30.056   2.985  26.131  1.00  0.00     0.181 HD
ENDBRANCH   1  14
TORSDOF 1
ENDMDL