MODEL 3
REMARK VINA RESULT: -5.084309864      1.800      3.302
REMARK  4 active torsions:
REMARK  status: ('A' for Active; 'I' for Inactive)
REMARK    1  A    between atoms: N1_2  and  C2_4
REMARK    2  A    between atoms: C3_7  and  N3_8
REMARK    3  A    between atoms: N6_15  and  N7_16
REMARK    4  A    between atoms: N9_22  and  O1_23
ROOT
HETATM    1  C2  UNL     1     -11.736 -19.319  46.689  1.00  0.00     0.717 A
HETATM    2  N2  UNL     1     -10.544 -18.756  46.939  1.00  0.00    -0.021 N
ATOM      3  H2  UNL     1     -10.186 -18.017  46.334  1.00  0.00     0.203 HD
HETATM    4  C3  UNL     1      -9.816 -19.181  48.008  1.00  0.00     0.693 A
HETATM    5  N4  UNL     1     -10.315 -20.149  48.781  1.00  0.00    -0.161 N
ATOM      6  H4  UNL     1      -9.771 -20.468  49.582  1.00  0.00     0.187 HD
HETATM    7  C4  UNL     1     -11.520 -20.726  48.539  1.00  0.00     0.247 A
HETATM    8  N5  UNL     1     -11.999 -21.762  49.420  1.00  0.00    -0.060 NA
HETATM    9  N6  UNL     1     -12.233 -20.314  47.492  1.00  0.00    -0.039 N
ENDROOT
BRANCH   9  10
HETATM   10  N7  UNL     1     -13.487 -20.891  47.186  1.00  0.00    -0.188 N
HETATM   11  C5  UNL     1     -13.559 -22.114  46.434  1.00  0.00     0.288 C
HETATM   12  N8  UNL     1     -14.480 -23.011  47.071  1.00  0.00    -0.382 N
HETATM   13  C6  UNL     1     -15.472 -22.558  47.735  1.00  0.00     0.075 C
ATOM     14  H8  UNL     1     -14.342 -24.018  46.993  1.00  0.00     0.160 HD
HETATM   15  C7  UNL     1     -15.748 -21.128  47.900  1.00  0.00     0.191 C
HETATM   16  N9  UNL     1     -14.640 -20.265  47.618  1.00  0.00    -0.083 NA
BRANCH  16  17
HETATM   17  O1  UNL     1     -15.052 -19.243  46.862  1.00  0.00    -0.292 OA
ATOM     18  H1  UNL     1     -15.914 -19.346  46.476  1.00  0.00     0.239 HD
ENDBRANCH  16  17
ENDBRANCH   9  10
BRANCH   1  19
HETATM   19  N1  UNL     1     -12.463 -18.960  45.722  1.00  0.00    -0.228 N
HETATM   20  C1  UNL     1     -12.652 -17.642  45.241  1.00  0.00     0.165 C
ATOM     21  H1  UNL     1     -12.969 -19.699  45.234  1.00  0.00     0.177 HD
ENDBRANCH   1  19
BRANCH   4  22
HETATM   22  N3  UNL     1      -8.671 -18.651  48.258  1.00  0.00    -0.234 N
ATOM     23  H32 UNL     1      -7.832 -19.224  48.349  1.00  0.00     0.174 HD
ATOM     24  H31 UNL     1      -8.589 -17.640  48.368  1.00  0.00     0.174 HD
ENDBRANCH   4  22
TORSDOF 4
ENDMDL