MODEL 1
REMARK VINA RESULT: -5.510950861      0.000      0.000
REMARK  2 active torsions:
REMARK  status: ('A' for Active; 'I' for Inactive)
REMARK    1  A    between atoms: C1_2  and  C2_4
REMARK    2  A    between atoms: C2_4  and  N2_5
ROOT
HETATM    1  C2  UNL     1     -13.693 -20.348  46.751  1.00  0.00     0.330 C
HETATM    2  N3  UNL     1     -12.590 -19.984  47.560  1.00  0.00    -0.251 N
ATOM      3  H3  UNL     1     -12.239 -19.029  47.494  1.00  0.00     0.177 HD
HETATM    4  S1  UNL     1     -11.843 -21.023  48.602  1.00  0.00     0.360 S
HETATM    5  O2  UNL     1     -12.285 -20.743  50.033  1.00  0.00    -0.176 OA
HETATM    6  O3  UNL     1     -10.346 -20.946  48.491  1.00  0.00    -0.176 OA
HETATM    7  O4  UNL     1     -12.280 -22.642  48.316  1.00  0.00    -0.255 OA
HETATM    8  C3  UNL     1     -13.635 -22.540  48.044  1.00  0.00     0.251 C
HETATM    9  C4  UNL     1     -13.830 -21.874  46.731  1.00  0.00     0.197 C
HETATM   10  N4  UNL     1     -15.050 -22.378  46.135  1.00  0.00    -0.310 N
ATOM     11  H4  UNL     1     -16.032 -22.106  46.091  1.00  0.00     0.167 HD
HETATM   12  C5  UNL     1     -14.214 -23.458  45.628  1.00  0.00     0.320 C
HETATM   13  O5  UNL     1     -14.311 -24.678  45.323  1.00  0.00    -0.247 OA
HETATM   14  N5  UNL     1     -13.184 -22.478  45.604  1.00  0.00    -0.310 N
ATOM     15  H5  UNL     1     -12.357 -22.289  45.038  1.00  0.00     0.167 HD
ENDROOT
BRANCH   1  16
HETATM   16  C1  UNL     1     -14.930 -19.754  47.401  1.00  0.00     0.293 C
HETATM   17  N1  UNL     1     -14.895 -18.288  47.374  1.00  0.00    -0.058 NA
HETATM   18  O1  UNL     1     -15.862 -20.303  47.904  1.00  0.00    -0.272 OA
ENDBRANCH   1  16
BRANCH   1  19
HETATM   19  N2  UNL     1     -13.590 -19.858  45.431  1.00  0.00    -0.039 N
ATOM     20  H23 UNL     1     -13.738 -20.587  44.732  1.00  0.00     0.278 HD
ATOM     21  H22 UNL     1     -14.375 -19.257  45.176  1.00  0.00     0.278 HD
ATOM     22  H21 UNL     1     -12.691 -19.390  45.321  1.00  0.00     0.278 HD
ENDBRANCH   1  19
TORSDOF 2
ENDMDL