MODEL 1
REMARK VINA RESULT: -7.141213934      0.000      0.000
REMARK  4 active torsions:
REMARK  status: ('A' for Active; 'I' for Inactive)
REMARK    1  A    between atoms: N1_1  and  N2_4
REMARK    2  A    between atoms: C1_8  and  N5_9
REMARK    3  A    between atoms: N5_9  and  N6_11
REMARK       I    between atoms: N6_11  and  C2_13
REMARK    4  A    between atoms: C2_13  and  C3_15
ROOT
HETATM    1  N6  UNL     1     -11.796 -19.394  48.132  1.00  0.00    -0.263 N
ATOM      2  H6  UNL     1     -12.237 -19.847  48.933  1.00  0.00     0.190 HD
HETATM    3  C2  UNL     1     -12.305 -19.676  46.859  1.00  0.00     0.277 C
HETATM    4  O1  UNL     1     -11.789 -19.139  45.848  1.00  0.00    -0.266 OA
ENDROOT
BRANCH   1   5
HETATM    5  N5  UNL     1     -10.725 -18.534  48.379  1.00  0.00    -0.266 N
ATOM      6  H5  UNL     1     -10.815 -17.529  48.235  1.00  0.00     0.190 HD
BRANCH   5   7
HETATM    7  C1  UNL     1      -9.611 -19.052  48.797  1.00  0.00     0.229 A
HETATM    8  N4  UNL     1      -8.322 -18.463  48.708  1.00  0.00    -0.249 N
HETATM    9  N3  UNL     1      -7.405 -19.349  49.276  1.00  0.00     0.020 NA
ATOM     10  H4  UNL     1      -8.105 -17.554  48.301  1.00  0.00     0.187 HD
HETATM   11  N2  UNL     1      -8.090 -20.474  49.714  1.00  0.00    -0.119 N
HETATM   12  N10 UNL     1      -9.427 -20.308  49.431  1.00  0.00    -0.234 N
ATOM     13  H10 UNL     1     -10.165 -20.979  49.643  1.00  0.00     0.193 HD
BRANCH  11  14
HETATM   14  N1  UNL     1      -7.625 -21.517  50.288  1.00  0.00    -0.310 N
ATOM     15  H12 UNL     1      -7.681 -22.448  49.875  1.00  0.00     0.180 HD
ATOM     16  H11 UNL     1      -7.153 -21.590  51.189  1.00  0.00     0.180 HD
ENDBRANCH  11  14
ENDBRANCH   5   7
ENDBRANCH   1   5
BRANCH   3  17
HETATM   17  C3  UNL     1     -13.421 -20.583  46.688  1.00  0.00     0.119 A
HETATM   18  C4  UNL     1     -13.219 -21.909  46.291  1.00  0.00     0.131 A
HETATM   19  N7  UNL     1     -14.241 -22.757  46.130  1.00  0.00    -0.296 N
HETATM   20  N8  UNL     1     -15.474 -22.354  46.346  1.00  0.00    -0.240 N
ATOM     21  H7  UNL     1     -14.064 -23.719  45.841  1.00  0.00     0.187 HD
HETATM   22  N9  UNL     1     -15.702 -21.109  46.721  1.00  0.00    -0.251 N
ATOM     23  H8  UNL     1     -16.253 -23.001  46.223  1.00  0.00     0.208 HD
HETATM   24  C5  UNL     1     -14.727 -20.203  46.902  1.00  0.00     0.278 A
ATOM     25  H9  UNL     1     -16.667 -20.821  46.881  1.00  0.00     0.192 HD
HETATM   26  O2  UNL     1     -14.940 -19.020  47.258  1.00  0.00    -0.266 OA
ENDBRANCH   3  17
TORSDOF 4
ENDMDL