MODEL 5
REMARK VINA RESULT: -5.422876146      3.052      4.528
REMARK  6 active torsions:
REMARK  status: ('A' for Active; 'I' for Inactive)
REMARK    1  A    between atoms: C2_5  and  N3_6
REMARK    2  A    between atoms: N3_6  and  N4_8
REMARK    3  A    between atoms: C3_13  and  N6_14
REMARK    4  A    between atoms: N6_14  and  N7_16
REMARK    5  A    between atoms: C4_19  and  S1_20
REMARK    6  A    between atoms: S1_20  and  N8_21
ROOT
HETATM    1  C1  UNL     1     -10.576 -21.811  50.330  1.00  0.00     0.179 C
HETATM    2  N1  UNL     1     -11.376 -21.390  49.208  1.00  0.00    -0.267 N
HETATM    3  N2  UNL     1     -12.499 -22.042  48.924  1.00  0.00    -0.128 N
ATOM      4  H2  UNL     1     -12.772 -22.838  49.501  1.00  0.00     0.206 HD
HETATM    5  C2  UNL     1     -13.282 -21.678  47.896  1.00  0.00     0.712 A
HETATM    6  N5  UNL     1     -12.891 -20.639  47.173  1.00  0.00    -0.170 N
ATOM      7  H5  UNL     1     -13.480 -20.356  46.389  1.00  0.00     0.186 HD
HETATM    8  C3  UNL     1     -11.749 -19.921  47.406  1.00  0.00     0.177 A
HETATM    9  C4  UNL     1     -10.966 -20.317  48.462  1.00  0.00     0.212 A
ENDROOT
BRANCH   9  10
HETATM   10  S1  UNL     1      -9.504 -19.497  48.839  1.00  0.00     0.277 S
HETATM   11  O1  UNL     1      -8.951 -18.702  47.690  1.00  0.00    -0.199 OA
HETATM   12  O2  UNL     1      -8.410 -20.476  49.221  1.00  0.00    -0.199 OA
BRANCH  10  13
HETATM   13  N8  UNL     1      -9.687 -18.405  50.178  1.00  0.00    -0.323 N
ATOM     14  H82 UNL     1     -10.305 -18.592  50.967  1.00  0.00     0.169 HD
ATOM     15  H81 UNL     1      -9.110 -17.569  50.078  1.00  0.00     0.169 HD
ENDBRANCH  10  13
ENDBRANCH   9  10
BRANCH   8  16
HETATM   16  N6  UNL     1     -11.437 -18.815  46.589  1.00  0.00    -0.289 N
ATOM     17  H6  UNL     1     -10.611 -18.243  46.760  1.00  0.00     0.188 HD
BRANCH  16  18
HETATM   18  N7  UNL     1     -12.322 -18.535  45.521  1.00  0.00    -0.344 N
ATOM     19  H72 UNL     1     -13.329 -18.639  45.641  1.00  0.00     0.176 HD
ATOM     20  H71 UNL     1     -11.905 -18.229  44.641  1.00  0.00     0.176 HD
ENDBRANCH  16  18
ENDBRANCH   8  16
BRANCH   5  21
HETATM   21  N3  UNL     1     -14.371 -22.343  47.657  1.00  0.00    -0.137 N
ATOM     22  H3  UNL     1     -14.596 -23.150  48.239  1.00  0.00     0.205 HD
BRANCH  21  23
HETATM   23  N4  UNL     1     -15.242 -21.988  46.627  1.00  0.00    -0.331 N
ATOM     24  H42 UNL     1     -15.485 -21.003  46.524  1.00  0.00     0.177 HD
ATOM     25  H41 UNL     1     -15.631 -22.680  45.986  1.00  0.00     0.177 HD
ENDBRANCH  21  23
ENDBRANCH   5  21
TORSDOF 6
ENDMDL