MODEL 3
REMARK VINA RESULT: -4.973784394      3.790      6.354
REMARK  4 active torsions:
REMARK  status: ('A' for Active; 'I' for Inactive)
REMARK    1  A    between atoms: C2_2  and  N1_3
REMARK    2  A    between atoms: C2_2  and  C3_7
REMARK       I    between atoms: C3_7  and  N2_9
REMARK    3  A    between atoms: N3_11  and  N4_13
REMARK    4  A    between atoms: N6_21  and  N7_22
ROOT
HETATM    1  C3  UNL     1     -13.198 -22.332  47.940  1.00  0.00     0.274 C
HETATM    2  O1  UNL     1     -12.378 -23.027  48.608  1.00  0.00    -0.269 OA
HETATM    3  N2  UNL     1     -13.023 -20.929  47.859  1.00  0.00    -0.175 N
HETATM    4  C4  UNL     1     -11.993 -20.202  48.465  1.00  0.00     0.231 C
HETATM    5  N3  UNL     1     -11.419 -20.512  49.602  1.00  0.00    -0.276 N
ATOM      6  H3  UNL     1     -11.732 -21.344  50.102  1.00  0.00     0.189 HD
HETATM    7  N5  UNL     1     -11.614 -19.063  47.711  1.00  0.00    -0.237 N
ATOM      8  H5  UNL     1     -10.822 -18.440  47.875  1.00  0.00     0.183 HD
HETATM    9  S1  UNL     1     -12.788 -18.965  46.455  1.00  0.00     0.341 S
HETATM   10  O2  UNL     1     -12.266 -19.431  45.146  1.00  0.00    -0.185 OA
HETATM   11  O3  UNL     1     -13.362 -17.600  46.428  1.00  0.00    -0.185 OA
HETATM   12  N6  UNL     1     -13.916 -20.123  47.131  1.00  0.00     0.001 NA
ENDROOT
BRANCH   1  13
HETATM   13  C2  UNL     1     -14.300 -23.066  47.281  1.00  0.00     0.272 C
HETATM   14  C1  UNL     1     -14.020 -23.270  45.814  1.00  0.00     0.050 C
BRANCH  13  15
HETATM   15  N1  UNL     1     -15.555 -22.347  47.391  1.00  0.00    -0.067 N
ATOM     16  H13 UNL     1     -15.427 -21.345  47.536  1.00  0.00     0.275 HD
ATOM     17  H12 UNL     1     -16.060 -22.291  46.506  1.00  0.00     0.275 HD
ATOM     18  H11 UNL     1     -16.099 -22.789  48.131  1.00  0.00     0.275 HD
ENDBRANCH  13  15
ENDBRANCH   1  13
BRANCH  12  19
HETATM   19  N7  UNL     1     -14.738 -19.401  48.040  1.00  0.00    -0.330 NA
ATOM     20  H72 UNL     1     -14.117 -18.786  48.566  1.00  0.00     0.173 HD
ATOM     21  H71 UNL     1     -15.039 -20.026  48.788  1.00  0.00     0.173 HD
ENDBRANCH  12  19
BRANCH   5  22
HETATM   22  N4  UNL     1     -10.400 -19.744  50.147  1.00  0.00    -0.342 N
ATOM     23  H42 UNL     1      -9.802 -20.174  50.853  1.00  0.00     0.176 HD
ATOM     24  H41 UNL     1     -10.237 -18.779  49.862  1.00  0.00     0.176 HD
ENDBRANCH   5  22
TORSDOF 4
ENDMDL