MODEL 5
REMARK VINA RESULT: -5.800884874      2.664      3.910
REMARK  2 active torsions:
REMARK  status: ('A' for Active; 'I' for Inactive)
REMARK    1  A    between atoms: C4_8  and  C5_9
REMARK       I    between atoms: C5_9  and  N3_11
REMARK       I    between atoms: C6_13  and  N5_15
REMARK    2  A    between atoms: N5_15  and  N6_17
ROOT
HETATM    1  C5  UNL     1     -12.556 -20.744  48.235  1.00  0.00     0.281 C
HETATM    2  O2  UNL     1     -13.129 -19.624  48.231  1.00  0.00    -0.267 OA
HETATM    3  N3  UNL     1     -13.263 -21.921  47.891  1.00  0.00    -0.296 N
ATOM      4  H3  UNL     1     -13.568 -22.577  48.609  1.00  0.00     0.171 HD
HETATM    5  C6  UNL     1     -13.510 -22.140  46.648  1.00  0.00     0.210 C
HETATM    6  N4  UNL     1     -13.110 -21.260  45.616  1.00  0.00    -0.062 NA
HETATM    7  N5  UNL     1     -14.217 -23.315  46.281  1.00  0.00    -0.259 N
ATOM      8  H5  UNL     1     -13.895 -24.235  46.582  1.00  0.00     0.191 HD
ENDROOT
BRANCH   1   9
HETATM    9  C4  UNL     1     -11.118 -20.893  48.598  1.00  0.00     0.385 C
HETATM   10  O1  UNL     1     -10.965 -21.213  49.944  1.00  0.00    -0.225 OA
HETATM   11  N2  UNL     1      -9.680 -21.504  50.153  1.00  0.00    -0.205 N
HETATM   12  N1  UNL     1      -8.773 -20.754  49.430  1.00  0.00    -0.081 NA
ATOM     13  H2  UNL     1      -9.386 -22.233  50.803  1.00  0.00     0.211 HD
HETATM   14  C2  UNL     1      -9.355 -19.473  49.056  1.00  0.00     0.149 C
HETATM   15  C1  UNL     1      -8.400 -18.665  48.199  1.00  0.00     0.067 C
HETATM   16  C3  UNL     1      -9.634 -18.703  50.305  1.00  0.00     0.067 C
HETATM   17  O3  UNL     1     -10.487 -19.695  48.274  1.00  0.00    -0.322 OA
ENDBRANCH   1   9
BRANCH   7  18
HETATM   18  N6  UNL     1     -15.362 -23.178  45.501  1.00  0.00    -0.247 N
HETATM   19  N7  UNL     1     -15.431 -23.897  44.442  1.00  0.00    -0.331 N
ATOM     20  H72 UNL     1     -14.674 -24.535  44.196  1.00  0.00     0.178 HD
ATOM     21  H71 UNL     1     -16.270 -23.797  43.870  1.00  0.00     0.178 HD
ATOM     22  H6  UNL     1     -16.110 -22.535  45.760  1.00  0.00     0.207 HD
ENDBRANCH   7  18
TORSDOF 2
ENDMDL