MODEL 2
REMARK VINA RESULT: -6.019876171      1.664      1.981
REMARK  6 active torsions:
REMARK  status: ('A' for Active; 'I' for Inactive)
REMARK    1  A    between atoms: N1_2  and  C3_4
REMARK    2  A    between atoms: C5_10  and  N4_11
REMARK    3  A    between atoms: N5_14  and  O1_15
REMARK    4  A    between atoms: N6_18  and  C7_19
REMARK    5  A    between atoms: C7_19  and  O2_20
REMARK    6  A    between atoms: O2_20  and  N7_21
ROOT
HETATM    1  C3  UNL     1     -11.115 -21.547  49.489  1.00  0.00     0.696 A
HETATM    2  N2  UNL     1     -10.692 -20.504  48.765  1.00  0.00    -0.171 N
ATOM      3  H2  UNL     1      -9.780 -20.093  48.966  1.00  0.00     0.186 HD
HETATM    4  C4  UNL     1     -11.439 -19.988  47.784  1.00  0.00     0.185 A
HETATM    5  N3  UNL     1     -11.289 -18.960  46.920  1.00  0.00    -0.170 N
ATOM      6  H3  UNL     1     -10.479 -18.343  46.862  1.00  0.00     0.186 HD
HETATM    7  C5  UNL     1     -12.382 -18.887  46.154  1.00  0.00     0.706 A
HETATM    8  N5  UNL     1     -13.271 -19.862  46.497  1.00  0.00    -0.030 N
HETATM    9  C6  UNL     1     -12.751 -20.578  47.494  1.00  0.00     0.216 A
HETATM   10  N6  UNL     1     -13.097 -21.617  48.261  1.00  0.00    -0.230 N
HETATM   11  N8  UNL     1     -12.314 -22.084  49.221  1.00  0.00    -0.126 N
ATOM     12  H8  UNL     1     -12.634 -22.878  49.775  1.00  0.00     0.206 HD
ENDROOT
BRANCH  10  13
HETATM   13  C7  UNL     1     -14.346 -22.307  48.005  1.00  0.00     0.351 C
BRANCH  13  14
HETATM   14  O2  UNL     1     -14.326 -22.984  46.794  1.00  0.00    -0.266 OA
BRANCH  14  15
HETATM   15  N7  UNL     1     -15.328 -22.837  45.974  1.00  0.00    -0.309 N
ATOM     16  H72 UNL     1     -15.554 -21.909  45.616  1.00  0.00     0.184 HD
ATOM     17  H71 UNL     1     -15.869 -23.658  45.706  1.00  0.00     0.184 HD
ENDBRANCH  14  15
ENDBRANCH  13  14
ENDBRANCH  10  13
BRANCH   8  18
HETATM   18  O1  UNL     1     -14.506 -20.055  45.929  1.00  0.00    -0.268 OA
ATOM     19  H1  UNL     1     -15.249 -19.469  46.009  1.00  0.00     0.246 HD
ENDBRANCH   8  18
BRANCH   1  20
HETATM   20  N1  UNL     1     -10.343 -21.990  50.417  1.00  0.00    -0.225 N
HETATM   21  C1  UNL     1      -9.706 -21.065  51.319  1.00  0.00     0.168 C
HETATM   22  C2  UNL     1     -10.107 -23.407  50.566  1.00  0.00     0.168 C
ENDBRANCH   1  20
BRANCH   7  23
HETATM   23  N4  UNL     1     -12.567 -18.023  45.232  1.00  0.00    -0.232 N
ATOM     24  H42 UNL     1     -13.132 -17.181  45.328  1.00  0.00     0.174 HD
ATOM     25  H41 UNL     1     -12.167 -18.080  44.295  1.00  0.00     0.174 HD
ENDBRANCH   7  23
TORSDOF 6
ENDMDL