MODEL 5
REMARK VINA RESULT: -6.955950755      2.253      3.899
REMARK  6 active torsions:
REMARK  status: ('A' for Active; 'I' for Inactive)
REMARK    1  A    between atoms: N1_1  and  S1_4
REMARK    2  A    between atoms: S1_4  and  N2_6
REMARK    3  A    between atoms: S1_4  and  N7_17
REMARK    4  A    between atoms: N2_6  and  C1_8
REMARK       I    between atoms: N7_17  and  C2_19
REMARK       I    between atoms: C2_19  and  N9_24
REMARK    5  A    between atoms: N8_20  and  O2_22
REMARK    6  A    between atoms: N9_24  and  O3_26
ROOT
HETATM    1  S1  UNL     1     -11.573 -20.445  48.619  1.00  0.00     0.224 S
HETATM    2  O1  UNL     1     -11.932 -21.808  48.123  1.00  0.00    -0.205 OA
ENDROOT
BRANCH   1   3
HETATM    3  N1  UNL     1     -11.651 -20.502  50.362  1.00  0.00    -0.327 N
ATOM      4  H12 UNL     1     -12.503 -20.567  50.919  1.00  0.00     0.169 HD
ATOM      5  H11 UNL     1     -10.691 -20.457  50.704  1.00  0.00     0.169 HD
ENDBRANCH   1   3
BRANCH   1   6
HETATM    6  N2  UNL     1      -9.989 -19.969  48.195  1.00  0.00    -0.114 N
ATOM      7  H2  UNL     1      -9.394 -20.643  47.714  1.00  0.00     0.197 HD
BRANCH   6   8
HETATM    8  C1  UNL     1      -9.503 -18.796  48.454  1.00  0.00     0.723 A
HETATM    9  N3  UNL     1      -9.901 -17.881  49.353  1.00  0.00    -0.114 N
HETATM   10  N4  UNL     1      -9.088 -16.844  49.238  1.00  0.00    -0.213 N
ATOM     11  H3  UNL     1     -10.683 -17.969  50.002  1.00  0.00     0.207 HD
HETATM   12  N5  UNL     1      -8.190 -17.072  48.298  1.00  0.00    -0.213 N
ATOM     13  H4  UNL     1      -9.148 -15.991  49.794  1.00  0.00     0.210 HD
HETATM   14  N6  UNL     1      -8.446 -18.266  47.820  1.00  0.00    -0.114 N
ATOM     15  H5  UNL     1      -7.444 -16.443  48.002  1.00  0.00     0.210 HD
ATOM     16  H6  UNL     1      -7.919 -18.723  47.076  1.00  0.00     0.207 HD
ENDBRANCH   6   8
ENDBRANCH   1   6
BRANCH   1  17
HETATM   17  N7  UNL     1     -12.657 -19.433  48.123  1.00  0.00    -0.113 N
HETATM   18  C2  UNL     1     -13.557 -19.864  47.126  1.00  0.00     0.731 C
HETATM   19  N8  UNL     1     -14.628 -20.482  47.446  1.00  0.00    -0.096 N
HETATM   20  N9  UNL     1     -13.270 -19.611  45.769  1.00  0.00    -0.096 N
ATOM     21  H8  UNL     1     -14.794 -20.644  48.440  1.00  0.00     0.213 HD
ATOM     22  H9  UNL     1     -13.556 -20.312  45.086  1.00  0.00     0.213 HD
ATOM     23  H7  UNL     1     -12.712 -18.490  48.509  1.00  0.00     0.197 HD
BRANCH  19  24
HETATM   24  O2  UNL     1     -15.562 -20.942  46.580  1.00  0.00    -0.276 OA
ATOM     25  H2  UNL     1     -15.792 -21.854  46.448  1.00  0.00     0.245 HD
ENDBRANCH  19  24
BRANCH  20  26
HETATM   26  O3  UNL     1     -12.644 -18.506  45.311  1.00  0.00    -0.276 OA
ATOM     27  H3  UNL     1     -13.028 -17.638  45.292  1.00  0.00     0.245 HD
ENDBRANCH  20  26
ENDBRANCH   1  17
TORSDOF 6
ENDMDL