MODEL 5
REMARK VINA RESULT: -5.869031935      1.684      5.578
REMARK  3 active torsions:
REMARK  status: ('A' for Active; 'I' for Inactive)
REMARK    1  A    between atoms: N1_1  and  C1_4
REMARK    2  A    between atoms: C5_14  and  N5_15
REMARK    3  A    between atoms: C6_19  and  N6_20
ROOT
HETATM    1  C1  UNL     1      -8.322 -18.620  48.467  1.00  0.00     0.677 A
HETATM    2  N2  UNL     1      -9.317 -18.524  47.568  1.00  0.00    -0.201 N
ATOM      3  H2  UNL     1      -9.234 -17.851  46.806  1.00  0.00     0.183 HD
HETATM    4  C2  UNL     1     -10.406 -19.283  47.647  1.00  0.00     0.123 A
HETATM    5  C3  UNL     1     -10.551 -20.212  48.676  1.00  0.00     0.051 A
HETATM    6  C4  UNL     1      -9.539 -20.314  49.594  1.00  0.00     0.132 A
HETATM    7  N3  UNL     1      -8.457 -19.512  49.458  1.00  0.00    -0.176 N
ATOM      8  H3  UNL     1      -7.706 -19.590  50.145  1.00  0.00     0.186 HD
HETATM    9  N4  UNL     1      -9.846 -21.230  50.480  1.00  0.00    -0.343 N
ATOM     10  H4  UNL     1      -9.261 -21.500  51.271  1.00  0.00     0.163 HD
HETATM   11  C5  UNL     1     -11.123 -21.796  50.173  1.00  0.00     0.334 A
HETATM   12  C6  UNL     1     -11.535 -21.066  48.952  1.00  0.00     0.073 A
ENDROOT
BRANCH  12  13
HETATM   13  N6  UNL     1     -12.736 -21.222  48.203  1.00  0.00    -0.377 N
HETATM   14  C7  UNL     1     -13.094 -22.457  47.550  1.00  0.00     0.142 C
HETATM   15  C8  UNL     1     -14.605 -22.511  47.474  1.00  0.00     0.133 C
HETATM   16  N7  UNL     1     -15.069 -21.459  46.638  1.00  0.00    -0.418 N
HETATM   17  C9  UNL     1     -14.543 -20.170  46.913  1.00  0.00     0.133 C
ATOM     18  H7  UNL     1     -15.738 -21.620  45.885  1.00  0.00     0.153 HD
HETATM   19  C10 UNL     1     -13.629 -20.097  48.095  1.00  0.00     0.142 C
ENDBRANCH  12  13
BRANCH  11  20
HETATM   20  N5  UNL     1     -10.931 -23.218  49.907  1.00  0.00    -0.053 N
ATOM     21  H53 UNL     1     -11.212 -23.808  50.689  1.00  0.00     0.277 HD
ATOM     22  H52 UNL     1     -11.588 -23.583  49.218  1.00  0.00     0.277 HD
ATOM     23  H51 UNL     1      -9.957 -23.357  49.637  1.00  0.00     0.277 HD
ENDBRANCH  11  20
BRANCH   1  24
HETATM   24  N1  UNL     1      -7.297 -17.852  48.326  1.00  0.00    -0.234 N
ATOM     25  H12 UNL     1      -7.348 -16.895  47.977  1.00  0.00     0.174 HD
ATOM     26  H11 UNL     1      -6.380 -18.219  48.578  1.00  0.00     0.174 HD
ENDBRANCH   1  24
TORSDOF 3
ENDMDL