MODEL 3
REMARK VINA RESULT: -6.121229996      1.290      1.424
REMARK  3 active torsions:
REMARK  status: ('A' for Active; 'I' for Inactive)
REMARK    1  A    between atoms: C3_3  and  N1_4
REMARK    2  A    between atoms: C3_3  and  C4_8
REMARK    3  A    between atoms: N3_15  and  N4_16
ROOT
HETATM    1  C1  UNL     1      -7.161 -23.591  50.031  1.00  0.00     0.014 C
HETATM    2  C2  UNL     1      -8.125 -22.885  50.280  1.00  0.00    -0.080 C
HETATM    3  C3  UNL     1      -9.332 -22.019  50.553  1.00  0.00     0.291 C
ENDROOT
BRANCH   3   4
HETATM    4  N1  UNL     1      -8.855 -21.574  51.941  1.00  0.00    -0.061 N
ATOM      5  H13 UNL     1      -9.018 -22.202  52.728  1.00  0.00     0.276 HD
ATOM      6  H12 UNL     1      -7.850 -21.549  52.118  1.00  0.00     0.276 HD
ATOM      7  H11 UNL     1      -9.360 -20.688  51.922  1.00  0.00     0.276 HD
ENDBRANCH   3   4
BRANCH   3   8
HETATM    8  C4  UNL     1      -9.265 -20.736  49.967  1.00  0.00    -0.019 C
HETATM    9  C5  UNL     1     -10.199 -20.294  49.152  1.00  0.00     0.060 A
HETATM   10  C6  UNL     1     -10.335 -19.082  48.474  1.00  0.00     0.138 A
HETATM   11  C8  UNL     1     -11.224 -21.191  49.007  1.00  0.00     0.139 A
HETATM   12  N2  UNL     1     -11.448 -18.856  47.730  1.00  0.00    -0.291 N
HETATM   13  N6  UNL     1      -9.497 -18.114  48.368  1.00  0.00    -0.289 N
HETATM   14  C7  UNL     1     -12.417 -19.775  47.630  1.00  0.00     0.348 A
ATOM     15  H2  UNL     1     -11.547 -17.969  47.238  1.00  0.00     0.172 HD
HETATM   16  O1  UNL     1     -13.460 -19.563  46.934  1.00  0.00    -0.245 OA
HETATM   17  N3  UNL     1     -12.338 -20.949  48.253  1.00  0.00    -0.195 N
HETATM   18  N7  UNL     1      -8.213 -18.027  48.908  1.00  0.00    -0.335 N
ATOM     19  H6  UNL     1      -9.809 -17.310  47.822  1.00  0.00     0.188 HD
HETATM   20  C9  UNL     1      -7.393 -19.246  49.174  1.00  0.00     0.144 C
ATOM     21  H7  UNL     1      -7.824 -17.110  49.126  1.00  0.00     0.180 HD
HETATM   22  C10 UNL     1      -8.052 -19.873  50.330  1.00  0.00     0.059 C
HETATM   23  N5  UNL     1     -11.144 -22.337  49.555  1.00  0.00    -0.383 N
ATOM     24  H52 UNL     1     -10.313 -22.518  50.117  1.00  0.00     0.157 HD
ATOM     25  H51 UNL     1     -11.907 -23.006  49.446  1.00  0.00     0.157 HD
BRANCH  17  26
HETATM   26  N4  UNL     1     -13.289 -21.949  48.202  1.00  0.00    -0.333 N
ATOM     27  H42 UNL     1     -14.260 -21.671  48.344  1.00  0.00     0.177 HD
ATOM     28  H41 UNL     1     -13.100 -22.937  48.035  1.00  0.00     0.177 HD
ENDBRANCH  17  26
ENDBRANCH   3   8
TORSDOF 3
ENDMDL