MODEL 3
REMARK VINA RESULT: -5.676665178      1.107      1.214
REMARK  10 active torsions:
REMARK  status: ('A' for Active; 'I' for Inactive)
REMARK       I    between atoms: N3_7  and  C4_8
REMARK    1  A    between atoms: C4_8  and  C5_10
REMARK    2  A    between atoms: C5_10  and  O2_11
REMARK    3  A    between atoms: C5_10  and  C6_13
REMARK    4  A    between atoms: C6_13  and  O3_14
REMARK    5  A    between atoms: C6_13  and  N4_16
REMARK    6  A    between atoms: N4_16  and  N5_18
REMARK    7  A    between atoms: C10_24  and  O5_25
REMARK    8  A    between atoms: C11_27  and  C12_28
REMARK    9  A    between atoms: C12_28  and  N6_29
REMARK   10  A    between atoms: C12_28  and  O6_33
ROOT
HETATM    1  N5  UNL     1      14.167  18.715  77.589  1.00  0.00    -0.310 N
ATOM      2  H5  UNL     1      13.828  19.352  78.309  1.00  0.00     0.186 HD
HETATM    3  C7  UNL     1      13.369  18.282  76.697  1.00  0.00     0.011 C
HETATM    4  C8  UNL     1      13.846  17.360  75.651  1.00  0.00     0.135 C
HETATM    5  C9  UNL     1      13.116  17.590  74.376  1.00  0.00     0.161 C
HETATM    6  O4  UNL     1      13.612  17.075  73.366  1.00  0.00    -0.295 OA
HETATM    7  C10 UNL     1      11.878  18.366  74.232  1.00  0.00     0.196 C
HETATM    8  C11 UNL     1      11.654  19.327  75.367  1.00  0.00     0.083 C
HETATM    9  C13 UNL     1      11.945  18.713  76.716  1.00  0.00     0.066 C
ENDROOT
BRANCH   1  10
HETATM   10  N4  UNL     1      15.504  18.318  77.583  1.00  0.00    -0.305 N
ATOM     11  H4  UNL     1      15.862  17.690  76.864  1.00  0.00     0.183 HD
BRANCH  10  12
HETATM   12  C6  UNL     1      16.369  18.826  78.629  1.00  0.00     0.270 C
BRANCH  12  13
HETATM   13  C5  UNL     1      16.857  17.691  79.541  1.00  0.00     0.260 C
BRANCH  13  14
HETATM   14  C4  UNL     1      18.091  17.148  78.932  1.00  0.00     0.259 C
HETATM   15  N3  UNL     1      18.740  15.995  79.386  1.00  0.00    -0.288 N
HETATM   16  C1  UNL     1      19.941  15.434  78.815  1.00  0.00     0.193 C
HETATM   17  C3  UNL     1      18.398  15.120  80.498  1.00  0.00     0.154 C
HETATM   18  N1  UNL     1      20.432  15.660  77.501  1.00  0.00    -0.063 NA
HETATM   19  N2  UNL     1      20.512  14.681  79.689  1.00  0.00    -0.363 N
HETATM   20  C2  UNL     1      19.775  14.650  80.932  1.00  0.00     0.142 C
ATOM     21  H2  UNL     1      21.378  14.169  79.525  1.00  0.00     0.162 HD
HETATM   22  O1  UNL     1      18.575  17.768  77.952  1.00  0.00    -0.270 OA
ENDBRANCH  13  14
BRANCH  13  23
HETATM   23  O2  UNL     1      17.114  18.216  80.819  1.00  0.00    -0.382 OA
ATOM     24  H2  UNL     1      17.187  17.522  81.464  1.00  0.00     0.210 HD
ENDBRANCH  13  23
ENDBRANCH  12  13
BRANCH  12  25
HETATM   25  O3  UNL     1      15.648  19.693  79.462  1.00  0.00    -0.372 OA
ATOM     26  H3  UNL     1      15.175  20.272  78.876  1.00  0.00     0.212 HD
ENDBRANCH  12  25
ENDBRANCH  10  12
ENDBRANCH   1  10
BRANCH   8  27
HETATM   27  C12 UNL     1      10.229  19.853  75.307  1.00  0.00     0.323 C
BRANCH  27  28
HETATM   28  N6  UNL     1       9.878  20.245  76.670  1.00  0.00    -0.053 N
ATOM     29  H63 UNL     1      10.468  19.812  77.381  1.00  0.00     0.277 HD
ATOM     30  H62 UNL     1      10.112  21.214  76.884  1.00  0.00     0.277 HD
ATOM     31  H61 UNL     1       8.886  20.035  76.783  1.00  0.00     0.277 HD
ENDBRANCH  27  28
BRANCH  27  32
HETATM   32  O6  UNL     1      10.131  20.938  74.443  1.00  0.00    -0.369 OA
ATOM     33  H6  UNL     1       9.250  21.292  74.437  1.00  0.00     0.212 HD
ENDBRANCH  27  32
ENDBRANCH   8  27
BRANCH   7  34
HETATM   34  O5  UNL     1      12.003  19.150  73.063  1.00  0.00    -0.388 OA
ATOM     35  H5  UNL     1      12.930  19.229  72.871  1.00  0.00     0.210 HD
ENDBRANCH   7  34
TORSDOF 10
ENDMDL