MODEL 5
REMARK VINA RESULT: -5.490977786      2.100      2.836
REMARK  8 active torsions:
REMARK  status: ('A' for Active; 'I' for Inactive)
REMARK    1  A    between atoms: N1_1  and  N2_4
REMARK       I    between atoms: N2_4  and  C1_6
REMARK       I    between atoms: C1_6  and  N3_7
REMARK       I    between atoms: C1_6  and  N10_28
REMARK    2  A    between atoms: N3_7  and  C2_9
REMARK    3  A    between atoms: C2_9  and  C3_10
REMARK    4  A    between atoms: C3_10  and  N4_11
REMARK    5  A    between atoms: C6_16  and  N6_17
REMARK    6  A    between atoms: N6_17  and  N7_19
REMARK    7  A    between atoms: N10_28  and  N11_30
REMARK       I    between atoms: C9_32  and  N13_34
REMARK    8  A    between atoms: N13_34  and  N14_36
ROOT
HETATM    1  N2  UNL     1      15.347  20.451  78.074  1.00  0.00    -0.138 N
ATOM      2  H2  UNL     1      15.301  20.720  77.091  1.00  0.00     0.205 HD
HETATM    3  C1  UNL     1      15.267  19.213  78.397  1.00  0.00     0.706 C
HETATM    4  N3  UNL     1      15.334  18.854  79.769  1.00  0.00    -0.222 N
ATOM      5  H3  UNL     1      14.485  18.595  80.272  1.00  0.00     0.177 HD
HETATM    6  N10 UNL     1      15.116  18.182  77.438  1.00  0.00    -0.129 N
ATOM      7  H10 UNL     1      15.648  17.321  77.563  1.00  0.00     0.205 HD
ENDROOT
BRANCH   4   8
HETATM    8  C2  UNL     1      16.594  18.856  80.442  1.00  0.00     0.158 C
BRANCH   8   9
HETATM    9  C3  UNL     1      17.123  17.454  80.508  1.00  0.00     0.151 C
BRANCH   9  10
HETATM   10  N4  UNL     1      18.210  17.266  79.598  1.00  0.00    -0.326 N
HETATM   11  C4  UNL     1      18.829  18.189  78.854  1.00  0.00     0.185 A
HETATM   12  N5  UNL     1      19.794  17.592  78.140  1.00  0.00    -0.346 N
HETATM   13  C5  UNL     1      19.821  16.274  78.406  1.00  0.00     0.123 A
ATOM     14  H5  UNL     1      20.419  18.068  77.489  1.00  0.00     0.167 HD
HETATM   15  C6  UNL     1      20.611  15.247  77.939  1.00  0.00     0.151 A
HETATM   16  C8  UNL     1      18.817  16.075  79.329  1.00  0.00     0.140 A
HETATM   17  N8  UNL     1      20.366  14.020  78.424  1.00  0.00    -0.336 N
HETATM   18  C7  UNL     1      19.389  13.784  79.331  1.00  0.00     0.183 A
ATOM     19  H8  UNL     1      20.936  13.239  78.098  1.00  0.00     0.168 HD
HETATM   20  N9  UNL     1      18.637  14.814  79.763  1.00  0.00    -0.336 N
ATOM     21  H9  UNL     1      17.902  14.631  80.446  1.00  0.00     0.168 HD
BRANCH  15  22
HETATM   22  N6  UNL     1      21.552  15.421  77.078  1.00  0.00    -0.290 N
ATOM     23  H6  UNL     1      21.416  15.167  76.099  1.00  0.00     0.188 HD
BRANCH  22  24
HETATM   24  N7  UNL     1      22.756  15.963  77.512  1.00  0.00    -0.344 N
ATOM     25  H72 UNL     1      22.847  16.293  78.473  1.00  0.00     0.176 HD
ATOM     26  H71 UNL     1      23.531  16.017  76.851  1.00  0.00     0.176 HD
ENDBRANCH  22  24
ENDBRANCH  15  22
ENDBRANCH   9  10
ENDBRANCH   8   9
ENDBRANCH   4   8
BRANCH   1  27
HETATM   27  N1  UNL     1      15.496  21.433  79.053  1.00  0.00    -0.331 N
ATOM     28  H12 UNL     1      14.948  21.358  79.910  1.00  0.00     0.177 HD
ATOM     29  H11 UNL     1      16.140  22.213  78.914  1.00  0.00     0.177 HD
ENDBRANCH   1  27
BRANCH   6  30
HETATM   30  N11 UNL     1      14.275  18.287  76.331  1.00  0.00    -0.258 N
HETATM   31  C9  UNL     1      13.243  17.529  76.229  1.00  0.00     0.227 C
HETATM   32  N12 UNL     1      12.985  16.591  77.261  1.00  0.00    -0.060 NA
HETATM   33  N13 UNL     1      12.425  17.681  75.081  1.00  0.00    -0.212 N
ATOM     34  H13 UNL     1      12.079  16.838  74.623  1.00  0.00     0.196 HD
ATOM     35  H11 UNL     1      14.480  18.967  75.600  1.00  0.00     0.190 HD
BRANCH  33  36
HETATM   36  N14 UNL     1      12.066  18.913  74.543  1.00  0.00    -0.036 N
HETATM   37  O1  UNL     1      11.911  19.003  73.311  1.00  0.00    -0.516 OA
HETATM   38  O2  UNL     1      11.867  20.049  75.290  1.00  0.00    -0.516 OA
ENDBRANCH  33  36
ENDBRANCH   6  30
TORSDOF 8
ENDMDL