MODEL 1
REMARK VINA RESULT: -5.885124252      0.000      0.000
REMARK  12 active torsions:
REMARK  status: ('A' for Active; 'I' for Inactive)
REMARK    1  A    between atoms: N1_1  and  N2_4
REMARK    2  A    between atoms: C1_6  and  N3_7
REMARK    3  A    between atoms: C1_6  and  S1_12
REMARK    4  A    between atoms: N3_7  and  N4_9
REMARK    5  A    between atoms: S1_12  and  N5_13
REMARK    6  A    between atoms: S1_12  and  C2_17
REMARK    7  A    between atoms: N7_20  and  C3_21
REMARK    8  A    between atoms: C3_21  and  O2_22
REMARK    9  A    between atoms: O2_22  and  C4_23
REMARK   10  A    between atoms: C4_23  and  O3_24
REMARK   11  A    between atoms: C4_23  and  C5_26
REMARK   12  A    between atoms: C5_26  and  O4_27
ROOT
HETATM    1  C2  UNL     1      16.709  18.787  78.747  1.00  0.00     0.160 A
HETATM    2  N6  UNL     1      16.012  17.992  77.985  1.00  0.00    -0.281 N
ATOM      3  H6  UNL     1      16.272  17.030  77.764  1.00  0.00     0.188 HD
HETATM    4  N7  UNL     1      14.902  18.606  77.528  1.00  0.00    -0.237 N
HETATM    5  C6  UNL     1      14.886  19.831  78.015  1.00  0.00     0.155 A
HETATM    6  C7  UNL     1      14.065  20.928  77.959  1.00  0.00     0.277 A
HETATM    7  O5  UNL     1      13.014  20.836  77.267  1.00  0.00    -0.266 OA
HETATM    8  N8  UNL     1      14.367  22.057  78.624  1.00  0.00    -0.318 N
ATOM      9  H8  UNL     1      13.727  22.849  78.554  1.00  0.00     0.169 HD
HETATM   10  C8  UNL     1      15.472  22.189  79.373  1.00  0.00     0.184 A
HETATM   11  N9  UNL     1      16.281  21.124  79.436  1.00  0.00    -0.348 N
ATOM     12  H9  UNL     1      17.128  21.197  79.999  1.00  0.00     0.167 HD
HETATM   13  C9  UNL     1      16.044  19.965  78.802  1.00  0.00     0.106 A
ENDROOT
BRANCH   1  14
HETATM   14  S1  UNL     1      18.434  18.462  79.706  1.00  0.00     0.136 S
HETATM   15  O1  UNL     1      18.592  18.868  81.303  1.00  0.00    -0.235 OA
BRANCH  14  16
HETATM   16  C1  UNL     1      19.762  17.677  78.484  1.00  0.00     0.216 C
HETATM   17  N2  UNL     1      19.919  16.459  78.265  1.00  0.00    -0.282 N
ATOM     18  H2  UNL     1      19.325  15.782  78.743  1.00  0.00     0.188 HD
BRANCH  17  19
HETATM   19  N1  UNL     1      20.892  16.011  77.379  1.00  0.00    -0.343 N
ATOM     20  H12 UNL     1      21.818  15.792  77.744  1.00  0.00     0.176 HD
ATOM     21  H11 UNL     1      20.686  15.903  76.386  1.00  0.00     0.176 HD
ENDBRANCH  17  19
BRANCH  16  22
HETATM   22  N3  UNL     1      20.581  18.621  77.824  1.00  0.00    -0.282 N
ATOM     23  H3  UNL     1      20.553  18.695  76.807  1.00  0.00     0.188 HD
BRANCH  22  24
HETATM   24  N4  UNL     1      21.421  19.446  78.552  1.00  0.00    -0.343 N
ATOM     25  H42 UNL     1      21.298  19.506  79.562  1.00  0.00     0.176 HD
ATOM     26  H41 UNL     1      22.149  19.983  78.081  1.00  0.00     0.176 HD
ENDBRANCH  22  24
ENDBRANCH  16  22
ENDBRANCH  14  16
BRANCH  14  27
HETATM   27  N5  UNL     1      17.887  16.771  80.141  1.00  0.00    -0.349 N
ATOM     28  H52 UNL     1      18.345  15.864  80.222  1.00  0.00     0.166 HD
ATOM     29  H51 UNL     1      16.940  17.131  80.264  1.00  0.00     0.166 HD
ENDBRANCH  14  27
ENDBRANCH   1  14
BRANCH   4  30
HETATM   30  C3  UNL     1      13.952  17.999  76.624  1.00  0.00     0.255 C
BRANCH  30  31
HETATM   31  O2  UNL     1      13.861  18.455  75.374  1.00  0.00    -0.312 OA
BRANCH  31  32
HETATM   32  C4  UNL     1      12.914  18.146  74.488  1.00  0.00     0.287 C
BRANCH  32  33
HETATM   33  O3  UNL     1      13.320  18.422  73.146  1.00  0.00    -0.369 OA
ATOM     34  H3  UNL     1      13.226  17.665  72.580  1.00  0.00     0.212 HD
ENDBRANCH  32  33
BRANCH  32  35
HETATM   35  C5  UNL     1      11.613  18.944  74.682  1.00  0.00     0.225 C
BRANCH  35  36
HETATM   36  O4  UNL     1      11.910  20.288  74.597  1.00  0.00    -0.396 OA
ATOM     37  H4  UNL     1      11.098  20.767  74.484  1.00  0.00     0.209 HD
ENDBRANCH  35  36
ENDBRANCH  32  35
ENDBRANCH  31  32
ENDBRANCH  30  31
ENDBRANCH   4  30
TORSDOF 12
ENDMDL