MODEL 5
REMARK VINA RESULT: -5.678788381      4.069      6.320
REMARK  9 active torsions:
REMARK  status: ('A' for Active; 'I' for Inactive)
REMARK    1  A    between atoms: N1_2  and  O1_3
REMARK       I    between atoms: N1_2  and  C2_5
REMARK    2  A    between atoms: C2_5  and  C3_7
REMARK    3  A    between atoms: C3_7  and  C4_8
REMARK    4  A    between atoms: N3_15  and  C8_16
REMARK    5  A    between atoms: C9_19  and  C10_20
REMARK    6  A    between atoms: C10_20  and  O4_21
REMARK    7  A    between atoms: C10_20  and  C11_23
REMARK    8  A    between atoms: C11_23  and  N5_24
REMARK    9  A    between atoms: C11_23  and  O5_28
ROOT
HETATM    1  C8  UNL     1      11.434  19.826  77.100  1.00  0.00     0.697 A
HETATM    2  N4  UNL     1      11.276  19.285  75.885  1.00  0.00    -0.177 N
ATOM      3  H4  UNL     1      10.334  19.088  75.551  1.00  0.00     0.185 HD
HETATM    4  C9  UNL     1      12.327  18.993  75.091  1.00  0.00     0.146 A
HETATM    5  N6  UNL     1      13.557  19.258  75.541  1.00  0.00    -0.177 N
ATOM      6  H6  UNL     1      14.361  19.042  74.951  1.00  0.00     0.185 HD
HETATM    7  C12 UNL     1      13.761  19.804  76.761  1.00  0.00     0.691 A
HETATM    8  N7  UNL     1      14.915  20.071  77.224  1.00  0.00    -0.234 N
ATOM      9  H71 UNL     1      15.069  20.483  78.144  1.00  0.00     0.174 HD
ATOM     10  H72 UNL     1      15.728  19.862  76.645  1.00  0.00     0.174 HD
HETATM   11  N8  UNL     1      12.670  20.085  77.537  1.00  0.00    -0.022 N
ATOM     12  H8  UNL     1      12.801  20.497  78.461  1.00  0.00     0.203 HD
ENDROOT
BRANCH   1  13
HETATM   13  N3  UNL     1      10.326  20.129  77.912  1.00  0.00    -0.202 N
HETATM   14  C4  UNL     1       9.666  21.447  77.818  1.00  0.00     0.203 C
HETATM   15  C5  UNL     1       9.716  21.991  79.177  1.00  0.00     0.241 C
HETATM   16  O3  UNL     1      10.042  23.174  79.380  1.00  0.00    -0.271 OA
HETATM   17  N2  UNL     1       9.389  21.165  80.278  1.00  0.00    -0.358 N
HETATM   18  C6  UNL     1       9.181  19.756  80.076  1.00  0.00     0.143 C
ATOM     19  H2  UNL     1       9.301  21.567  81.211  1.00  0.00     0.162 HD
HETATM   20  C7  UNL     1       9.791  19.186  78.847  1.00  0.00     0.162 C
BRANCH  14  21
HETATM   21  C3  UNL     1       8.291  21.178  77.290  1.00  0.00     0.140 C
BRANCH  21  22
HETATM   22  C2  UNL     1       7.835  22.143  76.270  1.00  0.00     0.245 C
HETATM   23  N1  UNL     1       8.385  22.129  74.967  1.00  0.00    -0.233 N
HETATM   24  C1  UNL     1       7.971  23.050  73.930  1.00  0.00     0.188 C
HETATM   25  O2  UNL     1       6.952  22.995  76.528  1.00  0.00    -0.271 OA
BRANCH  23  26
HETATM   26  O1  UNL     1       9.349  21.216  74.659  1.00  0.00    -0.285 OA
ATOM     27  H1  UNL     1       9.699  21.222  73.776  1.00  0.00     0.245 HD
ENDBRANCH  23  26
ENDBRANCH  21  22
ENDBRANCH  14  21
ENDBRANCH   1  13
BRANCH   4  28
HETATM   28  C10 UNL     1      12.163  18.387  73.755  1.00  0.00     0.242 C
BRANCH  28  29
HETATM   29  O4  UNL     1      13.190  18.818  72.888  1.00  0.00    -0.384 OA
ATOM     30  H4  UNL     1      13.558  19.640  73.190  1.00  0.00     0.210 HD
ENDBRANCH  28  29
BRANCH  28  31
HETATM   31  C11 UNL     1      12.241  16.901  73.875  1.00  0.00     0.352 C
BRANCH  31  32
HETATM   32  N5  UNL     1      13.282  16.390  73.014  1.00  0.00    -0.050 N
ATOM     33  H53 UNL     1      13.591  17.085  72.335  1.00  0.00     0.277 HD
ATOM     34  H52 UNL     1      14.164  16.266  73.512  1.00  0.00     0.277 HD
ATOM     35  H51 UNL     1      12.971  15.528  72.566  1.00  0.00     0.277 HD
ENDBRANCH  31  32
BRANCH  31  36
HETATM   36  O5  UNL     1      12.571  16.520  75.183  1.00  0.00    -0.368 OA
ATOM     37  H5  UNL     1      11.792  16.302  75.681  1.00  0.00     0.212 HD
ENDBRANCH  31  36
ENDBRANCH  28  31
ENDBRANCH   4  28
TORSDOF 9
ENDMDL