MODEL 5
REMARK VINA RESULT: -5.512590743      1.756      2.189
REMARK  9 active torsions:
REMARK  status: ('A' for Active; 'I' for Inactive)
REMARK    1  A    between atoms: C2_2  and  C3_3
REMARK    2  A    between atoms: C3_3  and  N1_4
REMARK    3  A    between atoms: C3_3  and  C4_8
REMARK    4  A    between atoms: C4_8  and  O1_9
REMARK    5  A    between atoms: C4_8  and  N2_11
REMARK    6  A    between atoms: N2_11  and  C5_13
REMARK    7  A    between atoms: C6_16  and  C7_17
REMARK       I    between atoms: C7_17  and  N4_19
REMARK    8  A    between atoms: N4_19  and  N5_21
REMARK    9  A    between atoms: N10_34  and  N11_35
ROOT
HETATM    1  C5  UNL     1      14.847  18.865  77.998  1.00  0.00     0.707 A
HETATM    2  N3  UNL     1      15.874  18.003  78.030  1.00  0.00    -0.169 N
ATOM      3  H3  UNL     1      15.788  17.132  77.505  1.00  0.00     0.186 HD
HETATM    4  C6  UNL     1      17.013  18.224  78.719  1.00  0.00     0.195 A
HETATM    5  N9  UNL     1      17.076  19.384  79.392  1.00  0.00    -0.287 N
ATOM      6  H9  UNL     1      17.922  19.588  79.926  1.00  0.00     0.172 HD
HETATM    7  C10 UNL     1      16.073  20.300  79.400  1.00  0.00     0.361 A
HETATM    8  O4  UNL     1      16.178  21.361  80.041  1.00  0.00    -0.244 OA
HETATM    9  N10 UNL     1      14.970  20.008  78.692  1.00  0.00    -0.038 N
ENDROOT
BRANCH   4  10
HETATM   10  C7  UNL     1      18.105  17.279  78.738  1.00  0.00     0.306 C
HETATM   11  O2  UNL     1      17.830  16.129  79.208  1.00  0.00    -0.263 OA
HETATM   12  N4  UNL     1      19.406  17.593  78.270  1.00  0.00    -0.239 N
ATOM     13  H4  UNL     1      19.586  18.527  77.901  1.00  0.00     0.192 HD
BRANCH  12  14
HETATM   14  N5  UNL     1      20.450  16.663  78.299  1.00  0.00    -0.123 N
HETATM   15  N6  UNL     1      20.601  15.662  77.339  1.00  0.00     0.006 NA
HETATM   16  N7  UNL     1      20.926  14.469  77.959  1.00  0.00    -0.278 N
HETATM   17  C8  UNL     1      21.894  14.483  78.999  1.00  0.00     0.200 C
ATOM     18  H7  UNL     1      20.480  13.597  77.675  1.00  0.00     0.185 HD
HETATM   19  N8  UNL     1      22.143  15.562  79.681  1.00  0.00    -0.301 N
HETATM   20  C9  UNL     1      21.408  16.728  79.345  1.00  0.00     0.360 C
ATOM     21  H8  UNL     1      22.838  15.570  80.427  1.00  0.00     0.171 HD
HETATM   22  O3  UNL     1      21.601  17.830  79.974  1.00  0.00    -0.243 OA
ENDBRANCH  12  14
ENDBRANCH   4  10
BRANCH   1  23
HETATM   23  N2  UNL     1      13.764  18.661  77.347  1.00  0.00    -0.196 N
ATOM     24  H2  UNL     1      12.933  18.357  77.854  1.00  0.00     0.180 HD
BRANCH  23  25
HETATM   25  C4  UNL     1      13.685  18.847  75.918  1.00  0.00     0.265 C
BRANCH  25  26
HETATM   26  C3  UNL     1      12.802  17.776  75.317  1.00  0.00     0.231 C
BRANCH  26  27
HETATM   27  C2  UNL     1      13.030  17.574  73.848  1.00  0.00     0.033 C
HETATM   28  C1  UNL     1      13.030  16.128  73.459  1.00  0.00     0.007 C
ENDBRANCH  26  27
BRANCH  26  29
HETATM   29  N1  UNL     1      13.030  16.524  76.011  1.00  0.00    -0.071 N
ATOM     30  H13 UNL     1      12.200  15.934  76.027  1.00  0.00     0.274 HD
ATOM     31  H12 UNL     1      13.642  15.898  75.488  1.00  0.00     0.274 HD
ATOM     32  H11 UNL     1      13.386  16.719  76.946  1.00  0.00     0.274 HD
ENDBRANCH  26  29
ENDBRANCH  25  26
BRANCH  25  33
HETATM   33  O1  UNL     1      13.030  20.067  75.709  1.00  0.00    -0.374 OA
ATOM     34  H1  UNL     1      13.066  20.236  74.774  1.00  0.00     0.212 HD
ENDBRANCH  25  33
ENDBRANCH  23  25
ENDBRANCH   1  23
BRANCH   9  35
HETATM   35  N11 UNL     1      13.900  20.938  78.675  1.00  0.00    -0.320 N
ATOM     36 2H11 UNL     1      13.418  21.118  77.795  1.00  0.00     0.178 HD
ATOM     37 1H11 UNL     1      13.638  21.405  79.544  1.00  0.00     0.178 HD
ENDBRANCH   9  35
TORSDOF 9
ENDMDL