MODEL 5
REMARK VINA RESULT: -5.544794502      1.991      2.606
REMARK  10 active torsions:
REMARK  status: ('A' for Active; 'I' for Inactive)
REMARK    1  A    between atoms: C4_7  and  O2_8
REMARK    2  A    between atoms: C6_14  and  N3_15
REMARK    3  A    between atoms: N3_15  and  C7_17
REMARK    4  A    between atoms: C7_17  and  C8_18
REMARK    5  A    between atoms: N6_23  and  C9_24
REMARK    6  A    between atoms: C9_24  and  C10_25
REMARK    7  A    between atoms: C10_25  and  C11_27
REMARK    8  A    between atoms: C11_27  and  O5_28
REMARK    9  A    between atoms: C11_27  and  O6_30
REMARK   10  A    between atoms: C12_32  and  O7_33
ROOT
HETATM    1  C8  UNL     1      15.381  19.761  78.337  1.00  0.00     0.116 A
HETATM    2  N4  UNL     1      14.934  20.736  77.557  1.00  0.00    -0.281 N
ATOM      3  H4  UNL     1      15.056  21.732  77.738  1.00  0.00     0.188 HD
HETATM    4  N5  UNL     1      14.305  20.225  76.509  1.00  0.00    -0.238 N
ATOM      5  H5  UNL     1      13.868  20.757  75.756  1.00  0.00     0.208 HD
HETATM    6  N6  UNL     1      14.343  18.921  76.607  1.00  0.00    -0.247 N
HETATM    7  C12 UNL     1      15.011  18.589  77.745  1.00  0.00     0.189 A
ENDROOT
BRANCH   1   8
HETATM    8  C7  UNL     1      16.146  19.906  79.623  1.00  0.00     0.119 C
BRANCH   8   9
HETATM    9  N3  UNL     1      17.465  19.532  79.538  1.00  0.00    -0.384 N
ATOM     10  H3  UNL     1      18.079  20.216  79.096  1.00  0.00     0.159 HD
BRANCH   9  11
HETATM   11  C6  UNL     1      18.077  18.391  79.952  1.00  0.00     0.183 C
HETATM   12  C2  UNL     1      19.247  18.664  80.884  1.00  0.00     0.129 C
HETATM   13  C1  UNL     1      18.927  19.472  82.058  1.00  0.00     0.066 C
HETATM   14  N1  UNL     1      20.226  19.185  79.972  1.00  0.00    -0.330 N
HETATM   15  N2  UNL     1      19.631  17.290  81.163  1.00  0.00    -0.330 N
HETATM   16  C3  UNL     1      20.053  18.482  78.746  1.00  0.00     0.266 C
ATOM     17  H1  UNL     1      20.911  19.916  80.165  1.00  0.00     0.165 HD
HETATM   18  O1  UNL     1      20.802  18.691  77.751  1.00  0.00    -0.269 OA
HETATM   19  C4  UNL     1      18.923  17.588  78.962  1.00  0.00     0.244 C
HETATM   20  C5  UNL     1      19.416  16.548  79.955  1.00  0.00     0.266 C
HETATM   21  O3  UNL     1      19.594  15.328  79.764  1.00  0.00    -0.269 OA
ATOM     22  H2  UNL     1      19.985  16.924  82.047  1.00  0.00     0.165 HD
BRANCH  19  23
HETATM   23  O2  UNL     1      18.283  17.100  77.902  1.00  0.00    -0.370 OA
ATOM     24  H2  UNL     1      17.406  17.414  77.716  1.00  0.00     0.212 HD
ENDBRANCH  19  23
ENDBRANCH   9  11
ENDBRANCH   8   9
ENDBRANCH   1   8
BRANCH   7  25
HETATM   25  O7  UNL     1      15.283  17.323  78.238  1.00  0.00    -0.343 OA
ATOM     26  H7  UNL     1      15.405  17.107  79.155  1.00  0.00     0.219 HD
ENDBRANCH   7  25
BRANCH   6  27
HETATM   27  C9  UNL     1      13.801  17.890  75.713  1.00  0.00     0.236 C
BRANCH  27  28
HETATM   28  C10 UNL     1      12.375  18.130  75.455  1.00  0.00     0.200 C
HETATM   29  O4  UNL     1      11.482  17.702  76.186  1.00  0.00    -0.291 OA
BRANCH  28  30
HETATM   30  C11 UNL     1      11.946  18.919  74.270  1.00  0.00     0.327 C
BRANCH  30  31
HETATM   31  O5  UNL     1      11.837  20.286  74.563  1.00  0.00    -0.365 OA
ATOM     32  H5  UNL     1      11.075  20.676  74.152  1.00  0.00     0.213 HD
ENDBRANCH  30  31
BRANCH  30  33
HETATM   33  O6  UNL     1      12.802  18.760  73.188  1.00  0.00    -0.365 OA
ATOM     34  H6  UNL     1      12.693  19.442  72.536  1.00  0.00     0.213 HD
ENDBRANCH  30  33
ENDBRANCH  28  30
ENDBRANCH  27  28
ENDBRANCH   6  27
TORSDOF 10
ENDMDL