MODEL 5
REMARK VINA RESULT: -4.838513509      4.189      6.870
REMARK  9 active torsions:
REMARK  status: ('A' for Active; 'I' for Inactive)
REMARK    1  A    between atoms: C3_4  and  O2_5
REMARK    2  A    between atoms: C6_12  and  O4_13
REMARK    3  A    between atoms: C6_12  and  N2_15
REMARK    4  A    between atoms: N2_15  and  S1_17
REMARK    5  A    between atoms: S1_17  and  O7_20
REMARK    6  A    between atoms: O7_20  and  C7_21
REMARK    7  A    between atoms: C7_21  and  C8_22
REMARK    8  A    between atoms: C8_22  and  C9_23
REMARK    9  A    between atoms: C9_23  and  O8_24
ROOT
HETATM    1  O1  UNL     1       9.723  21.022  76.032  1.00  0.00    -0.287 OA
HETATM    2  C1  UNL     1       8.612  21.092  75.449  1.00  0.00     0.196 A
HETATM    3  C2  UNL     1       8.297  22.180  74.533  1.00  0.00     0.112 A
HETATM    4  C3  UNL     1       7.137  22.288  73.900  1.00  0.00     0.146 A
HETATM    5  N1  UNL     1       6.094  21.325  74.078  1.00  0.00    -0.303 N
ATOM      6  H1  UNL     1       5.210  21.429  73.582  1.00  0.00     0.171 HD
HETATM    7  C4  UNL     1       6.297  20.221  74.951  1.00  0.00     0.266 A
HETATM    8  O3  UNL     1       5.377  19.359  75.115  1.00  0.00    -0.267 OA
HETATM    9  C5  UNL     1       7.562  20.078  75.658  1.00  0.00     0.133 A
HETATM   10  C6  UNL     1       7.809  19.061  76.491  1.00  0.00     0.171 C
ENDROOT
BRANCH  10  11
HETATM   11  O4  UNL     1       6.778  18.136  76.646  1.00  0.00    -0.345 OA
ATOM     12  H4  UNL     1       6.862  17.539  77.380  1.00  0.00     0.219 HD
ENDBRANCH  10  11
BRANCH  10  13
HETATM   13  N2  UNL     1       9.047  18.938  77.170  1.00  0.00    -0.240 N
ATOM     14  H2  UNL     1       9.374  19.691  77.775  1.00  0.00     0.183 HD
BRANCH  13  15
HETATM   15  S1  UNL     1       9.989  17.530  76.977  1.00  0.00     0.363 S
HETATM   16  O5  UNL     1       9.944  16.770  78.273  1.00  0.00    -0.175 OA
HETATM   17  O6  UNL     1       9.417  16.612  75.916  1.00  0.00    -0.175 OA
BRANCH  15  18
HETATM   18  O7  UNL     1      11.582  17.855  76.608  1.00  0.00    -0.256 OA
BRANCH  18  19
HETATM   19  C7  UNL     1      12.061  16.841  75.785  1.00  0.00     0.241 C
BRANCH  19  20
HETATM   20  C8  UNL     1      12.474  17.336  74.435  1.00  0.00     0.178 C
HETATM   21  N3  UNL     1      12.031  16.423  73.397  1.00  0.00    -0.096 NA
HETATM   22  N4  UNL     1      13.225  15.694  73.636  1.00  0.00    -0.035 NA
HETATM   23  N5  UNL     1      13.798  16.937  74.006  1.00  0.00    -0.096 NA
BRANCH  20  24
HETATM   24  C9  UNL     1      12.113  18.775  74.142  1.00  0.00     0.214 C
BRANCH  24  25
HETATM   25  O8  UNL     1      12.184  19.057  72.785  1.00  0.00    -0.397 OA
ATOM     26  H8  UNL     1      13.082  19.091  72.479  1.00  0.00     0.209 HD
ENDBRANCH  24  25
ENDBRANCH  20  24
ENDBRANCH  19  20
ENDBRANCH  18  19
ENDBRANCH  15  18
ENDBRANCH  13  15
ENDBRANCH  10  13
BRANCH   4  27
HETATM   27  O2  UNL     1       6.946  23.369  73.050  1.00  0.00    -0.346 OA
ATOM     28  H2  UNL     1       6.719  24.210  73.430  1.00  0.00     0.219 HD
ENDBRANCH   4  27
TORSDOF 9
ENDMDL