MODEL 4
REMARK VINA RESULT: -5.537200625      2.608      3.619
REMARK  9 active torsions:
REMARK  status: ('A' for Active; 'I' for Inactive)
REMARK    1  A    between atoms: C2_2  and  N1_3
REMARK    2  A    between atoms: C3_4  and  C4_5
REMARK    3  A    between atoms: N2_7  and  N3_8
REMARK    4  A    between atoms: N3_8  and  C6_10
REMARK    5  A    between atoms: C6_10  and  C7_11
REMARK    6  A    between atoms: C7_11  and  O1_12
REMARK    7  A    between atoms: C7_11  and  C8_14
REMARK       I    between atoms: C8_14  and  N4_16
REMARK    8  A    between atoms: C12_30  and  N9_31
REMARK    9  A    between atoms: N9_31  and  N10_33
ROOT
HETATM    1  C8  UNL     1      13.593  18.222  75.871  1.00  0.00     0.261 C
HETATM    2  O2  UNL     1      13.787  17.184  76.545  1.00  0.00    -0.270 OA
HETATM    3  N4  UNL     1      13.408  18.098  74.472  1.00  0.00    -0.262 N
ATOM      4  H4  UNL     1      13.250  18.942  73.920  1.00  0.00     0.181 HD
HETATM    5  C9  UNL     1      13.434  16.857  73.815  1.00  0.00     0.184 C
HETATM    6  N5  UNL     1      13.459  15.816  73.281  1.00  0.00    -0.172 NA
ENDROOT
BRANCH   1   7
HETATM    7  C7  UNL     1      13.553  19.564  76.498  1.00  0.00     0.230 C
BRANCH   7   8
HETATM    8  C6  UNL     1      14.895  19.920  77.102  1.00  0.00     0.181 C
BRANCH   8   9
HETATM    9  N3  UNL     1      15.274  19.046  78.160  1.00  0.00    -0.323 N
ATOM     10  H3  UNL     1      14.554  18.402  78.489  1.00  0.00     0.180 HD
BRANCH   9  11
HETATM   11  N2  UNL     1      16.504  18.964  78.799  1.00  0.00    -0.220 N
HETATM   12  C5  UNL     1      17.402  18.037  78.340  1.00  0.00     0.142 A
HETATM   13  C4  UNL     1      18.657  17.870  78.858  1.00  0.00     0.096 A
HETATM   14  C11 UNL     1      18.984  18.735  79.926  1.00  0.00     0.264 A
HETATM   15  N6  UNL     1      18.114  19.628  80.367  1.00  0.00    -0.273 N
HETATM   16  O4  UNL     1      20.133  18.629  80.450  1.00  0.00    -0.267 OA
HETATM   17  C10 UNL     1      16.886  19.742  79.810  1.00  0.00     0.347 A
ATOM     18  H6  UNL     1      18.373  20.242  81.140  1.00  0.00     0.173 HD
HETATM   19  O3  UNL     1      16.146  20.624  80.303  1.00  0.00    -0.245 OA
BRANCH  13  20
HETATM   20  C3  UNL     1      19.639  16.894  78.476  1.00  0.00     0.155 A
HETATM   21  N1  UNL     1      19.822  15.602  78.764  1.00  0.00    -0.164 N
HETATM   22  C12 UNL     1      20.964  15.146  78.168  1.00  0.00     0.714 A
HETATM   23  N8  UNL     1      21.490  16.191  77.501  1.00  0.00    -0.129 N
HETATM   24  N7  UNL     1      20.711  17.213  77.683  1.00  0.00    -0.270 N
ATOM     25  H8  UNL     1      22.349  16.181  76.949  1.00  0.00     0.205 HD
ATOM     26  H7  UNL     1      20.876  18.139  77.287  1.00  0.00     0.189 HD
BRANCH  21  27
HETATM   27  C2  UNL     1      19.015  14.720  79.574  1.00  0.00     0.145 C
HETATM   28  C1  UNL     1      19.368  14.853  81.016  1.00  0.00     0.027 C
ENDBRANCH  21  27
BRANCH  22  29
HETATM   29  N9  UNL     1      21.488  14.009  78.153  1.00  0.00    -0.137 N
ATOM     30  H9  UNL     1      21.268  13.488  77.305  1.00  0.00     0.205 HD
BRANCH  29  31
HETATM   31  N10 UNL     1      22.281  13.308  79.004  1.00  0.00    -0.331 N
ATOM     32 2H10 UNL     1      23.229  13.682  79.016  1.00  0.00     0.177 HD
ATOM     33 1H10 UNL     1      22.144  12.508  79.621  1.00  0.00     0.177 HD
ENDBRANCH  29  31
ENDBRANCH  22  29
ENDBRANCH  13  20
ENDBRANCH   9  11
ENDBRANCH   8   9
ENDBRANCH   7   8
BRANCH   7  34
HETATM   34  O1  UNL     1      12.554  19.582  77.505  1.00  0.00    -0.384 OA
ATOM     35  H1  UNL     1      11.904  20.244  77.300  1.00  0.00     0.210 HD
ENDBRANCH   7  34
ENDBRANCH   1   7
TORSDOF 9
ENDMDL