MODEL 4
REMARK VINA RESULT: -4.751469172      1.716      3.136
REMARK  10 active torsions:
REMARK  status: ('A' for Active; 'I' for Inactive)
REMARK    1  A    between atoms: N1_1  and  C1_5
REMARK    2  A    between atoms: C1_5  and  C2_6
REMARK    3  A    between atoms: C2_6  and  S1_7
REMARK    4  A    between atoms: S1_7  and  C3_8
REMARK    5  A    between atoms: N4_17  and  C7_19
REMARK    6  A    between atoms: C7_19  and  O2_20
REMARK    7  A    between atoms: C7_19  and  C8_22
REMARK    8  A    between atoms: N6_25  and  N7_26
REMARK    9  A    between atoms: C9_29  and  N8_30
REMARK   10  A    between atoms: N8_30  and  N9_32
ROOT
HETATM    1  C3  UNL     1      16.530  21.618  79.965  1.00  0.00     0.190 A
HETATM    2  N2  UNL     1      15.666  22.596  79.619  1.00  0.00    -0.296 N
ATOM      3  H2  UNL     1      15.806  23.530  80.005  1.00  0.00     0.171 HD
HETATM    4  C4  UNL     1      14.628  22.395  78.788  1.00  0.00     0.278 A
HETATM    5  O1  UNL     1      13.811  23.288  78.449  1.00  0.00    -0.266 OA
HETATM    6  C5  UNL     1      14.468  21.100  78.278  1.00  0.00     0.155 A
HETATM    7  N3  UNL     1      13.480  20.793  77.451  1.00  0.00    -0.182 N
ATOM      8  H3  UNL     1      12.820  21.522  77.180  1.00  0.00     0.184 HD
HETATM    9  C6  UNL     1      13.312  19.509  76.940  1.00  0.00     0.704 A
HETATM   10  N4  UNL     1      12.357  19.318  76.168  1.00  0.00    -0.189 N
ATOM     11  H4  UNL     1      11.807  20.163  76.011  1.00  0.00     0.181 HD
HETATM   12  N6  UNL     1      14.213  18.585  77.330  1.00  0.00    -0.072 N
HETATM   13  C9  UNL     1      15.239  18.837  78.169  1.00  0.00     0.195 A
HETATM   14  C10 UNL     1      15.371  20.142  78.659  1.00  0.00     0.159 A
HETATM   15  O4  UNL     1      16.365  20.393  79.473  1.00  0.00    -0.281 OA
ENDROOT
BRANCH  10  16
HETATM   16  C7  UNL     1      11.861  18.225  75.469  1.00  0.00     0.325 C
BRANCH  16  17
HETATM   17  O2  UNL     1      10.451  18.233  75.324  1.00  0.00    -0.368 OA
ATOM     18  H2  UNL     1      10.157  18.516  74.466  1.00  0.00     0.212 HD
ENDBRANCH  16  17
BRANCH  16  19
HETATM   19  C8  UNL     1      12.390  18.182  74.046  1.00  0.00     0.280 C
HETATM   20  N5  UNL     1      13.366  17.221  73.732  1.00  0.00    -0.058 NA
HETATM   21  O3  UNL     1      11.956  18.992  73.183  1.00  0.00    -0.272 OA
ENDBRANCH  16  19
ENDBRANCH  10  16
BRANCH  12  22
HETATM   22  N7  UNL     1      14.122  17.251  76.870  1.00  0.00    -0.322 N
ATOM     23  H72 UNL     1      15.009  16.753  76.799  1.00  0.00     0.178 HD
ATOM     24  H71 UNL     1      13.216  16.842  76.639  1.00  0.00     0.178 HD
ENDBRANCH  12  22
BRANCH  13  25
HETATM   25  N8  UNL     1      16.081  17.953  78.519  1.00  0.00    -0.288 N
ATOM     26  H8  UNL     1      15.746  17.161  79.068  1.00  0.00     0.188 HD
BRANCH  25  27
HETATM   27  N9  UNL     1      17.414  18.001  78.199  1.00  0.00    -0.343 N
ATOM     28  H92 UNL     1      18.074  17.703  78.918  1.00  0.00     0.176 HD
ATOM     29  H91 UNL     1      17.769  18.314  77.296  1.00  0.00     0.176 HD
ENDBRANCH  25  27
ENDBRANCH  13  25
BRANCH   1  30
HETATM   30  S1  UNL     1      17.878  21.986  81.076  1.00  0.00    -0.085 SA
BRANCH  30  31
HETATM   31  C2  UNL     1      18.780  20.472  81.514  1.00  0.00     0.110 C
BRANCH  31  32
HETATM   32  C1  UNL     1      19.827  20.135  80.474  1.00  0.00     0.240 C
BRANCH  32  33
HETATM   33  N1  UNL     1      21.127  20.585  80.928  1.00  0.00    -0.079 N
ATOM     34  H13 UNL     1      21.311  21.554  80.668  1.00  0.00     0.274 HD
ATOM     35  H12 UNL     1      21.163  20.696  81.942  1.00  0.00     0.274 HD
ATOM     36  H11 UNL     1      21.848  19.951  80.584  1.00  0.00     0.274 HD
ENDBRANCH  32  33
ENDBRANCH  31  32
ENDBRANCH  30  31
ENDBRANCH   1  30
TORSDOF 10
ENDMDL