MODEL 2
REMARK VINA RESULT: -7.550431198      1.596      3.249
REMARK  7 active torsions:
REMARK  status: ('A' for Active; 'I' for Inactive)
REMARK    1  A    between atoms: C1_2  and  C2_3
REMARK       I    between atoms: C1_2  and  N3_26
REMARK       I    between atoms: N1_7  and  C6_8
REMARK    2  A    between atoms: C6_8  and  C7_10
REMARK    3  A    between atoms: C7_10  and  C8_11
REMARK    4  A    between atoms: C7_10  and  N2_18
REMARK    5  A    between atoms: C8_11  and  C9_12
REMARK    6  A    between atoms: N2_18  and  S1_20
REMARK    7  A    between atoms: S1_20  and  C15_23
ROOT
HETATM    1  C7  UNL     1       7.558   6.360  19.667  1.00  0.00     0.185 C
ENDROOT
BRANCH   1   2
HETATM    2  C6  UNL     1       6.946   6.456  21.092  1.00  0.00     0.244 C
HETATM    3  N1  UNL     1       5.611   6.496  21.329  1.00  0.00    -0.337 N
HETATM    4  C2  UNL     1       4.876   6.410  22.630  1.00  0.00     0.179 C
HETATM    5  C5  UNL     1       4.520   6.834  20.449  1.00  0.00     0.127 C
HETATM    6  C3  UNL     1       4.430   7.847  22.619  1.00  0.00     0.037 C
HETATM    7  C4  UNL     1       3.956   8.067  21.234  1.00  0.00     0.022 C
HETATM    8  O2  UNL     1       7.781   6.510  22.020  1.00  0.00    -0.271 OA
BRANCH   4   9
HETATM    9  C1  UNL     1       3.864   5.399  22.454  1.00  0.00     0.242 C
HETATM   10  O1  UNL     1       2.643   5.817  22.466  1.00  0.00    -0.271 OA
HETATM   11  N3  UNL     1       4.022   4.004  22.267  1.00  0.00    -0.350 N
HETATM   12  C16 UNL     1       5.252   3.262  22.136  1.00  0.00     0.126 C
HETATM   13  C19 UNL     1       2.918   3.012  22.185  1.00  0.00     0.126 C
HETATM   14  C17 UNL     1       4.853   1.826  21.844  1.00  0.00     0.021 C
HETATM   15  C18 UNL     1       3.610   1.775  22.748  1.00  0.00     0.021 C
ENDBRANCH   4   9
ENDBRANCH   1   2
BRANCH   1  16
HETATM   16  C8  UNL     1       7.266   5.041  19.182  1.00  0.00     0.040 C
BRANCH  16  17
HETATM   17  C9  UNL     1       8.265   3.914  19.443  1.00  0.00    -0.012 C
HETATM   18  C10 UNL     1       8.957   3.770  18.068  1.00  0.00     0.005 C
HETATM   19  C11 UNL     1       9.829   2.589  17.912  1.00  0.00     0.000 C
HETATM   20  C12 UNL     1       9.170   1.315  18.342  1.00  0.00     0.000 C
HETATM   21  C13 UNL     1       7.696   1.628  18.522  1.00  0.00     0.000 C
HETATM   22  C14 UNL     1       7.568   2.609  19.676  1.00  0.00     0.005 C
ENDBRANCH  16  17
ENDBRANCH   1  16
BRANCH   1  23
HETATM   23  N2  UNL     1       7.168   7.493  19.001  1.00  0.00    -0.303 N
ATOM     24  H2  UNL     1       6.528   7.335  18.223  1.00  0.00     0.173 HD
BRANCH  23  25
HETATM   25  S1  UNL     1       7.564   9.050  19.254  1.00  0.00     0.258 S
HETATM   26  O3  UNL     1       9.056   9.120  19.687  1.00  0.00    -0.203 OA
HETATM   27  O4  UNL     1       7.589   9.907  17.976  1.00  0.00    -0.203 OA
BRANCH  25  28
HETATM   28  C15 UNL     1       6.727  10.027  20.453  1.00  0.00     0.320 C
HETATM   29 CL1  UNL     1       6.881  11.772  19.922  1.00  0.00    -0.089 Cl
HETATM   30 CL2  UNL     1       7.622   9.944  21.980  1.00  0.00    -0.089 Cl
ENDBRANCH  25  28
ENDBRANCH  23  25
ENDBRANCH   1  23
TORSDOF 7
ENDMDL