MODEL 3
REMARK VINA RESULT: -6.406017006      0.846      1.226
REMARK  9 active torsions:
REMARK  status: ('A' for Active; 'I' for Inactive)
REMARK    1  A    between atoms: N1_2  and  C2_4
REMARK    2  A    between atoms: C2_4  and  C6_12
REMARK       I    between atoms: N2_5  and  C3_7
REMARK       I    between atoms: C3_7  and  N3_9
REMARK    3  A    between atoms: C8_14  and  O2_15
REMARK    4  A    between atoms: O2_15  and  C9_16
REMARK    5  A    between atoms: C9_16  and  C10_17
REMARK    6  A    between atoms: C10_17  and  O3_18
REMARK    7  A    between atoms: O3_18  and  C11_19
REMARK    8  A    between atoms: C11_19  and  C12_20
REMARK    9  A    between atoms: C12_20  and  O4_21
ROOT
HETATM    1  C6  UNL     1       7.036   7.501  21.276  1.00  0.00     0.028 A
HETATM    2  C7  UNL     1       7.837   8.062  22.274  1.00  0.00     0.054 A
HETATM    3  C8  UNL     1       7.984   9.423  22.428  1.00  0.00     0.087 A
HETATM    4  C13 UNL     1       7.314  10.304  21.560  1.00  0.00     0.045 A
HETATM    5 BR1  UNL     1       7.497  12.192  21.746  1.00  0.00    -0.048 Br
HETATM    6  C14 UNL     1       6.530   9.757  20.581  1.00  0.00     0.042 A
HETATM    7  C15 UNL     1       6.391   8.383  20.439  1.00  0.00     0.026 A
HETATM    8 BR2  UNL     1       5.286   7.655  19.059  1.00  0.00    -0.050 Br
ENDROOT
BRANCH   1   9
HETATM    9  C2  UNL     1       6.872   6.070  21.100  1.00  0.00     0.116 C
HETATM   10  N2  UNL     1       7.760   5.357  20.537  1.00  0.00    -0.294 N
HETATM   11  C3  UNL     1       7.610   3.934  20.354  1.00  0.00     0.323 C
ATOM     12  H2  UNL     1       8.612   5.808  20.201  1.00  0.00     0.172 HD
HETATM   13  O1  UNL     1       7.205   3.262  21.332  1.00  0.00    -0.247 OA
HETATM   14  N3  UNL     1       7.895   3.290  19.145  1.00  0.00    -0.343 N
HETATM   15  C4  UNL     1       8.367   3.989  17.967  1.00  0.00     0.154 C
HETATM   16  C5  UNL     1       7.716   1.858  19.048  1.00  0.00     0.154 C
BRANCH   9  17
HETATM   17  N1  UNL     1       5.688   5.445  21.566  1.00  0.00    -0.380 N
HETATM   18  C1  UNL     1       4.799   6.054  22.535  1.00  0.00     0.147 C
ATOM     19  H1  UNL     1       5.450   4.522  21.202  1.00  0.00     0.160 HD
ENDBRANCH   9  17
ENDBRANCH   1   9
BRANCH   3  20
HETATM   20  O2  UNL     1       8.748  10.000  23.383  1.00  0.00    -0.348 OA
BRANCH  20  21
HETATM   21  C9  UNL     1       9.399   9.418  24.440  1.00  0.00     0.201 C
BRANCH  21  22
HETATM   22  C10 UNL     1      10.853   9.082  24.231  1.00  0.00     0.194 C
BRANCH  22  23
HETATM   23  O3  UNL     1      11.406   8.342  25.264  1.00  0.00    -0.387 OA
BRANCH  23  24
HETATM   24  C11 UNL     1      10.803   8.511  26.480  1.00  0.00     0.193 C
BRANCH  24  25
HETATM   25  C12 UNL     1      10.625   7.140  27.133  1.00  0.00     0.190 C
BRANCH  25  26
HETATM   26  O4  UNL     1       9.448   7.118  27.885  1.00  0.00    -0.399 OA
ATOM     27  H4  UNL     1       9.180   6.220  28.045  1.00  0.00     0.209 HD
ENDBRANCH  25  26
ENDBRANCH  24  25
ENDBRANCH  23  24
ENDBRANCH  22  23
ENDBRANCH  21  22
ENDBRANCH  20  21
ENDBRANCH   3  20
TORSDOF 9
ENDMDL