MODEL 4
REMARK VINA RESULT: -6.956597242      1.577      2.131
REMARK  7 active torsions:
REMARK  status: ('A' for Active; 'I' for Inactive)
REMARK    1  A    between atoms: C2_2  and  N1_3
REMARK    2  A    between atoms: N1_3  and  C3_4
REMARK    3  A    between atoms: N1_3  and  C12_19
REMARK    4  A    between atoms: C3_4  and  C4_5
REMARK    5  A    between atoms: C4_5  and  C5_6
REMARK    6  A    between atoms: C5_6  and  N2_7
REMARK       I    between atoms: N2_7  and  C6_9
REMARK       I    between atoms: C6_9  and  N3_10
REMARK       I    between atoms: C6_9  and  N5_13
REMARK    7  A    between atoms: C12_19  and  C13_20
ROOT
HETATM    1  N2  UNL     1       8.348  10.141  22.486  1.00  0.00    -0.350 N
ATOM      2  H2  UNL     1       9.237   9.817  22.106  1.00  0.00     0.163 HD
HETATM    3  C6  UNL     1       7.909   9.601  23.757  1.00  0.00     0.265 C
HETATM    4  N3  UNL     1       6.794   9.651  24.176  1.00  0.00    -0.294 NA
HETATM    5  C7  UNL     1       5.651   9.619  24.771  1.00  0.00     0.271 C
HETATM    6  N4  UNL     1       4.640   9.580  25.319  1.00  0.00    -0.156 NA
HETATM    7  N5  UNL     1       8.962   8.948  24.545  1.00  0.00    -0.337 N
HETATM    8  C8  UNL     1      10.284   9.507  24.551  1.00  0.00     0.153 C
HETATM    9  C9  UNL     1      10.828   9.481  25.953  1.00  0.00     0.187 C
HETATM   10  O1  UNL     1      10.646   8.206  26.484  1.00  0.00    -0.388 OA
HETATM   11  C10 UNL     1       9.274   7.949  26.685  1.00  0.00     0.187 C
HETATM   12  C11 UNL     1       8.699   7.754  25.303  1.00  0.00     0.153 C
ENDROOT
BRANCH   1  13
HETATM   13  C5  UNL     1       7.597  11.109  21.730  1.00  0.00     0.125 C
BRANCH  13  14
HETATM   14  C4  UNL     1       7.613  10.693  20.278  1.00  0.00     0.050 C
BRANCH  14  15
HETATM   15  C3  UNL     1       8.258   9.389  20.014  1.00  0.00     0.274 C
BRANCH  15  16
HETATM   16  N1  UNL     1       7.394   8.443  19.281  1.00  0.00     0.093 N
BRANCH  16  17
HETATM   17  C2  UNL     1       6.188   9.114  18.862  1.00  0.00     0.268 C
HETATM   18  C1  UNL     1       5.434   8.353  17.804  1.00  0.00     0.037 C
ENDBRANCH  16  17
BRANCH  16  19
HETATM   19  C12 UNL     1       7.045   7.506  20.372  1.00  0.00     0.329 C
BRANCH  19  20
HETATM   20  C13 UNL     1       7.303   6.111  20.158  1.00  0.00     0.039 A
HETATM   21  C14 UNL     1       7.978   5.475  19.162  1.00  0.00     0.048 A
HETATM   22  C15 UNL     1       7.980   4.091  19.377  1.00  0.00     0.046 A
HETATM   23 BR1  UNL     1       8.756   2.721  18.306  1.00  0.00    -0.048 Br
HETATM   24  C16 UNL     1       7.271   3.937  20.554  1.00  0.00     0.097 A
HETATM   25 BR2  UNL     1       6.937   2.235  21.362  1.00  0.00    -0.030 Br
HETATM   26  N6  UNL     1       6.872   5.134  21.015  1.00  0.00    -0.351 N
ATOM     27  H6  UNL     1       6.334   5.290  21.867  1.00  0.00     0.166 HD
ENDBRANCH  19  20
ENDBRANCH  16  19
ENDBRANCH  15  16
ENDBRANCH  14  15
ENDBRANCH  13  14
ENDBRANCH   1  13
TORSDOF 7
ENDMDL