MODEL 1
REMARK VINA RESULT: -7.102443954      0.000      0.000
REMARK  8 active torsions:
REMARK  status: ('A' for Active; 'I' for Inactive)
REMARK    1  A    between atoms: O1_2  and  N1_3
REMARK    2  A    between atoms: C2_5  and  C3_6
REMARK    3  A    between atoms: C2_5  and  C8_15
REMARK    4  A    between atoms: C3_6  and  C4_7
REMARK       I    between atoms: C8_15  and  N3_17
REMARK    5  A    between atoms: N3_17  and  C9_19
REMARK    6  A    between atoms: C9_19  and  C10_20
REMARK    7  A    between atoms: C10_20  and  C11_21
REMARK    8  A    between atoms: C11_21  and  N4_22
ROOT
HETATM    1  N1  UNL     1       7.556   8.254  19.173  1.00  0.00    -0.266 N
ATOM      2  H1  UNL     1       7.084   7.903  18.340  1.00  0.00     0.194 HD
HETATM    3  C2  UNL     1       7.322   7.525  20.160  1.00  0.00     0.105 C
ENDROOT
BRANCH   3   4
HETATM    4  C3  UNL     1       6.430   6.326  19.924  1.00  0.00     0.122 C
BRANCH   4   5
HETATM    5  C4  UNL     1       6.982   5.390  18.939  1.00  0.00     0.017 A
HETATM    6  C5  UNL     1       8.133   4.647  19.183  1.00  0.00     0.047 A
HETATM    7  C6  UNL     1       8.382   3.851  18.080  1.00  0.00     0.046 A
HETATM    8 BR1  UNL     1       9.811   2.611  17.806  1.00  0.00    -0.048 Br
HETATM    9  C7  UNL     1       7.382   4.128  17.194  1.00  0.00     0.097 A
HETATM   10 BR2  UNL     1       7.161   3.355  15.482  1.00  0.00    -0.030 Br
HETATM   11  N2  UNL     1       6.535   5.062  17.720  1.00  0.00    -0.352 N
ATOM     12  H2  UNL     1       5.706   5.443  17.264  1.00  0.00     0.166 HD
ENDBRANCH   4   5
ENDBRANCH   3   4
BRANCH   3  13
HETATM   13  C8  UNL     1       7.813   7.749  21.481  1.00  0.00     0.266 C
HETATM   14  O2  UNL     1       7.915   6.789  22.285  1.00  0.00    -0.266 OA
HETATM   15  N3  UNL     1       8.201   9.017  21.950  1.00  0.00    -0.356 N
ATOM     16  H3  UNL     1       8.113   9.808  21.311  1.00  0.00     0.162 HD
BRANCH  15  17
HETATM   17  C9  UNL     1       8.724   9.281  23.292  1.00  0.00     0.124 C
BRANCH  17  18
HETATM   18  C10 UNL     1      10.168   8.947  23.411  1.00  0.00     0.039 C
BRANCH  18  19
HETATM   19  C11 UNL     1      10.825   9.192  24.713  1.00  0.00     0.127 C
BRANCH  19  20
HETATM   20  N4  UNL     1      10.586   8.307  25.800  1.00  0.00    -0.353 N
HETATM   21  C12 UNL     1       9.371   7.937  26.454  1.00  0.00     0.169 A
HETATM   22  C13 UNL     1       9.833   6.988  27.539  1.00  0.00     0.083 A
HETATM   23  N5  UNL     1      11.085   6.843  27.498  1.00  0.00    -0.345 N
HETATM   24  C14 UNL     1      11.634   7.605  26.470  1.00  0.00     0.173 A
ATOM     25  H5  UNL     1      11.621   6.249  28.131  1.00  0.00     0.167 HD
HETATM   26  S1  UNL     1      13.238   7.687  26.080  1.00  0.00    -0.041 SA
ENDBRANCH  19  20
ENDBRANCH  18  19
ENDBRANCH  17  18
ENDBRANCH  15  17
ENDBRANCH   3  13
BRANCH   1  27
HETATM   27  O1  UNL     1       8.238   9.349  18.901  1.00  0.00    -0.285 OA
HETATM   28  C1  UNL     1       7.542  10.602  18.818  1.00  0.00     0.237 C
ENDBRANCH   1  27
TORSDOF 8
ENDMDL