MODEL 4
REMARK VINA RESULT: -7.666284401      3.162      5.285
REMARK  10 active torsions:
REMARK  status: ('A' for Active; 'I' for Inactive)
REMARK    1  A    between atoms: C3_5  and  C4_6
REMARK    2  A    between atoms: C3_5  and  N2_10
REMARK    3  A    between atoms: C4_6  and  C5_7
REMARK    4  A    between atoms: N2_10  and  C8_12
REMARK    5  A    between atoms: C8_12  and  C9_13
REMARK    6  A    between atoms: C8_12  and  C22_36
REMARK    7  A    between atoms: C9_13  and  O1_14
REMARK    8  A    between atoms: C9_13  and  N3_16
REMARK    9  A    between atoms: C15_25  and  C16_26
REMARK       I    between atoms: C16_26  and  N5_28
REMARK   10  A    between atoms: N5_28  and  C17_30
ROOT
HETATM    1  C1  UNL     1       6.051   5.330  14.755  1.00  0.00     0.037 C
HETATM    2  C2  UNL     1       6.350   5.206  15.912  1.00  0.00     0.000 C
HETATM    3  N1  UNL     1       6.650   5.071  17.227  1.00  0.00    -0.306 N
ATOM      4  H1  UNL     1       6.063   5.666  17.811  1.00  0.00     0.177 HD
HETATM    5  C3  UNL     1       7.459   4.406  17.911  1.00  0.00     0.085 C
ENDROOT
BRANCH   5   6
HETATM    6  C4  UNL     1       8.412   3.480  17.296  1.00  0.00     0.081 C
BRANCH   6   7
HETATM    7  C5  UNL     1       9.289   2.711  18.242  1.00  0.00    -0.007 A
HETATM    8  C6  UNL     1       9.054   1.272  18.511  1.00  0.00     0.005 A
HETATM    9  C7  UNL     1      10.176   1.671  17.614  1.00  0.00     0.005 A
ENDBRANCH   6   7
ENDBRANCH   5   6
BRANCH   5  10
HETATM   10  N2  UNL     1       7.415   4.586  19.300  1.00  0.00    -0.367 N
ATOM     11  H2  UNL     1       8.302   4.337  19.738  1.00  0.00     0.161 HD
BRANCH  10  12
HETATM   12  C8  UNL     1       6.471   5.020  20.258  1.00  0.00     0.161 C
BRANCH  12  13
HETATM   13  C9  UNL     1       6.985   6.198  20.991  1.00  0.00     0.143 C
BRANCH  13  14
HETATM   14  O1  UNL     1       7.925   5.956  21.885  1.00  0.00    -0.348 OA
ATOM     15  H1  UNL     1       8.251   6.712  22.360  1.00  0.00     0.219 HD
ENDBRANCH  13  14
BRANCH  13  16
HETATM   16  N3  UNL     1       6.655   7.550  20.911  1.00  0.00    -0.310 N
HETATM   17  C10 UNL     1       7.241   8.242  19.683  1.00  0.00     0.204 C
HETATM   18  C11 UNL     1       6.236   8.195  18.642  1.00  0.00     0.085 C
HETATM   19  C12 UNL     1       7.525   9.679  20.028  1.00  0.00     0.120 C
HETATM   20  N4  UNL     1       5.428   8.174  17.800  1.00  0.00    -0.195 NA
HETATM   21  C13 UNL     1       7.872   9.893  21.470  1.00  0.00     0.251 C
HETATM   22  F1  UNL     1       9.036   9.259  21.761  1.00  0.00    -0.206 F
HETATM   23  F2  UNL     1       7.964  11.275  21.674  1.00  0.00    -0.206 F
HETATM   24  C14 UNL     1       6.804   9.421  22.438  1.00  0.00     0.142 C
HETATM   25  C15 UNL     1       5.899   8.446  21.687  1.00  0.00     0.088 C
BRANCH  25  26
HETATM   26  C16 UNL     1       4.725   8.061  22.428  1.00  0.00     0.265 C
HETATM   27  O2  UNL     1       3.743   7.556  21.800  1.00  0.00    -0.266 OA
HETATM   28  N5  UNL     1       4.608   8.207  23.823  1.00  0.00    -0.334 N
ATOM     29  H5  UNL     1       5.385   8.612  24.345  1.00  0.00     0.164 HD
BRANCH  28  30
HETATM   30  C17 UNL     1       3.413   7.800  24.542  1.00  0.00     0.122 C
HETATM   31  C18 UNL     1       3.075   6.396  24.421  1.00  0.00     0.091 C
HETATM   32  N6  UNL     1       2.806   5.277  24.313  1.00  0.00    -0.195 NA
HETATM   33  C19 UNL     1       3.425   8.213  26.010  1.00  0.00     0.047 C
HETATM   34  C20 UNL     1       2.687   9.459  25.630  1.00  0.00     0.007 C
HETATM   35  C21 UNL     1       2.276   8.764  24.328  1.00  0.00     0.047 C
ENDBRANCH  28  30
ENDBRANCH  25  26
ENDBRANCH  13  16
ENDBRANCH  12  13
BRANCH  12  36
HETATM   36  C22 UNL     1       6.162   3.975  21.317  1.00  0.00     0.008 C
HETATM   37  C23 UNL     1       6.801   2.645  21.103  1.00  0.00     0.012 C
HETATM   38  C24 UNL     1       4.637   3.839  21.483  1.00  0.00     0.012 C
ENDBRANCH  12  36
ENDBRANCH  10  12
ENDBRANCH   5  10
TORSDOF 10
ENDMDL