MODEL 5
REMARK VINA RESULT: -7.586305544      1.651      2.173
REMARK  8 active torsions:
REMARK  status: ('A' for Active; 'I' for Inactive)
REMARK    1  A    between atoms: C2_2  and  C4_4
REMARK    2  A    between atoms: C4_4  and  C5_5
REMARK    3  A    between atoms: C8_8  and  C9_9
REMARK       I    between atoms: C9_9  and  N1_11
REMARK    4  A    between atoms: N1_11  and  C10_13
REMARK    5  A    between atoms: C12_15  and  O2_16
REMARK    6  A    between atoms: C12_15  and  N2_18
REMARK    7  A    between atoms: C15_22  and  N3_23
REMARK    8  A    between atoms: C20_29  and  C21_30
ROOT
HETATM    1  C10 UNL     1       3.454   5.821  23.415  1.00  0.00     0.059 C
HETATM    2  C11 UNL     1       2.052   5.318  22.945  1.00  0.00     0.073 C
HETATM    3  C12 UNL     1       3.374   7.108  24.010  1.00  0.00     0.165 C
ENDROOT
BRANCH   1   4
HETATM    4  N1  UNL     1       4.536   5.043  23.051  1.00  0.00    -0.325 N
HETATM    5  C9  UNL     1       5.042   5.119  21.697  1.00  0.00     0.253 C
HETATM    6  O1  UNL     1       4.485   5.968  20.933  1.00  0.00    -0.271 OA
ATOM      7  H1  UNL     1       4.975   4.419  23.730  1.00  0.00     0.168 HD
BRANCH   5   8
HETATM    8  C8  UNL     1       6.094   4.314  21.123  1.00  0.00     0.277 C
HETATM    9  C7  UNL     1       7.299   4.936  20.522  1.00  0.00     0.043 C
HETATM   10  C6  UNL     1       7.936   4.006  19.481  1.00  0.00     0.009 C
HETATM   11  C5  UNL     1       7.634   2.562  19.666  1.00  0.00     0.011 C
HETATM   12  C24 UNL     1       6.141   2.354  19.872  1.00  0.00     0.238 C
HETATM   13  N4  UNL     1       5.445   3.625  19.932  1.00  0.00    -0.062 N
ATOM     14  H42 UNL     1       4.429   3.552  19.984  1.00  0.00     0.278 HD
ATOM     15  H41 UNL     1       5.464   4.163  19.066  1.00  0.00     0.278 HD
BRANCH  11  16
HETATM   16  C4  UNL     1       8.043   1.759  18.472  1.00  0.00     0.010 C
BRANCH  16  17
HETATM   17  C2  UNL     1       9.470   1.871  18.054  1.00  0.00    -0.022 C
HETATM   18  C1  UNL     1       9.435   2.338  16.589  1.00  0.00     0.009 C
HETATM   19  C3  UNL     1      10.212   0.574  18.065  1.00  0.00     0.009 C
ENDBRANCH  16  17
ENDBRANCH  11  16
ENDBRANCH   5   8
ENDBRANCH   1   4
BRANCH   3  20
HETATM   20  O2  UNL     1       2.811   7.103  25.208  1.00  0.00    -0.344 OA
ATOM     21  H2  UNL     1       2.629   7.972  25.546  1.00  0.00     0.219 HD
ENDBRANCH   3  20
BRANCH   3  22
HETATM   22  N2  UNL     1       3.728   8.384  23.634  1.00  0.00    -0.328 N
HETATM   23  C13 UNL     1       2.842   9.517  23.463  1.00  0.00     0.170 C
HETATM   24  C14 UNL     1       3.372   9.871  22.022  1.00  0.00     0.227 C
HETATM   25  F1  UNL     1       3.199  11.209  21.889  1.00  0.00    -0.245 F
HETATM   26  C15 UNL     1       4.877   9.455  22.051  1.00  0.00     0.304 C
HETATM   27  C20 UNL     1       5.002   9.111  23.459  1.00  0.00     0.031 C
BRANCH  26  28
HETATM   28  N3  UNL     1       5.563  10.445  21.398  1.00  0.00     0.103 N
HETATM   29  C16 UNL     1       6.542  11.269  21.929  1.00  0.00     0.275 C
HETATM   30  C17 UNL     1       7.869  10.505  21.756  1.00  0.00     0.052 C
HETATM   31  C18 UNL     1       7.682  10.046  20.334  1.00  0.00     0.112 C
HETATM   32 CL1  UNL     1       8.609   8.586  19.949  1.00  0.00    -0.123 Cl
HETATM   33  C19 UNL     1       6.197   9.880  20.177  1.00  0.00     0.293 C
ENDBRANCH  26  28
BRANCH  27  34
HETATM   34  C21 UNL     1       6.136   8.613  24.179  1.00  0.00     0.026 C
HETATM   35  C22 UNL     1       6.963   7.727  23.206  1.00  0.00     0.016 C
HETATM   36  C23 UNL     1       7.062   9.348  25.011  1.00  0.00     0.016 C
ENDBRANCH  27  34
ENDBRANCH   3  22
TORSDOF 8
ENDMDL