MODEL 2
REMARK VINA RESULT: -7.290325189      0.746      1.188
REMARK  8 active torsions:
REMARK  status: ('A' for Active; 'I' for Inactive)
REMARK    1  A    between atoms: N1_6  and  C6_7
REMARK    2  A    between atoms: C6_7  and  C7_8
REMARK    3  A    between atoms: C7_8  and  N2_9
REMARK       I    between atoms: N2_9  and  C8_11
REMARK    4  A    between atoms: C8_11  and  C9_13
REMARK       I    between atoms: N3_17  and  C13_18
REMARK    5  A    between atoms: C13_18  and  C14_20
REMARK    6  A    between atoms: C17_23  and  C18_24
REMARK       I    between atoms: C18_24  and  N4_26
REMARK    7  A    between atoms: N4_26  and  C19_28
REMARK    8  A    between atoms: C19_28  and  C22_31
ROOT
HETATM    1  C9  UNL     1       4.564   8.026  24.946  1.00  0.00     0.179 C
HETATM    2  C10 UNL     1       3.718   9.220  25.328  1.00  0.00     0.037 C
HETATM    3  C11 UNL     1       3.142   9.750  24.042  1.00  0.00     0.022 C
HETATM    4  C12 UNL     1       3.607   8.790  22.978  1.00  0.00     0.127 C
HETATM    5  N3  UNL     1       3.953   7.604  23.711  1.00  0.00    -0.338 N
HETATM    6  C13 UNL     1       3.726   6.272  23.299  1.00  0.00     0.224 C
HETATM    7  O2  UNL     1       4.061   5.285  24.054  1.00  0.00    -0.273 OA
ENDROOT
BRANCH   6   8
HETATM    8  C14 UNL     1       3.101   5.928  21.995  1.00  0.00     0.078 C
HETATM    9  C15 UNL     1       4.119   6.127  20.894  1.00  0.00     0.015 C
HETATM   10  C16 UNL     1       5.319   5.258  21.249  1.00  0.00     0.015 C
HETATM   11  C17 UNL     1       4.889   3.832  21.307  1.00  0.00     0.078 C
HETATM   12  C23 UNL     1       3.404   3.630  21.050  1.00  0.00     0.015 C
HETATM   13  C24 UNL     1       2.601   4.508  21.989  1.00  0.00     0.015 C
BRANCH  11  14
HETATM   14  C18 UNL     1       5.602   3.082  20.225  1.00  0.00     0.222 C
HETATM   15  O3  UNL     1       5.200   1.958  19.836  1.00  0.00    -0.273 OA
HETATM   16  N4  UNL     1       6.751   3.655  19.632  1.00  0.00    -0.347 N
ATOM     17  H4  UNL     1       7.060   4.570  19.958  1.00  0.00     0.163 HD
BRANCH  16  18
HETATM   18  C19 UNL     1       7.502   3.009  18.592  1.00  0.00     0.084 C
HETATM   19  C20 UNL     1       8.072   1.705  19.087  1.00  0.00     0.044 C
HETATM   20  C21 UNL     1       6.518   2.709  17.455  1.00  0.00     0.044 C
BRANCH  18  21
HETATM   21  C22 UNL     1       8.582   3.907  18.098  1.00  0.00     0.380 C
HETATM   22  F1  UNL     1       8.659   5.071  18.871  1.00  0.00    -0.212 F
HETATM   23  F2  UNL     1       9.801   3.260  18.163  1.00  0.00    -0.212 F
ENDBRANCH  18  21
ENDBRANCH  16  18
ENDBRANCH  11  14
ENDBRANCH   6   8
BRANCH   1  24
HETATM   24  C8  UNL     1       5.980   8.431  24.762  1.00  0.00     0.240 C
HETATM   25  N2  UNL     1       6.923   7.641  24.068  1.00  0.00    -0.358 N
ATOM     26  H2  UNL     1       6.597   6.756  23.679  1.00  0.00     0.162 HD
HETATM   27  O1  UNL     1       6.367   9.524  25.243  1.00  0.00    -0.271 OA
BRANCH  25  28
HETATM   28  C7  UNL     1       8.312   7.981  23.861  1.00  0.00     0.152 C
BRANCH  28  29
HETATM   29  C6  UNL     1       8.608   8.505  22.502  1.00  0.00     0.292 C
BRANCH  29  30
HETATM   30  N1  UNL     1       7.529   8.403  21.550  1.00  0.00     0.094 N
HETATM   31  C2  UNL     1       8.036   8.026  20.232  1.00  0.00     0.219 C
HETATM   32  C1  UNL     1       6.886   7.794  19.299  1.00  0.00     0.043 C
HETATM   33  C3  UNL     1       8.809   9.241  19.807  1.00  0.00     0.037 C
HETATM   34  C4  UNL     1       8.043  10.379  20.428  1.00  0.00     0.032 C
HETATM   35  C5  UNL     1       6.995   9.697  21.279  1.00  0.00     0.273 C
ENDBRANCH  29  30
ENDBRANCH  28  29
ENDBRANCH  25  28
ENDBRANCH   1  24
TORSDOF 8
ENDMDL