MODEL 1
REMARK VINA RESULT: -7.879368279      0.000      0.000
REMARK  7 active torsions:
REMARK  status: ('A' for Active; 'I' for Inactive)
REMARK    1  A    between atoms: C2_2  and  N1_3
REMARK    2  A    between atoms: C2_2  and  C7_12
REMARK       I    between atoms: N1_3  and  C3_5
REMARK    3  A    between atoms: C3_5  and  C4_7
REMARK    4  A    between atoms: C4_7  and  C5_8
REMARK       I    between atoms: C7_12  and  N2_14
REMARK    5  A    between atoms: N2_14  and  C8_16
REMARK       I    between atoms: N3_22  and  C14_23
REMARK    6  A    between atoms: C14_23  and  C15_25
REMARK    7  A    between atoms: N4_31  and  C21_32
ROOT
HETATM    1  C8  UNL     1       8.052   6.592  21.007  1.00  0.00     0.086 C
HETATM    2  C9  UNL     1       7.213   5.368  20.732  1.00  0.00     0.036 C
HETATM    3  C10 UNL     1       7.295   5.649  19.274  1.00  0.00    -0.020 C
HETATM    4  C11 UNL     1       8.247   4.755  18.504  1.00  0.00     0.013 C
HETATM    5  C12 UNL     1       7.610   3.387  18.373  1.00  0.00     0.021 C
HETATM    6  C13 UNL     1       6.270   3.513  17.679  1.00  0.00     0.126 C
HETATM    7  N3  UNL     1       5.940   4.895  17.413  1.00  0.00    -0.351 N
HETATM    8  C14 UNL     1       5.670   5.460  16.150  1.00  0.00     0.226 C
HETATM    9  O3  UNL     1       5.395   6.687  16.109  1.00  0.00    -0.273 OA
HETATM   10  C24 UNL     1       5.916   5.707  18.645  1.00  0.00     0.135 C
HETATM   11  C25 UNL     1       7.925   6.968  19.551  1.00  0.00     0.036 C
ENDROOT
BRANCH   1  12
HETATM   12  N2  UNL     1       7.482   7.529  21.931  1.00  0.00    -0.355 N
HETATM   13  C7  UNL     1       8.160   8.737  22.219  1.00  0.00     0.240 C
HETATM   14  O2  UNL     1       9.255   8.963  21.652  1.00  0.00    -0.271 OA
ATOM     15  H2  UNL     1       6.589   7.325  22.380  1.00  0.00     0.162 HD
BRANCH  13  16
HETATM   16  C2  UNL     1       7.563   9.716  23.188  1.00  0.00     0.172 C
HETATM   17  C1  UNL     1       7.422  11.069  22.565  1.00  0.00     0.042 C
BRANCH  16  18
HETATM   18  N1  UNL     1       8.310   9.731  24.407  1.00  0.00    -0.348 N
HETATM   19  C3  UNL     1       8.542   8.549  25.184  1.00  0.00     0.224 C
HETATM   20  O1  UNL     1       8.068   7.456  24.776  1.00  0.00    -0.273 OA
ATOM     21  H1  UNL     1       8.693  10.618  24.737  1.00  0.00     0.163 HD
BRANCH  19  22
HETATM   22  C4  UNL     1       9.313   8.579  26.439  1.00  0.00     0.181 C
BRANCH  22  23
HETATM   23  C5  UNL     1      10.794   8.546  26.174  1.00  0.00     0.248 C
HETATM   24  C6  UNL     1      11.506   7.560  27.058  1.00  0.00     0.090 C
HETATM   25  F1  UNL     1      11.043   8.206  24.860  1.00  0.00    -0.206 F
HETATM   26  F2  UNL     1      11.301   9.816  26.385  1.00  0.00    -0.206 F
ENDBRANCH  22  23
ENDBRANCH  19  22
ENDBRANCH  16  18
ENDBRANCH  13  16
ENDBRANCH   1  12
BRANCH   8  27
HETATM   27  C15 UNL     1       5.684   4.729  14.874  1.00  0.00     0.113 C
HETATM   28  C16 UNL     1       5.671   5.559  13.635  1.00  0.00     0.052 C
HETATM   29  C17 UNL     1       4.701   4.833  12.715  1.00  0.00     0.225 C
HETATM   30  C18 UNL     1       3.322   5.368  13.085  1.00  0.00     0.038 C
HETATM   31  N4  UNL     1       4.581   3.506  13.287  1.00  0.00     0.102 N
HETATM   32  C19 UNL     1       3.198   4.803  14.509  1.00  0.00     0.039 C
HETATM   33  C20 UNL     1       4.433   3.905  14.672  1.00  0.00     0.237 C
BRANCH  31  34
HETATM   34  C21 UNL     1       5.675   2.674  12.973  1.00  0.00     0.216 C
HETATM   35  C22 UNL     1       5.676   2.535  11.439  1.00  0.00     0.042 C
HETATM   36  C23 UNL     1       5.591   1.286  13.519  1.00  0.00     0.042 C
ENDBRANCH  31  34
ENDBRANCH   8  27
TORSDOF 7
ENDMDL