MODEL 4
REMARK VINA RESULT: -8.458050642      2.051      2.895
REMARK  8 active torsions:
REMARK  status: ('A' for Active; 'I' for Inactive)
REMARK    1  A    between atoms: C2_2  and  C3_3
REMARK    2  A    between atoms: C2_2  and  N1_9
REMARK    3  A    between atoms: C4_4  and  C5_5
REMARK       I    between atoms: N1_9  and  C7_11
REMARK    4  A    between atoms: C7_11  and  C8_13
REMARK    5  A    between atoms: N2_18  and  C13_19
REMARK    6  A    between atoms: C13_19  and  O2_20
REMARK    7  A    between atoms: C14_22  and  N3_23
REMARK    8  A    between atoms: C14_22  and  C20_33
REMARK       I    between atoms: N3_23  and  C15_25
REMARK       I    between atoms: C15_25  and  N4_27
ROOT
HETATM    1  C8  UNL     1       5.366   6.741  20.196  1.00  0.00     0.179 C
HETATM    2  C9  UNL     1       4.704   7.551  19.137  1.00  0.00     0.042 C
HETATM    3  C10 UNL     1       5.912   8.040  18.346  1.00  0.00     0.013 A
HETATM    4  C11 UNL     1       6.391   9.368  18.710  1.00  0.00     0.032 A
HETATM    5  C12 UNL     1       6.994   8.161  19.373  1.00  0.00     0.092 A
HETATM    6  N2  UNL     1       6.524   7.600  20.591  1.00  0.00    -0.342 N
ENDROOT
BRANCH   6   7
HETATM    7  C13 UNL     1       6.982   7.760  21.901  1.00  0.00     0.163 C
HETATM    8  C14 UNL     1       6.763   8.615  23.020  1.00  0.00     0.072 C
BRANCH   7   9
HETATM    9  O2  UNL     1       7.914   6.805  22.142  1.00  0.00    -0.345 OA
ATOM     10  H2  UNL     1       8.492   7.122  22.826  1.00  0.00     0.219 HD
ENDBRANCH   7   9
BRANCH   8  11
HETATM   11  N3  UNL     1       7.573   8.203  24.198  1.00  0.00    -0.308 N
HETATM   12  C15 UNL     1       8.790   8.860  24.501  1.00  0.00     0.322 C
HETATM   13  O3  UNL     1       9.154   9.808  23.722  1.00  0.00    -0.247 OA
HETATM   14  N4  UNL     1       9.607   8.533  25.594  1.00  0.00    -0.330 N
HETATM   15  C16 UNL     1       9.263   7.473  26.520  1.00  0.00     0.153 C
HETATM   16  C19 UNL     1      10.832   9.263  25.822  1.00  0.00     0.153 C
HETATM   17  C17 UNL     1      10.452   6.854  27.185  1.00  0.00     0.187 C
HETATM   18  O4  UNL     1      11.606   7.106  26.442  1.00  0.00    -0.388 OA
HETATM   19  C18 UNL     1      11.873   8.470  26.558  1.00  0.00     0.187 C
ATOM     20  H3  UNL     1       7.249   7.440  24.792  1.00  0.00     0.170 HD
ENDBRANCH   8  11
BRANCH   8  21
HETATM   21  C20 UNL     1       5.490   9.099  23.533  1.00  0.00    -0.004 C
HETATM   22  C21 UNL     1       5.419   9.587  24.945  1.00  0.00     0.021 C
HETATM   23  C22 UNL     1       4.807  10.100  22.585  1.00  0.00     0.021 C
HETATM   24  C23 UNL     1       4.512   7.900  23.488  1.00  0.00     0.021 C
ENDBRANCH   8  21
ENDBRANCH   6   7
BRANCH   1  25
HETATM   25  C7  UNL     1       5.843   5.448  19.693  1.00  0.00     0.241 C
HETATM   26  N1  UNL     1       7.079   4.870  19.971  1.00  0.00    -0.352 N
ATOM     27  H1  UNL     1       7.731   5.369  20.577  1.00  0.00     0.163 HD
HETATM   28  O1  UNL     1       5.045   4.803  18.934  1.00  0.00    -0.271 OA
BRANCH  26  29
HETATM   29  C2  UNL     1       7.476   3.563  19.422  1.00  0.00     0.103 C
HETATM   30  C1  UNL     1       8.749   3.678  18.649  1.00  0.00     0.036 C
BRANCH  29  31
HETATM   31  C3  UNL     1       7.484   2.537  20.461  1.00  0.00    -0.001 C
HETATM   32  C4  UNL     1       6.622   2.404  21.602  1.00  0.00     0.048 C
BRANCH  32  33
HETATM   33  C5  UNL     1       5.177   2.271  21.672  1.00  0.00     0.258 C
HETATM   34  C6  UNL     1       4.340   3.319  22.316  1.00  0.00     0.095 C
HETATM   35  F1  UNL     1       4.830   1.058  22.341  1.00  0.00    -0.202 F
HETATM   36  F2  UNL     1       4.608   2.042  20.393  1.00  0.00    -0.202 F
ENDBRANCH  32  33
ENDBRANCH  29  31
ENDBRANCH  26  29
ENDBRANCH   1  25
TORSDOF 8
ENDMDL