MODEL 4
REMARK VINA RESULT: -8.692636449      3.286      5.623
REMARK  8 active torsions:
REMARK  status: ('A' for Active; 'I' for Inactive)
REMARK    1  A    between atoms: C4_6  and  N2_7
REMARK       I    between atoms: N2_7  and  C5_9
REMARK    2  A    between atoms: C5_9  and  C6_11
REMARK    3  A    between atoms: C6_11  and  C7_12
REMARK    4  A    between atoms: C7_12  and  C8_13
REMARK    5  A    between atoms: C7_12  and  C15_20
REMARK    6  A    between atoms: C8_13  and  C9_14
REMARK       I    between atoms: C15_20  and  N3_22
REMARK       I    between atoms: N4_25  and  C18_26
REMARK       I    between atoms: C18_26  and  N5_28
REMARK    7  A    between atoms: N5_28  and  C19_30
REMARK    8  A    between atoms: C19_30  and  C20_31
ROOT
HETATM    1  C7  UNL     1       5.747   4.736  20.331  1.00  0.00     0.019 C
ENDROOT
BRANCH   1   2
HETATM    2  C6  UNL     1       4.592   4.643  19.392  1.00  0.00     0.147 C
BRANCH   2   3
HETATM    3  C5  UNL     1       3.714   3.492  19.624  1.00  0.00     0.227 C
HETATM    4  N2  UNL     1       2.862   3.387  20.742  1.00  0.00    -0.312 N
ATOM      5  H2  UNL     1       2.159   4.116  20.858  1.00  0.00     0.170 HD
HETATM    6  O1  UNL     1       3.678   2.509  18.809  1.00  0.00    -0.273 OA
BRANCH   4   7
HETATM    7  C4  UNL     1       2.889   2.460  21.624  1.00  0.00     0.123 A
HETATM    8  N1  UNL     1       3.885   1.567  21.696  1.00  0.00    -0.349 N
HETATM    9  C3  UNL     1       3.886   0.591  22.642  1.00  0.00     0.114 A
ATOM     10  H1  UNL     1       4.654   1.621  21.029  1.00  0.00     0.167 HD
HETATM   11  C2  UNL     1       2.848   0.521  23.542  1.00  0.00     0.020 A
HETATM   12  C1  UNL     1       2.826  -0.540  24.589  1.00  0.00     0.069 C
HETATM   13  N6  UNL     1       1.836   1.414  23.483  1.00  0.00    -0.365 N
HETATM   14  C23 UNL     1       1.854   2.386  22.525  1.00  0.00     0.136 A
ATOM     15  H6  UNL     1       1.066   1.362  24.150  1.00  0.00     0.165 HD
ENDBRANCH   4   7
ENDBRANCH   2   3
ENDBRANCH   1   2
BRANCH   1  16
HETATM   16  C8  UNL     1       6.602   3.585  20.546  1.00  0.00     0.016 C
BRANCH  16  17
HETATM   17  C9  UNL     1       7.445   2.951  19.546  1.00  0.00    -0.079 C
HETATM   18  C10 UNL     1       6.989   1.784  18.770  1.00  0.00     0.034 C
HETATM   19  C11 UNL     1       8.189   1.119  18.095  1.00  0.00     0.004 C
HETATM   20  C12 UNL     1       9.481   1.831  18.334  1.00  0.00     0.001 C
HETATM   21  C13 UNL     1       9.431   3.294  18.057  1.00  0.00     0.004 C
HETATM   22  C14 UNL     1       8.148   3.928  18.591  1.00  0.00     0.034 C
ENDBRANCH  16  17
ENDBRANCH   1  16
BRANCH   1  23
HETATM   23  C15 UNL     1       5.428   5.635  21.447  1.00  0.00     0.250 C
HETATM   24  O2  UNL     1       4.337   5.556  22.070  1.00  0.00    -0.268 OA
HETATM   25  N3  UNL     1       6.307   6.664  21.916  1.00  0.00    -0.345 N
HETATM   26  C16 UNL     1       5.927   7.563  22.995  1.00  0.00     0.146 C
HETATM   27  C22 UNL     1       7.619   6.803  21.323  1.00  0.00     0.146 C
HETATM   28  C17 UNL     1       7.092   7.807  23.899  1.00  0.00     0.147 C
HETATM   29  N4  UNL     1       8.265   8.239  23.172  1.00  0.00    -0.331 N
HETATM   30  C18 UNL     1       9.404   8.756  23.817  1.00  0.00     0.318 C
HETATM   31  C21 UNL     1       8.239   8.126  21.743  1.00  0.00     0.147 C
HETATM   32  O3  UNL     1      10.405   9.118  23.131  1.00  0.00    -0.247 OA
HETATM   33  N5  UNL     1       9.456   8.882  25.232  1.00  0.00    -0.338 N
ATOM     34  H5  UNL     1       8.657   8.595  25.797  1.00  0.00     0.164 HD
BRANCH  33  35
HETATM   35  C19 UNL     1      10.626   9.410  25.869  1.00  0.00     0.195 C
BRANCH  35  36
HETATM   36  C20 UNL     1      11.519   8.288  26.290  1.00  0.00     0.370 C
HETATM   37  F1  UNL     1      10.730   7.175  26.532  1.00  0.00    -0.213 F
HETATM   38  F2  UNL     1      12.433   8.010  25.292  1.00  0.00    -0.213 F
ENDBRANCH  35  36
ENDBRANCH  33  35
ENDBRANCH   1  23
TORSDOF 8
ENDMDL