MODEL 3
REMARK VINA RESULT: -7.868169737      1.194      1.240
REMARK  7 active torsions:
REMARK  status: ('A' for Active; 'I' for Inactive)
REMARK    1  A    between atoms: O1_2  and  C2_3
REMARK    2  A    between atoms: C2_3  and  C3_4
REMARK    3  A    between atoms: C3_4  and  N1_5
REMARK    4  A    between atoms: C5_7  and  C6_8
REMARK    5  A    between atoms: C9_13  and  C10_14
REMARK       I    between atoms: C10_14  and  N3_16
REMARK    6  A    between atoms: N3_16  and  C11_18
REMARK    7  A    between atoms: C16_23  and  C17_24
ROOT
HETATM    1  C10 UNL     1       6.088   6.393  21.798  1.00  0.00     0.240 C
HETATM    2  O3  UNL     1       4.973   6.228  22.328  1.00  0.00    -0.271 OA
HETATM    3  N3  UNL     1       6.632   5.226  21.122  1.00  0.00    -0.354 N
ATOM      4  H3  UNL     1       7.544   5.288  20.671  1.00  0.00     0.162 HD
ENDROOT
BRANCH   1   5
HETATM    5  C9  UNL     1       6.809   7.645  21.841  1.00  0.00     0.175 C
HETATM    6  N1  UNL     1       7.701   7.915  22.859  1.00  0.00    -0.377 N
HETATM    7  C4  UNL     1       8.469   9.127  22.643  1.00  0.00     0.136 C
HETATM    8  C5  UNL     1       7.688  10.310  22.208  1.00  0.00     0.093 C
HETATM    9  C7  UNL     1       6.233  10.105  22.029  1.00  0.00     0.018 C
HETATM   10  C8  UNL     1       5.807   8.762  21.581  1.00  0.00     0.036 C
BRANCH   6  11
HETATM   11  C3  UNL     1       7.652   7.454  24.154  1.00  0.00     0.085 C
BRANCH  11  12
HETATM   12  C2  UNL     1       8.440   8.131  25.229  1.00  0.00     0.211 C
BRANCH  12  13
HETATM   13  O1  UNL     1       9.573   7.419  25.587  1.00  0.00    -0.391 OA
HETATM   14  C1  UNL     1      10.673   8.253  25.770  1.00  0.00     0.201 C
ENDBRANCH  12  13
ENDBRANCH  11  12
ENDBRANCH   6  11
BRANCH   8  15
HETATM   15  C6  UNL     1       8.237  10.987  20.984  1.00  0.00     0.236 C
HETATM   16  N2  UNL     1       8.291  12.404  20.874  1.00  0.00    -0.062 NA
HETATM   17  O2  UNL     1       8.675  10.347  19.992  1.00  0.00    -0.276 OA
ENDBRANCH   8  15
ENDBRANCH   1   5
BRANCH   3  18
HETATM   18  C11 UNL     1       5.933   4.035  21.080  1.00  0.00     0.092 C
HETATM   19  C12 UNL     1       5.108   3.675  19.847  1.00  0.00     0.010 C
HETATM   20  C13 UNL     1       5.212   2.310  20.392  1.00  0.00     0.013 C
HETATM   21  C20 UNL     1       5.575   4.073  18.551  1.00  0.00     0.027 C
HETATM   22  C14 UNL     1       6.555   2.698  20.910  1.00  0.00     0.010 C
HETATM   23  C15 UNL     1       7.748   2.494  20.139  1.00  0.00     0.018 C
HETATM   24  C16 UNL     1       7.957   2.431  18.728  1.00  0.00    -0.011 C
HETATM   25  C18 UNL     1       8.009   3.736  17.956  1.00  0.00     0.033 C
HETATM   26  C21 UNL     1       6.935   2.050  17.735  1.00  0.00     0.033 C
HETATM   27  C19 UNL     1       6.531   3.461  17.684  1.00  0.00     0.020 C
HETATM   28 BR1  UNL     1       6.213   4.036  15.819  1.00  0.00    -0.085 Br
BRANCH  24  29
HETATM   29  C17 UNL     1       9.296   1.709  18.423  1.00  0.00     0.231 C
HETATM   30  F1  UNL     1      10.210   2.665  18.075  1.00  0.00    -0.255 F
ENDBRANCH  24  29
ENDBRANCH   3  18
TORSDOF 7
ENDMDL