MODEL 5
REMARK VINA RESULT: -9.649243258      1.652      1.882
REMARK  7 active torsions:
REMARK  status: ('A' for Active; 'I' for Inactive)
REMARK    1  A    between atoms: C2_3  and  C3_4
REMARK    2  A    between atoms: C2_3  and  C15_19
REMARK    3  A    between atoms: C3_4  and  C4_5
REMARK       I    between atoms: C4_5  and  N2_7
REMARK    4  A    between atoms: N2_7  and  C5_9
REMARK       I    between atoms: C15_19  and  N3_21
REMARK    5  A    between atoms: C19_25  and  C20_26
REMARK       I    between atoms: C20_26  and  N4_28
REMARK    6  A    between atoms: N4_28  and  C21_30
REMARK    7  A    between atoms: C21_30  and  C22_31
ROOT
HETATM    1  N1  UNL     1       7.864   9.738  18.116  1.00  0.00    -0.196 NA
HETATM    2  C1  UNL     1       7.489   9.039  18.974  1.00  0.00     0.074 C
HETATM    3  C2  UNL     1       7.018   8.141  20.035  1.00  0.00     0.193 C
ENDROOT
BRANCH   3   4
HETATM    4  C3  UNL     1       7.872   6.898  20.042  1.00  0.00     0.131 C
BRANCH   4   5
HETATM    5  C4  UNL     1       7.394   5.863  19.126  1.00  0.00     0.219 C
HETATM    6  O1  UNL     1       6.497   6.156  18.297  1.00  0.00    -0.274 OA
HETATM    7  N2  UNL     1       7.873   4.524  19.099  1.00  0.00    -0.356 N
ATOM      8  H2  UNL     1       8.602   4.258  19.760  1.00  0.00     0.162 HD
BRANCH   7   9
HETATM    9  C5  UNL     1       7.383   3.529  18.188  1.00  0.00     0.088 C
HETATM   10  C6  UNL     1       6.526   2.489  18.861  1.00  0.00     0.030 C
HETATM   11  C7  UNL     1       6.978   1.095  18.621  1.00  0.00    -0.008 C
HETATM   12  C8  UNL     1       8.171   0.777  19.496  1.00  0.00     0.010 C
HETATM   13  C11 UNL     1       7.314   0.758  17.213  1.00  0.00    -0.010 C
HETATM   14  C9  UNL     1       9.292   0.791  18.445  1.00  0.00    -0.013 C
HETATM   15  C10 UNL     1       8.627  -0.027  17.356  1.00  0.00     0.009 C
HETATM   16  C14 UNL     1       9.526   2.214  18.097  1.00  0.00     0.011 C
HETATM   17  C13 UNL     1       8.454   2.897  17.327  1.00  0.00     0.009 C
HETATM   18  C12 UNL     1       7.714   1.976  16.370  1.00  0.00     0.011 C
ENDBRANCH   7   9
ENDBRANCH   4   5
ENDBRANCH   3   4
BRANCH   3  19
HETATM   19  C15 UNL     1       7.061   8.882  21.306  1.00  0.00     0.238 C
HETATM   20  O2  UNL     1       8.022   9.641  21.627  1.00  0.00    -0.272 OA
HETATM   21  N3  UNL     1       5.993   8.761  22.230  1.00  0.00    -0.338 N
HETATM   22  C16 UNL     1       4.781   7.945  22.113  1.00  0.00     0.127 C
HETATM   23  C19 UNL     1       5.858   9.421  23.504  1.00  0.00     0.179 C
HETATM   24  C17 UNL     1       3.696   8.908  22.615  1.00  0.00     0.022 C
HETATM   25  C18 UNL     1       4.406   9.621  23.734  1.00  0.00     0.037 C
BRANCH  23  26
HETATM   26  C20 UNL     1       6.501   8.641  24.620  1.00  0.00     0.240 C
HETATM   27  O3  UNL     1       5.751   7.907  25.282  1.00  0.00    -0.271 OA
HETATM   28  N4  UNL     1       7.867   8.758  24.869  1.00  0.00    -0.357 N
ATOM     29  H4  UNL     1       8.362   9.409  24.259  1.00  0.00     0.162 HD
BRANCH  28  30
HETATM   30  C21 UNL     1       8.679   8.110  25.842  1.00  0.00     0.158 C
BRANCH  30  31
HETATM   31  C22 UNL     1      10.107   8.503  25.927  1.00  0.00     0.196 C
HETATM   32 CL1  UNL     1      10.983   7.229  26.869  1.00  0.00    -0.106 Cl
HETATM   33 CL2  UNL     1      10.976   8.662  24.416  1.00  0.00    -0.106 Cl
ENDBRANCH  30  31
ENDBRANCH  28  30
ENDBRANCH  23  26
ENDBRANCH   3  19
TORSDOF 7
ENDMDL