MODEL 1
REMARK VINA RESULT: -8.571040666      0.000      0.000
REMARK  8 active torsions:
REMARK  status: ('A' for Active; 'I' for Inactive)
REMARK    1  A    between atoms: C1_2  and  C2_3
REMARK       I    between atoms: C1_2  and  N4_29
REMARK    2  A    between atoms: C2_3  and  N1_4
REMARK    3  A    between atoms: N1_4  and  C3_5
REMARK    4  A    between atoms: N1_4  and  C10_16
REMARK    5  A    between atoms: C4_6  and  O2_7
REMARK    6  A    between atoms: C4_6  and  N2_9
REMARK    7  A    between atoms: N2_9  and  C5_11
REMARK    8  A    between atoms: N4_29  and  C19_31
ROOT
HETATM    1  N1  UNL     1       6.947   6.984  20.462  1.00  0.00    -0.325 N
ENDROOT
BRANCH   1   2
HETATM    2  C2  UNL     1       7.444   5.676  20.487  1.00  0.00     0.170 C
BRANCH   2   3
HETATM    3  C1  UNL     1       7.618   4.788  19.394  1.00  0.00     0.257 C
HETATM    4  O1  UNL     1       7.414   5.033  18.204  1.00  0.00    -0.267 OA
HETATM    5  N4  UNL     1       8.079   3.459  19.675  1.00  0.00    -0.352 N
ATOM      6  H4  UNL     1       8.266   3.182  20.638  1.00  0.00     0.163 HD
BRANCH   5   7
HETATM    7  C19 UNL     1       8.279   2.513  18.612  1.00  0.00     0.084 C
HETATM    8  C20 UNL     1       9.705   2.441  18.148  1.00  0.00     0.025 C
HETATM    9  C21 UNL     1       9.741   1.161  17.314  1.00  0.00     0.002 C
HETATM   10  C22 UNL     1       8.643   0.287  17.892  1.00  0.00     0.002 C
HETATM   11  C23 UNL     1       8.027   1.074  19.028  1.00  0.00     0.025 C
ENDBRANCH   5   7
ENDBRANCH   2   3
ENDBRANCH   1   2
BRANCH   1  12
HETATM   12  C3  UNL     1       7.525   8.233  20.191  1.00  0.00     0.152 C
HETATM   13  C4  UNL     1       8.619   8.901  20.760  1.00  0.00     0.152 C
BRANCH  13  14
HETATM   14  O2  UNL     1       8.885  10.062  20.164  1.00  0.00    -0.345 OA
ATOM     15  H2  UNL     1       9.506  10.594  20.649  1.00  0.00     0.219 HD
ENDBRANCH  13  14
BRANCH  13  16
HETATM   16  N2  UNL     1       9.518   8.675  21.807  1.00  0.00    -0.365 N
ATOM     17  H2  UNL     1      10.420   8.252  21.586  1.00  0.00     0.162 HD
BRANCH  16  18
HETATM   18  C5  UNL     1       9.235   9.015  23.203  1.00  0.00     0.083 C
HETATM   19  C6  UNL     1      10.527   8.962  24.017  1.00  0.00     0.025 C
HETATM   20  C7  UNL     1      10.024   8.837  25.443  1.00  0.00     0.002 C
HETATM   21  C8  UNL     1       8.884   7.836  25.304  1.00  0.00     0.002 C
HETATM   22  C9  UNL     1       8.408   7.943  23.871  1.00  0.00     0.025 C
ENDBRANCH  16  18
ENDBRANCH  13  16
ENDBRANCH   1  12
BRANCH   1  23
HETATM   23  C10 UNL     1       5.520   7.087  20.803  1.00  0.00     0.035 C
HETATM   24  C11 UNL     1       4.681   6.737  19.857  1.00  0.00     0.001 C
HETATM   25  C12 UNL     1       3.197   6.725  19.888  1.00  0.00     0.034 C
HETATM   26  C13 UNL     1       2.662   6.146  21.171  1.00  0.00     0.048 C
HETATM   27  C14 UNL     1       3.695   5.584  22.084  1.00  0.00     0.059 C
HETATM   28  N3  UNL     1       4.335   6.576  22.851  1.00  0.00    -0.376 N
HETATM   29  C15 UNL     1       3.557   7.056  23.929  1.00  0.00     0.214 C
HETATM   30  C18 UNL     1       5.126   7.545  22.135  1.00  0.00     0.143 C
HETATM   31  C16 UNL     1       4.308   8.013  24.857  1.00  0.00     0.307 C
HETATM   32  F1  UNL     1       5.526   7.513  25.238  1.00  0.00    -0.192 F
HETATM   33  F2  UNL     1       3.474   8.300  25.910  1.00  0.00    -0.192 F
HETATM   34  S1  UNL     1       4.503   9.534  23.841  1.00  0.00    -0.089 SA
HETATM   35  C17 UNL     1       4.397   8.897  22.118  1.00  0.00     0.111 C
ENDBRANCH   1  23
TORSDOF 8
ENDMDL