MODEL 1
REMARK VINA RESULT: -9.188920758      0.000      0.000
REMARK  7 active torsions:
REMARK  status: ('A' for Active; 'I' for Inactive)
REMARK    1  A    between atoms: C1_2  and  C2_3
REMARK       I    between atoms: C1_2  and  N3_21
REMARK    2  A    between atoms: C2_3  and  N1_4
REMARK       I    between atoms: N1_4  and  C3_6
REMARK    3  A    between atoms: C3_6  and  C4_8
REMARK       I    between atoms: N2_12  and  C8_13
REMARK    4  A    between atoms: C8_13  and  C9_15
REMARK    5  A    between atoms: N3_21  and  C15_23
REMARK    6  A    between atoms: N4_27  and  C19_28
REMARK    7  A    between atoms: C19_28  and  C20_29
ROOT
HETATM    1  C2  UNL     1       5.675   8.164  18.584  1.00  0.00     0.225 C
ENDROOT
BRANCH   1   2
HETATM    2  C1  UNL     1       5.437   7.793  19.997  1.00  0.00     0.235 C
HETATM    3  O1  UNL     1       5.214   6.612  20.330  1.00  0.00    -0.272 OA
HETATM    4  N3  UNL     1       5.459   8.781  20.994  1.00  0.00    -0.353 N
ATOM      5  H3  UNL     1       5.644   9.744  20.716  1.00  0.00     0.163 HD
BRANCH   4   6
HETATM    6  C15 UNL     1       5.232   8.502  22.400  1.00  0.00     0.113 C
HETATM    7  C16 UNL     1       4.674   9.673  23.147  1.00  0.00     0.029 C
HETATM    8  C17 UNL     1       4.575   9.257  24.601  1.00  0.00     0.032 C
HETATM    9  C18 UNL     1       5.119   7.866  24.838  1.00  0.00     0.272 C
HETATM   10  N4  UNL     1       6.481   7.722  24.382  1.00  0.00     0.090 N
HETATM   11  C24 UNL     1       6.565   8.153  23.020  1.00  0.00     0.297 C
BRANCH  10  12
HETATM   12  C19 UNL     1       7.356   8.478  25.259  1.00  0.00     0.277 C
BRANCH  12  13
HETATM   13  C20 UNL     1       8.777   8.229  24.858  1.00  0.00     0.025 C
HETATM   14  C21 UNL     1       9.526   9.485  24.407  1.00  0.00     0.085 C
HETATM   15  C22 UNL     1      10.694   9.016  25.247  1.00  0.00     0.244 C
HETATM   16  F1  UNL     1      11.282  10.039  26.004  1.00  0.00    -0.206 F
HETATM   17  F2  UNL     1      11.615   8.246  24.551  1.00  0.00    -0.206 F
HETATM   18  C23 UNL     1       9.730   8.187  26.060  1.00  0.00     0.085 C
ENDBRANCH  12  13
ENDBRANCH  10  12
ENDBRANCH   4   6
ENDBRANCH   1   2
BRANCH   1  19
HETATM   19  N1  UNL     1       5.958   7.075  17.712  1.00  0.00    -0.351 N
HETATM   20  C3  UNL     1       4.958   6.306  17.024  1.00  0.00     0.241 C
HETATM   21  O2  UNL     1       3.784   6.663  17.254  1.00  0.00    -0.271 OA
ATOM     22  H1  UNL     1       6.935   6.823  17.566  1.00  0.00     0.163 HD
BRANCH  20  23
HETATM   23  C4  UNL     1       5.288   5.216  16.143  1.00  0.00     0.179 C
HETATM   24  C5  UNL     1       5.863   5.672  14.779  1.00  0.00     0.037 C
HETATM   25  C6  UNL     1       6.302   4.320  14.190  1.00  0.00     0.022 C
HETATM   26  C7  UNL     1       6.031   3.286  15.281  1.00  0.00     0.127 C
HETATM   27  N2  UNL     1       6.193   4.203  16.459  1.00  0.00    -0.338 N
HETATM   28  C8  UNL     1       7.088   3.908  17.470  1.00  0.00     0.224 C
HETATM   29  O3  UNL     1       7.256   4.643  18.472  1.00  0.00    -0.273 OA
BRANCH  28  30
HETATM   30  C9  UNL     1       7.950   2.672  17.459  1.00  0.00     0.078 C
HETATM   31  C10 UNL     1       7.269   1.643  18.344  1.00  0.00     0.014 C
HETATM   32  C11 UNL     1       8.288   0.746  19.018  1.00  0.00     0.001 C
HETATM   33  C12 UNL     1       9.482   0.462  18.128  1.00  0.00     0.000 C
HETATM   34  C13 UNL     1      10.186   1.784  17.880  1.00  0.00     0.001 C
HETATM   35  C14 UNL     1       9.289   2.955  18.145  1.00  0.00     0.014 C
ENDBRANCH  28  30
ENDBRANCH  20  23
ENDBRANCH   1  19
TORSDOF 7
ENDMDL