MODEL 5
REMARK VINA RESULT: -8.222274124      1.895      4.551
REMARK  9 active torsions:
REMARK  status: ('A' for Active; 'I' for Inactive)
REMARK    1  A    between atoms: C2_2  and  C4_4
REMARK    2  A    between atoms: C4_4  and  N1_5
REMARK    3  A    between atoms: N1_5  and  C5_6
REMARK    4  A    between atoms: N1_5  and  C11_14
REMARK    5  A    between atoms: C5_6  and  C6_7
REMARK       I    between atoms: C6_7  and  N2_9
REMARK    6  A    between atoms: C15_18  and  N3_19
REMARK       I    between atoms: N3_19  and  C16_21
REMARK    7  A    between atoms: C16_21  and  C17_23
REMARK    8  A    between atoms: C17_23  and  N4_25
REMARK    9  A    between atoms: N4_25  and  C18_27
ROOT
HETATM    1  C11 UNL     1       7.127   9.023  22.642  1.00  0.00     0.111 C
HETATM    2  C12 UNL     1       7.199  10.502  22.577  1.00  0.00     0.028 C
HETATM    3  C13 UNL     1       7.811  10.935  21.273  1.00  0.00     0.004 C
HETATM    4  C14 UNL     1       8.309   9.697  20.633  1.00  0.00     0.027 C
HETATM    5  C15 UNL     1       7.942   8.537  21.472  1.00  0.00     0.108 C
ENDROOT
BRANCH   5   6
HETATM    6  N3  UNL     1       7.078   7.592  20.733  1.00  0.00    -0.348 N
HETATM    7  C16 UNL     1       7.079   6.222  20.920  1.00  0.00     0.279 C
HETATM    8  O2  UNL     1       7.857   5.726  21.764  1.00  0.00    -0.265 OA
ATOM      9  H3  UNL     1       6.438   7.976  20.038  1.00  0.00     0.163 HD
BRANCH   7  10
HETATM   10  C17 UNL     1       6.217   5.345  20.179  1.00  0.00     0.165 C
HETATM   11  S1  UNL     1       4.619   5.296  20.609  1.00  0.00    -0.055 SA
BRANCH  10  12
HETATM   12  N4  UNL     1       6.695   4.540  19.110  1.00  0.00    -0.372 N
ATOM     13  H4  UNL     1       6.341   4.767  18.181  1.00  0.00     0.161 HD
BRANCH  12  14
HETATM   14  C18 UNL     1       7.605   3.458  19.185  1.00  0.00     0.083 C
HETATM   15  C19 UNL     1       8.677   3.420  18.152  1.00  0.00     0.031 C
HETATM   16  C20 UNL     1       9.501   2.162  18.254  1.00  0.00     0.081 C
HETATM   17  C21 UNL     1       8.714   0.909  18.427  1.00  0.00     0.243 C
HETATM   18  F1  UNL     1       7.900   0.627  17.355  1.00  0.00    -0.206 F
HETATM   19  F2  UNL     1       9.599  -0.121  18.688  1.00  0.00    -0.206 F
HETATM   20  C22 UNL     1       7.840   1.066  19.664  1.00  0.00     0.081 C
HETATM   21  C23 UNL     1       6.829   2.163  19.287  1.00  0.00     0.031 C
ENDBRANCH  12  14
ENDBRANCH  10  12
ENDBRANCH   7  10
ENDBRANCH   5   6
BRANCH   1  22
HETATM   22  N1  UNL     1       7.454   8.480  23.872  1.00  0.00    -0.358 N
BRANCH  22  23
HETATM   23  C4  UNL     1       8.487   8.813  24.717  1.00  0.00     0.068 C
BRANCH  23  24
HETATM   24  C2  UNL     1       9.798   8.175  24.911  1.00  0.00     0.016 C
HETATM   25  C1  UNL     1      10.841   9.026  24.042  1.00  0.00     0.015 C
HETATM   26  C3  UNL     1      10.447   8.286  26.266  1.00  0.00     0.015 C
ENDBRANCH  23  24
ENDBRANCH  22  23
BRANCH  22  27
HETATM   27  C5  UNL     1       6.254   8.385  24.747  1.00  0.00     0.165 C
BRANCH  27  28
HETATM   28  C6  UNL     1       5.150   7.595  24.361  1.00  0.00     0.259 C
HETATM   29  O1  UNL     1       5.130   6.430  23.968  1.00  0.00    -0.267 OA
HETATM   30  N2  UNL     1       3.833   8.211  24.423  1.00  0.00    -0.347 N
HETATM   31  C7  UNL     1       2.574   7.588  24.084  1.00  0.00     0.126 C
HETATM   32  C10 UNL     1       3.490   9.561  24.822  1.00  0.00     0.126 C
HETATM   33  C8  UNL     1       1.749   7.931  25.309  1.00  0.00     0.021 C
HETATM   34  C9  UNL     1       2.284   9.301  25.718  1.00  0.00     0.021 C
ENDBRANCH  27  28
ENDBRANCH  22  27
ENDBRANCH   1  22
TORSDOF 9
ENDMDL