MODEL 5
REMARK VINA RESULT: -7.820327101      1.173      1.246
REMARK  10 active torsions:
REMARK  status: ('A' for Active; 'I' for Inactive)
REMARK    1  A    between atoms: N1_2  and  C2_3
REMARK    2  A    between atoms: N1_2  and  C12_19
REMARK    3  A    between atoms: C2_3  and  O1_4
REMARK    4  A    between atoms: C2_3  and  C3_6
REMARK    5  A    between atoms: N2_9  and  C6_10
REMARK    6  A    between atoms: C6_10  and  C7_11
REMARK    7  A    between atoms: C6_10  and  C8_13
REMARK    8  A    between atoms: C8_13  and  C9_14
REMARK    9  A    between atoms: C9_14  and  O2_15
REMARK   10  A    between atoms: C15_22  and  C16_23
ROOT
HETATM    1  C1  UNL     1       6.372   3.485  17.176  1.00  0.00     0.152 C
HETATM    2  N1  UNL     1       6.730   3.800  18.532  1.00  0.00    -0.363 N
ENDROOT
BRANCH   2   3
HETATM    3  C2  UNL     1       6.005   4.815  19.191  1.00  0.00     0.118 C
BRANCH   3   4
HETATM    4  O1  UNL     1       4.735   4.543  19.295  1.00  0.00    -0.349 OA
ATOM      5  H1  UNL     1       4.385   4.740  20.156  1.00  0.00     0.219 HD
ENDBRANCH   3   4
BRANCH   3   6
HETATM    6  C3  UNL     1       6.410   6.076  19.756  1.00  0.00     0.066 C
HETATM    7  C4  UNL     1       7.802   6.541  19.524  1.00  0.00     0.033 C
HETATM    8  C5  UNL     1       7.946   7.936  20.094  1.00  0.00     0.123 C
HETATM    9  N2  UNL     1       7.483   8.083  21.427  1.00  0.00    -0.388 N
HETATM   10  C10 UNL     1       6.950   6.930  22.034  1.00  0.00     0.059 C
HETATM   11  C11 UNL     1       5.959   6.172  21.202  1.00  0.00     0.057 C
BRANCH   9  12
HETATM   12  C6  UNL     1       6.797   9.323  21.637  1.00  0.00     0.095 C
BRANCH  12  13
HETATM   13  C7  UNL     1       5.931   9.352  22.855  1.00  0.00     0.110 C
HETATM   14 BR1  UNL     1       4.079   9.705  22.435  1.00  0.00    -0.094 Br
ENDBRANCH  12  13
BRANCH  12  15
HETATM   15  C8  UNL     1       7.843  10.406  21.730  1.00  0.00     0.052 C
BRANCH  15  16
HETATM   16  C9  UNL     1       7.609  11.575  20.824  1.00  0.00     0.166 C
BRANCH  16  17
HETATM   17  O2  UNL     1       8.710  11.596  19.934  1.00  0.00    -0.401 OA
ATOM     18  H2  UNL     1       9.267  10.873  20.196  1.00  0.00     0.209 HD
ENDBRANCH  16  17
ENDBRANCH  15  16
ENDBRANCH  12  15
ENDBRANCH   9  12
ENDBRANCH   3   6
ENDBRANCH   2   3
BRANCH   2  19
HETATM   19  C12 UNL     1       7.843   3.097  19.203  1.00  0.00     0.104 C
HETATM   20  C13 UNL     1       9.129   3.236  18.479  1.00  0.00     0.027 C
HETATM   21  C14 UNL     1       9.455   2.210  17.475  1.00  0.00     0.011 C
HETATM   22  C15 UNL     1       8.823   0.855  17.687  1.00  0.00     0.023 C
HETATM   23  C19 UNL     1       8.352   0.622  19.078  1.00  0.00     0.031 C
HETATM   24  C20 UNL     1       7.500   1.722  19.661  1.00  0.00     0.106 C
HETATM   25 CL1  UNL     1       5.743   1.348  19.521  1.00  0.00    -0.123 Cl
BRANCH  22  26
HETATM   26  C16 UNL     1       9.756  -0.245  17.351  1.00  0.00    -0.020 A
HETATM   27  C17 UNL     1      11.025  -0.432  17.851  1.00  0.00     0.116 A
HETATM   28  N3  UNL     1      11.548  -1.554  17.293  1.00  0.00    -0.312 N
HETATM   29  N4  UNL     1      10.647  -2.065  16.467  1.00  0.00    -0.312 N
ATOM     30  H3  UNL     1      12.476  -1.938  17.477  1.00  0.00     0.186 HD
HETATM   31  C18 UNL     1       9.539  -1.284  16.481  1.00  0.00     0.116 A
ATOM     32  H4  UNL     1      10.768  -2.911  15.910  1.00  0.00     0.186 HD
ENDBRANCH  22  26
ENDBRANCH   2  19
TORSDOF 10
ENDMDL