MODEL 3
REMARK VINA RESULT: -9.568937323      1.290      1.575
REMARK  7 active torsions:
REMARK  status: ('A' for Active; 'I' for Inactive)
REMARK    1  A    between atoms: C2_3  and  C3_4
REMARK       I    between atoms: C3_4  and  N2_6
REMARK    2  A    between atoms: N2_6  and  C4_8
REMARK    3  A    between atoms: C4_8  and  C5_9
REMARK       I    between atoms: N3_17  and  C13_18
REMARK    4  A    between atoms: C13_18  and  C14_20
REMARK    5  A    between atoms: C14_20  and  C15_21
REMARK    6  A    between atoms: C15_21  and  C16_22
REMARK    7  A    between atoms: C16_22  and  N4_23
REMARK       I    between atoms: N4_23  and  C17_25
REMARK       I    between atoms: C17_25  and  N5_27
ROOT
HETATM    1  N1  UNL     1       3.726   3.542  23.310  1.00  0.00    -0.197 NA
HETATM    2  C1  UNL     1       4.191   2.817  22.541  1.00  0.00     0.068 C
HETATM    3  C2  UNL     1       4.782   1.897  21.592  1.00  0.00     0.226 C
ENDROOT
BRANCH   3   4
HETATM    4  C3  UNL     1       6.042   2.451  20.978  1.00  0.00     0.231 C
HETATM    5  O1  UNL     1       7.098   2.217  21.585  1.00  0.00    -0.273 OA
HETATM    6  N2  UNL     1       5.929   3.187  19.770  1.00  0.00    -0.347 N
ATOM      7  H2  UNL     1       5.004   3.313  19.359  1.00  0.00     0.163 HD
BRANCH   6   8
HETATM    8  C4  UNL     1       7.081   3.771  19.092  1.00  0.00     0.062 C
HETATM    9  C11 UNL     1       7.943   4.581  20.005  1.00  0.00     0.056 C
HETATM   10  C12 UNL     1       7.249   5.504  20.911  1.00  0.00     0.135 C
HETATM   11  N3  UNL     1       6.458   6.533  20.252  1.00  0.00    -0.289 N
HETATM   12  C13 UNL     1       6.737   7.881  20.680  1.00  0.00     0.224 C
HETATM   13  C22 UNL     1       5.417   6.354  19.309  1.00  0.00     0.326 C
HETATM   14  O2  UNL     1       6.054   8.818  20.216  1.00  0.00    -0.273 OA
HETATM   15  F1  UNL     1       4.349   5.785  20.075  1.00  0.00    -0.182 F
HETATM   16  F2  UNL     1       4.826   7.562  18.896  1.00  0.00    -0.182 F
HETATM   17  C23 UNL     1       5.568   5.540  18.099  1.00  0.00     0.107 C
HETATM   18  C24 UNL     1       6.705   4.622  17.912  1.00  0.00     0.044 C
BRANCH   8  19
HETATM   19  C5  UNL     1       7.929   2.624  18.599  1.00  0.00    -0.030 A
HETATM   20  C6  UNL     1       9.269   2.859  18.347  1.00  0.00     0.010 A
HETATM   21  C7  UNL     1      10.066   1.828  17.904  1.00  0.00     0.001 A
HETATM   22  C8  UNL     1       9.586   0.552  17.696  1.00  0.00     0.000 A
HETATM   23  C9  UNL     1       8.252   0.337  17.951  1.00  0.00     0.001 A
HETATM   24  C10 UNL     1       7.430   1.372  18.400  1.00  0.00     0.010 A
ENDBRANCH   8  19
BRANCH  12  25
HETATM   25  C14 UNL     1       7.789   8.247  21.629  1.00  0.00     0.105 C
BRANCH  25  26
HETATM   26  C15 UNL     1       7.995   9.718  21.756  1.00  0.00     0.029 C
BRANCH  26  27
HETATM   27  C16 UNL     1       8.213  10.262  23.105  1.00  0.00     0.125 C
BRANCH  27  28
HETATM   28  N4  UNL     1       8.633   9.340  24.127  1.00  0.00    -0.343 N
HETATM   29  C17 UNL     1      10.022   9.059  24.377  1.00  0.00     0.318 C
HETATM   30  O3  UNL     1      10.926   9.603  23.734  1.00  0.00    -0.247 OA
HETATM   31  N5  UNL     1      10.392   8.113  25.403  1.00  0.00    -0.334 N
HETATM   32  C18 UNL     1      11.723   7.740  25.765  1.00  0.00     0.127 C
HETATM   33  C21 UNL     1       9.464   7.371  26.224  1.00  0.00     0.127 C
HETATM   34  C19 UNL     1      11.687   7.257  27.180  1.00  0.00     0.022 C
HETATM   35  C20 UNL     1      10.233   7.018  27.450  1.00  0.00     0.022 C
ATOM     36  H4  UNL     1       7.924   8.872  24.692  1.00  0.00     0.164 HD
ENDBRANCH  27  28
ENDBRANCH  26  27
ENDBRANCH  25  26
ENDBRANCH  12  25
ENDBRANCH   6   8
ENDBRANCH   3   4
TORSDOF 7
ENDMDL