MODEL 1
REMARK VINA RESULT: -9.961903747      0.000      0.000
REMARK  9 active torsions:
REMARK  status: ('A' for Active; 'I' for Inactive)
REMARK    1  A    between atoms: C1_2  and  C2_3
REMARK       I    between atoms: C1_2  and  N1_16
REMARK    2  A    between atoms: C2_3  and  C3_4
REMARK    3  A    between atoms: C10_11  and  C11_12
REMARK    4  A    between atoms: N1_16  and  C13_18
REMARK    5  A    between atoms: C13_18  and  C14_19
REMARK    6  A    between atoms: N2_22  and  C17_23
REMARK    7  A    between atoms: C17_23  and  C18_24
REMARK    8  A    between atoms: C18_24  and  O4_25
REMARK    9  A    between atoms: C18_24  and  N3_27
ROOT
HETATM    1  C14 UNL     1       6.790   7.637  20.647  1.00  0.00     0.007 C
HETATM    2  C15 UNL     1       8.272   7.859  20.395  1.00  0.00     0.036 C
HETATM    3  C16 UNL     1       8.820   8.482  21.633  1.00  0.00     0.273 C
HETATM    4  N2  UNL     1       8.412   9.886  21.778  1.00  0.00     0.096 N
HETATM    5  C24 UNL     1       7.174  10.092  21.002  1.00  0.00     0.273 C
HETATM    6  C25 UNL     1       6.197   8.955  21.134  1.00  0.00     0.036 C
ENDROOT
BRANCH   1   7
HETATM    7  C13 UNL     1       6.604   6.559  21.686  1.00  0.00     0.127 C
BRANCH   7   8
HETATM    8  N1  UNL     1       7.302   5.364  21.291  1.00  0.00    -0.361 N
HETATM    9  C1  UNL     1       6.604   4.267  20.744  1.00  0.00     0.218 C
HETATM   10  O1  UNL     1       5.374   4.332  20.593  1.00  0.00    -0.274 OA
ATOM     11  H1  UNL     1       8.313   5.310  21.408  1.00  0.00     0.162 HD
BRANCH   9  12
HETATM   12  C2  UNL     1       7.374   3.064  20.369  1.00  0.00     0.112 C
BRANCH  12  13
HETATM   13  C3  UNL     1       7.506   2.908  18.851  1.00  0.00     0.034 C
HETATM   14  C4  UNL     1       8.895   3.194  18.469  1.00  0.00     0.014 C
HETATM   15  C5  UNL     1       9.651   2.135  17.737  1.00  0.00    -0.013 C
HETATM   16  C6  UNL     1       9.226   1.883  16.335  1.00  0.00     0.005 C
HETATM   17  C12 UNL     1       9.706   0.832  18.492  1.00  0.00     0.013 C
HETATM   18  C7  UNL     1       8.937   0.394  16.263  1.00  0.00     0.009 C
HETATM   19  C8  UNL     1       8.717   0.003  17.739  1.00  0.00     0.009 C
HETATM   20  C9  UNL     1       7.351   0.457  18.042  1.00  0.00    -0.008 C
HETATM   21  C10 UNL     1       6.916   1.621  18.481  1.00  0.00     0.020 C
BRANCH  21  22
HETATM   22  C11 UNL     1       5.446   1.642  18.603  1.00  0.00     0.205 C
HETATM   23  O2  UNL     1       4.829   1.023  19.481  1.00  0.00    -0.644 OA
HETATM   24  O3  UNL     1       4.699   2.383  17.702  1.00  0.00    -0.644 OA
ENDBRANCH  21  22
ENDBRANCH  12  13
ENDBRANCH   9  12
ENDBRANCH   7   8
ENDBRANCH   1   7
BRANCH   4  25
HETATM   25  C17 UNL     1       8.172  10.148  23.159  1.00  0.00     0.355 C
BRANCH  25  26
HETATM   26  C18 UNL     1       9.331  10.056  24.046  1.00  0.00     0.142 C
BRANCH  26  27
HETATM   27  O4  UNL     1      10.103  11.127  24.033  1.00  0.00    -0.348 OA
ATOM     28  H4  UNL     1      10.925  11.006  23.571  1.00  0.00     0.219 HD
ENDBRANCH  26  27
BRANCH  26  29
HETATM   29  N3  UNL     1       9.769   9.064  24.897  1.00  0.00    -0.364 N
HETATM   30  C19 UNL     1      11.131   9.170  25.475  1.00  0.00     0.130 C
HETATM   31  C20 UNL     1      11.680   7.795  25.785  1.00  0.00     0.099 C
HETATM   32  C21 UNL     1      10.855   7.139  26.880  1.00  0.00     0.246 C
HETATM   33  F1  UNL     1      11.349   7.566  28.120  1.00  0.00    -0.206 F
HETATM   34  F2  UNL     1      10.916   5.787  26.735  1.00  0.00    -0.206 F
HETATM   35  C22 UNL     1       9.426   7.605  26.821  1.00  0.00     0.099 C
HETATM   36  C23 UNL     1       9.023   7.927  25.362  1.00  0.00     0.130 C
ENDBRANCH  26  29
ENDBRANCH  25  26
ENDBRANCH   4  25
TORSDOF 9
ENDMDL