MODEL 2
REMARK VINA RESULT: -9.275273094      1.861      2.595
REMARK  7 active torsions:
REMARK  status: ('A' for Active; 'I' for Inactive)
REMARK       I    between atoms: C2_2  and  N1_4
REMARK    1  A    between atoms: C4_6  and  N2_7
REMARK       I    between atoms: N2_7  and  C5_9
REMARK    2  A    between atoms: C5_9  and  C6_11
REMARK    3  A    between atoms: C6_11  and  N3_12
REMARK    4  A    between atoms: N3_12  and  C7_15
REMARK    5  A    between atoms: C7_15  and  C8_16
REMARK    6  A    between atoms: C7_15  and  C15_23
REMARK    7  A    between atoms: C8_16  and  C9_17
REMARK       I    between atoms: C15_23  and  N4_25
ROOT
HETATM    1  N3  UNL     1       7.907   7.514  20.613  1.00  0.00    -0.054 N
ATOM      2  H31 UNL     1       8.356   8.336  20.210  1.00  0.00     0.278 HD
ATOM      3  H32 UNL     1       8.634   6.821  20.441  1.00  0.00     0.278 HD
ENDROOT
BRANCH   1   4
HETATM    4  C6  UNL     1       6.722   7.187  19.895  1.00  0.00     0.335 C
BRANCH   4   5
HETATM    5  C5  UNL     1       6.735   5.702  19.629  1.00  0.00     0.243 C
HETATM    6  N2  UNL     1       7.387   5.207  18.484  1.00  0.00    -0.353 N
ATOM      7  H2  UNL     1       7.841   5.862  17.847  1.00  0.00     0.163 HD
HETATM    8  O2  UNL     1       6.147   4.981  20.473  1.00  0.00    -0.272 OA
BRANCH   6   9
HETATM    9  C4  UNL     1       7.426   3.803  18.194  1.00  0.00     0.103 C
HETATM   10  C3  UNL     1       6.949   3.572  16.776  1.00  0.00     0.150 C
HETATM   11  N1  UNL     1       7.154   2.202  16.360  1.00  0.00    -0.350 N
HETATM   12  C2  UNL     1       6.036   1.474  15.886  1.00  0.00     0.215 C
HETATM   13  C24 UNL     1       8.486   1.678  16.458  1.00  0.00     0.134 C
HETATM   14  C1  UNL     1       6.280   0.052  15.458  1.00  0.00     0.117 C
HETATM   15  O1  UNL     1       4.887   1.979  15.819  1.00  0.00    -0.274 OA
HETATM   16  C21 UNL     1       8.993   1.849  17.847  1.00  0.00    -0.029 C
HETATM   17  C20 UNL     1       8.739   3.168  18.481  1.00  0.00     0.037 C
HETATM   18  C22 UNL     1       8.322   0.786  18.726  1.00  0.00     0.016 C
HETATM   19  C23 UNL     1      10.489   1.530  17.843  1.00  0.00     0.016 C
ENDBRANCH   6   9
ENDBRANCH   4   5
ENDBRANCH   1   4
BRANCH   1  20
HETATM   20  C7  UNL     1       7.693   7.697  22.073  1.00  0.00     0.278 C
BRANCH  20  21
HETATM   21  C8  UNL     1       6.299   8.114  22.239  1.00  0.00     0.047 C
BRANCH  21  22
HETATM   22  C9  UNL     1       5.940   9.439  22.786  1.00  0.00    -0.012 C
HETATM   23  C10 UNL     1       5.715   9.230  24.310  1.00  0.00     0.005 C
HETATM   24  C11 UNL     1       4.548   8.364  24.606  1.00  0.00     0.000 C
HETATM   25  C12 UNL     1       3.261   8.774  23.961  1.00  0.00     0.000 C
HETATM   26  C13 UNL     1       3.453   9.157  22.508  1.00  0.00     0.000 C
HETATM   27  C14 UNL     1       4.649  10.053  22.336  1.00  0.00     0.005 C
ENDBRANCH  21  22
ENDBRANCH  20  21
BRANCH  20  28
HETATM   28  C15 UNL     1       8.789   8.534  22.544  1.00  0.00     0.250 C
HETATM   29  O3  UNL     1       9.265   9.383  21.736  1.00  0.00    -0.271 OA
HETATM   30  N4  UNL     1       9.365   8.464  23.833  1.00  0.00    -0.344 N
HETATM   31  C16 UNL     1      10.447   9.277  24.325  1.00  0.00     0.132 C
HETATM   32  C19 UNL     1       8.961   7.546  24.878  1.00  0.00     0.204 C
HETATM   33  C17 UNL     1      11.180   8.266  25.217  1.00  0.00     0.100 C
HETATM   34  C18 UNL     1       9.985   7.692  25.983  1.00  0.00     0.261 C
HETATM   35  F1  UNL     1      10.285   6.515  26.605  1.00  0.00    -0.204 F
HETATM   36  F2  UNL     1       9.618   8.634  26.915  1.00  0.00    -0.204 F
ENDBRANCH  20  28
ENDBRANCH   1  20
TORSDOF 7
ENDMDL