MODEL 3
REMARK VINA RESULT: -8.200788070      2.031      3.090
REMARK  10 active torsions:
REMARK  status: ('A' for Active; 'I' for Inactive)
REMARK    1  A    between atoms: N1_8  and  C7_9
REMARK    2  A    between atoms: C7_9  and  O1_10
REMARK    3  A    between atoms: C7_9  and  C8_12
REMARK       I    between atoms: C8_12  and  N2_14
REMARK    4  A    between atoms: N2_14  and  C9_16
REMARK    5  A    between atoms: C9_16  and  C10_17
REMARK    6  A    between atoms: C10_17  and  C11_18
REMARK    7  A    between atoms: C11_18  and  N3_19
REMARK    8  A    between atoms: N3_19  and  C13_21
REMARK    9  A    between atoms: C13_21  and  C14_22
REMARK       I    between atoms: C14_22  and  N4_24
REMARK   10  A    between atoms: N4_24  and  C15_26
ROOT
HETATM    1  C11 UNL     1       4.316   4.733  21.451  1.00  0.00     0.065 C
ENDROOT
BRANCH   1   2
HETATM    2  C10 UNL     1       3.425   5.186  22.542  1.00  0.00     0.064 C
BRANCH   2   3
HETATM    3  C9  UNL     1       3.896   6.354  23.316  1.00  0.00     0.128 C
BRANCH   3   4
HETATM    4  N2  UNL     1       5.274   6.404  23.664  1.00  0.00    -0.354 N
HETATM    5  C8  UNL     1       6.017   7.565  23.157  1.00  0.00     0.292 C
HETATM    6  O2  UNL     1       5.376   8.373  22.495  1.00  0.00    -0.264 OA
ATOM      7  H2  UNL     1       5.718   5.680  24.229  1.00  0.00     0.162 HD
BRANCH   5   8
HETATM    8  C7  UNL     1       7.407   7.676  23.458  1.00  0.00     0.208 C
BRANCH   8   9
HETATM    9  N1  UNL     1       8.036   8.639  24.220  1.00  0.00    -0.352 N
HETATM   10  C2  UNL     1       8.740   9.834  23.899  1.00  0.00     0.082 C
HETATM   11  C1  UNL     1       8.222  10.752  22.889  1.00  0.00     0.032 C
HETATM   12  C3  UNL     1      10.203   9.435  23.732  1.00  0.00     0.026 C
HETATM   13  C4  UNL     1      10.422   8.281  24.719  1.00  0.00     0.024 C
HETATM   14  C5  UNL     1       9.594   8.451  25.981  1.00  0.00     0.100 C
HETATM   15 CL1  UNL     1      10.073   7.179  27.111  1.00  0.00    -0.123 Cl
HETATM   16  C6  UNL     1       8.102   8.335  25.697  1.00  0.00     0.145 C
ENDBRANCH   8   9
BRANCH   8  17
HETATM   17  O1  UNL     1       8.205   6.765  22.953  1.00  0.00    -0.342 OA
ATOM     18  H1  UNL     1       7.816   5.903  22.859  1.00  0.00     0.219 HD
ENDBRANCH   8  17
ENDBRANCH   5   8
ENDBRANCH   3   4
ENDBRANCH   2   3
ENDBRANCH   1   2
BRANCH   1  19
HETATM   19  N3  UNL     1       4.419   5.575  20.328  1.00  0.00    -0.370 N
HETATM   20  C12 UNL     1       3.401   5.363  19.320  1.00  0.00     0.154 C
BRANCH  19  21
HETATM   21  C13 UNL     1       5.694   5.935  19.862  1.00  0.00     0.164 C
BRANCH  21  22
HETATM   22  C14 UNL     1       6.447   5.010  19.030  1.00  0.00     0.257 C
HETATM   23  O3  UNL     1       6.814   5.413  17.866  1.00  0.00    -0.267 OA
HETATM   24  N4  UNL     1       6.822   3.702  19.362  1.00  0.00    -0.347 N
ATOM     25  H4  UNL     1       6.530   3.376  20.283  1.00  0.00     0.163 HD
BRANCH  24  26
HETATM   26  C15 UNL     1       7.561   2.768  18.575  1.00  0.00     0.034 C
HETATM   27  C16 UNL     1       7.632   1.433  19.338  1.00  0.00     0.035 C
HETATM   28  C17 UNL     1       8.330   0.372  18.562  1.00  0.00    -0.012 C
HETATM   29  C18 UNL     1       9.764   0.793  18.369  1.00  0.00     0.009 C
HETATM   30  C22 UNL     1       7.584   0.182  17.257  1.00  0.00     0.009 C
HETATM   31  C19 UNL     1       9.758   2.116  17.641  1.00  0.00    -0.012 C
HETATM   32  C20 UNL     1       9.168   1.866  16.277  1.00  0.00     0.009 C
HETATM   33  C24 UNL     1       9.031   3.177  18.414  1.00  0.00     0.035 C
HETATM   34  C21 UNL     1       7.729   1.446  16.474  1.00  0.00    -0.012 C
HETATM   35  C23 UNL     1       6.980   2.545  17.214  1.00  0.00     0.035 C
ENDBRANCH  24  26
ENDBRANCH  21  22
ENDBRANCH  19  21
ENDBRANCH   1  19
TORSDOF 10
ENDMDL