MODEL 2
REMARK VINA RESULT: -8.298679824      2.911      6.828
REMARK  11 active torsions:
REMARK  status: ('A' for Active; 'I' for Inactive)
REMARK    1  A    between atoms: N1_1  and  C1_5
REMARK    2  A    between atoms: C1_5  and  C2_6
REMARK    3  A    between atoms: C3_8  and  O1_9
REMARK    4  A    between atoms: O1_9  and  C4_10
REMARK    5  A    between atoms: C5_12  and  N2_13
REMARK    6  A    between atoms: N2_13  and  C6_16
REMARK    7  A    between atoms: C8_20  and  C9_21
REMARK    8  A    between atoms: C10_24  and  N4_25
REMARK    9  A    between atoms: C12_30  and  N5_31
REMARK   10  A    between atoms: C13_35  and  N6_36
REMARK   11  A    between atoms: C14_40  and  O6_41
ROOT
HETATM    1  C4  UNL     1       2.921   1.622  22.512  1.00  0.00     0.294 C
HETATM    2  O2  UNL     1       3.521   0.632  23.273  1.00  0.00    -0.324 OA
HETATM    3  C5  UNL     1       4.359   1.147  24.261  1.00  0.00     0.357 C
HETATM    4  C10 UNL     1       3.569   1.807  25.372  1.00  0.00     0.241 C
HETATM    5  C11 UNL     1       2.219   2.214  24.754  1.00  0.00     0.075 C
HETATM    6  C12 UNL     1       2.587   2.820  23.394  1.00  0.00     0.240 C
ENDROOT
BRANCH   1   7
HETATM    7  O1  UNL     1       3.651   1.971  21.392  1.00  0.00    -0.341 OA
BRANCH   7   8
HETATM    8  C3  UNL     1       3.963   0.899  20.596  1.00  0.00     0.219 C
HETATM    9  S1  UNL     1       5.781   0.675  20.414  1.00  0.00    -0.126 SA
HETATM   10  C2  UNL     1       5.841   0.459  18.612  1.00  0.00     0.106 C
HETATM   11  C14 UNL     1       4.379   0.270  18.288  1.00  0.00     0.167 C
HETATM   12  C13 UNL     1       3.621   1.228  19.163  1.00  0.00     0.252 C
BRANCH  10  13
HETATM   13  C1  UNL     1       6.670  -0.737  18.222  1.00  0.00     0.247 C
BRANCH  13  14
HETATM   14  N1  UNL     1       6.468  -0.999  16.817  1.00  0.00    -0.078 N
ATOM     15  H13 UNL     1       5.527  -1.333  16.613  1.00  0.00     0.274 HD
ATOM     16  H12 UNL     1       6.437  -0.144  16.261  1.00  0.00     0.274 HD
ATOM     17  H11 UNL     1       7.190  -1.646  16.499  1.00  0.00     0.274 HD
ENDBRANCH  13  14
ENDBRANCH  10  13
BRANCH  11  18
HETATM   18  O6  UNL     1       3.945  -1.044  18.445  1.00  0.00    -0.392 OA
ATOM     19  H6  UNL     1       3.068  -1.109  18.804  1.00  0.00     0.210 HD
ENDBRANCH  11  18
BRANCH  12  20
HETATM   20  N6  UNL     1       4.049   2.573  18.819  1.00  0.00    -0.069 N
ATOM     21  H63 UNL     1       4.064   3.182  19.636  1.00  0.00     0.275 HD
ATOM     22  H62 UNL     1       5.041   2.602  18.583  1.00  0.00     0.275 HD
ATOM     23  H61 UNL     1       3.474   2.962  18.071  1.00  0.00     0.275 HD
ENDBRANCH  12  20
ENDBRANCH   7   8
ENDBRANCH   1   7
BRANCH   6  24
HETATM   24  N5  UNL     1       1.523   3.624  22.866  1.00  0.00    -0.070 N
ATOM     25  H53 UNL     1       1.795   4.054  21.982  1.00  0.00     0.274 HD
ATOM     26  H52 UNL     1       0.754   3.039  22.536  1.00  0.00     0.274 HD
ATOM     27  H51 UNL     1       1.189   4.326  23.526  1.00  0.00     0.274 HD
ENDBRANCH   6  24
BRANCH   3  28
HETATM   28  N2  UNL     1       5.139   0.086  24.828  1.00  0.00    -0.017 N
ATOM     29  H22 UNL     1       4.833  -0.125  25.778  1.00  0.00     0.283 HD
ATOM     30  H21 UNL     1       4.922  -0.805  24.383  1.00  0.00     0.283 HD
BRANCH  28  31
HETATM   31  C6  UNL     1       6.548   0.350  24.789  1.00  0.00     0.364 C
HETATM   32  O3  UNL     1       6.981   0.988  23.634  1.00  0.00    -0.332 OA
HETATM   33  C7  UNL     1       8.246   1.451  24.053  1.00  0.00     0.342 C
HETATM   34  O4  UNL     1       7.863   2.190  25.176  1.00  0.00    -0.348 OA
HETATM   35  C8  UNL     1       6.993   1.334  25.853  1.00  0.00     0.269 C
BRANCH  35  36
HETATM   36  C9  UNL     1       7.797   0.648  26.897  1.00  0.00     0.264 C
HETATM   37  N3  UNL     1       7.455  -0.673  27.308  1.00  0.00    -0.060 NA
HETATM   38  O5  UNL     1       8.785   1.188  27.447  1.00  0.00    -0.274 OA
ENDBRANCH  35  36
ENDBRANCH  28  31
ENDBRANCH   3  28
BRANCH   4  39
HETATM   39  N4  UNL     1       4.167   3.064  25.778  1.00  0.00    -0.071 N
ATOM     40  H43 UNL     1       5.182   2.989  25.849  1.00  0.00     0.274 HD
ATOM     41  H42 UNL     1       4.111   3.761  25.035  1.00  0.00     0.274 HD
ATOM     42  H41 UNL     1       3.758   3.412  26.646  1.00  0.00     0.274 HD
ENDBRANCH   4  39
TORSDOF 11
ENDMDL