MODEL 1
REMARK VINA RESULT: -9.852453669      0.000      0.000
REMARK  10 active torsions:
REMARK  status: ('A' for Active; 'I' for Inactive)
REMARK    1  A    between atoms: C2_3  and  C3_4
REMARK    2  A    between atoms: C3_4  and  O1_5
REMARK    3  A    between atoms: C3_4  and  N2_7
REMARK    4  A    between atoms: N2_7  and  C4_9
REMARK    5  A    between atoms: C4_9  and  C5_10
REMARK    6  A    between atoms: C4_9  and  C6_13
REMARK       I    between atoms: C6_13  and  N3_15
REMARK       I    between atoms: N3_15  and  C7_17
REMARK       I    between atoms: C7_17  and  N4_19
REMARK    7  A    between atoms: N5_21  and  N6_23
REMARK    8  A    between atoms: C10_33  and  N9_34
REMARK    9  A    between atoms: N9_34  and  O7_36
REMARK   10  A    between atoms: O7_36  and  N10_37
ROOT
HETATM    1  C3  UNL     1       3.259   1.664  21.385  1.00  0.00     0.284 C
ENDROOT
BRANCH   1   2
HETATM    2  C2  UNL     1       4.620   1.241  20.850  1.00  0.00     0.137 A
HETATM    3  N1  UNL     1       4.800   1.138  19.527  1.00  0.00    -0.321 N
HETATM    4  C1  UNL     1       3.862   1.517  18.506  1.00  0.00     0.159 C
HETATM    5  C11 UNL     1       6.013   0.650  19.125  1.00  0.00     0.157 A
HETATM    6  C9  UNL     1       6.986   0.293  20.011  1.00  0.00     0.161 A
HETATM    7  N11 UNL     1       6.518   0.366  17.903  1.00  0.00    -0.172 N
HETATM    8  C8  UNL     1       6.750   0.424  21.384  1.00  0.00     0.278 A
HETATM    9  N8  UNL     1       8.073  -0.201  19.359  1.00  0.00    -0.181 N
HETATM   10  N7  UNL     1       5.570   0.894  21.764  1.00  0.00    -0.307 N
HETATM   11  O6  UNL     1       7.676   0.094  22.186  1.00  0.00    -0.265 OA
ATOM     12  H7  UNL     1       5.369   0.997  22.759  1.00  0.00     0.170 HD
HETATM   13  C10 UNL     1       7.750  -0.143  18.056  1.00  0.00     0.706 A
ATOM     14  H8  UNL     1       8.942  -0.542  19.769  1.00  0.00     0.184 HD
ATOM     15  H11 UNL     1       6.042   0.514  17.013  1.00  0.00     0.186 HD
BRANCH  13  16
HETATM   16  N9  UNL     1       8.523  -0.545  17.111  1.00  0.00    -0.072 N
ATOM     17  H9  UNL     1       8.701  -1.548  17.063  1.00  0.00     0.215 HD
BRANCH  16  18
HETATM   18  O7  UNL     1       9.127   0.227  16.171  1.00  0.00    -0.149 OA
BRANCH  18  19
HETATM   19  N10 UNL     1      10.140   1.119  16.496  1.00  0.00    -0.286 N
ATOM     20 2H10 UNL     1      10.311   1.313  17.483  1.00  0.00     0.186 HD
ATOM     21 1H10 UNL     1      10.706   1.575  15.780  1.00  0.00     0.186 HD
ENDBRANCH  18  19
ENDBRANCH  16  18
ENDBRANCH  13  16
ENDBRANCH   1   2
BRANCH   1  22
HETATM   22  O1  UNL     1       2.521   0.474  21.531  1.00  0.00    -0.370 OA
ATOM     23  H1  UNL     1       2.073   0.550  22.365  1.00  0.00     0.212 HD
ENDBRANCH   1  22
BRANCH   1  24
HETATM   24  N2  UNL     1       3.432   2.351  22.573  1.00  0.00    -0.370 N
ATOM     25  H2  UNL     1       3.931   3.237  22.493  1.00  0.00     0.157 HD
BRANCH  24  26
HETATM   26  C4  UNL     1       3.035   2.022  23.839  1.00  0.00     0.274 C
BRANCH  26  27
HETATM   27  C5  UNL     1       1.932   2.950  24.306  1.00  0.00     0.206 C
HETATM   28  O2  UNL     1       0.982   2.548  24.977  1.00  0.00    -0.646 OA
HETATM   29  O3  UNL     1       1.994   4.307  23.968  1.00  0.00    -0.646 OA
ENDBRANCH  26  27
BRANCH  26  30
HETATM   30  C6  UNL     1       4.056   1.969  24.931  1.00  0.00     0.258 C
HETATM   31  O4  UNL     1       4.132   2.873  25.771  1.00  0.00    -0.270 OA
HETATM   32  N3  UNL     1       4.904   0.839  24.921  1.00  0.00    -0.276 N
HETATM   33  C7  UNL     1       6.114   0.661  25.587  1.00  0.00     0.342 C
ATOM     34  H3  UNL     1       4.589   0.053  24.353  1.00  0.00     0.173 HD
HETATM   35  O5  UNL     1       6.644  -0.463  25.709  1.00  0.00    -0.245 OA
HETATM   36  N4  UNL     1       6.854   1.803  26.160  1.00  0.00    -0.237 N
HETATM   37  N5  UNL     1       7.783   2.208  25.454  1.00  0.00    -0.245 N
ATOM     38  H4  UNL     1       6.619   2.222  27.060  1.00  0.00     0.193 HD
ATOM     39  H5  UNL     1       7.766   1.599  24.635  1.00  0.00     0.208 HD
BRANCH  37  40
HETATM   40  N6  UNL     1       8.763   3.016  25.236  1.00  0.00    -0.331 N
ATOM     41  H62 UNL     1       8.341   3.925  25.422  1.00  0.00     0.178 HD
ATOM     42  H61 UNL     1       9.734   3.190  24.974  1.00  0.00     0.178 HD
ENDBRANCH  37  40
ENDBRANCH  26  30
ENDBRANCH  24  26
ENDBRANCH   1  24
TORSDOF 10
ENDMDL