MODEL 5
REMARK VINA RESULT: -8.747812000      3.096      4.486
REMARK  10 active torsions:
REMARK  status: ('A' for Active; 'I' for Inactive)
REMARK    1  A    between atoms: C2_5  and  S1_6
REMARK    2  A    between atoms: S1_6  and  C3_7
REMARK    3  A    between atoms: C3_7  and  O1_8
REMARK    4  A    between atoms: C3_7  and  C4_10
REMARK    5  A    between atoms: C3_7  and  C5_13
REMARK    6  A    between atoms: C5_13  and  C6_15
REMARK    7  A    between atoms: C6_15  and  N3_16
REMARK    8  A    between atoms: C9_23  and  N6_24
REMARK    9  A    between atoms: C12_32  and  N9_33
REMARK   10  A    between atoms: C13_36  and  N10_37
ROOT
HETATM    1  C3  UNL     1       2.260   1.555  21.996  1.00  0.00     0.265 C
ENDROOT
BRANCH   1   2
HETATM    2  S1  UNL     1       2.756   0.133  23.022  1.00  0.00    -0.035 SA
BRANCH   2   3
HETATM    3  C2  UNL     1       1.465  -0.401  24.103  1.00  0.00     0.164 A
HETATM    4  N2  UNL     1       0.293   0.250  24.237  1.00  0.00    -0.276 N
HETATM    5  N1  UNL     1      -0.680  -0.140  25.044  1.00  0.00    -0.276 N
ATOM      6  H2  UNL     1       0.147   1.094  23.683  1.00  0.00     0.189 HD
HETATM    7  C1  UNL     1      -1.917   0.648  25.111  1.00  0.00     0.179 C
HETATM    8  C13 UNL     1      -0.545  -1.245  25.799  1.00  0.00     0.160 A
HETATM    9  C12 UNL     1       0.639  -1.938  25.691  1.00  0.00     0.146 A
HETATM   10  N8  UNL     1       1.614  -1.522  24.863  1.00  0.00    -0.319 N
ATOM     11  H8  UNL     1       2.481  -2.056  24.802  1.00  0.00     0.169 HD
BRANCH   8  12
HETATM   12  N10 UNL     1      -1.471  -1.660  26.599  1.00  0.00    -0.381 N
ATOM     13 2H10 UNL     1      -2.401  -1.241  26.570  1.00  0.00     0.157 HD
ATOM     14 1H10 UNL     1      -1.319  -2.404  27.279  1.00  0.00     0.157 HD
ENDBRANCH   8  12
BRANCH   9  15
HETATM   15  N9  UNL     1       0.757  -3.012  26.431  1.00  0.00    -0.382 N
ATOM     16  H92 UNL     1       1.623  -3.541  26.330  1.00  0.00     0.157 HD
ATOM     17  H91 UNL     1       0.029  -3.313  27.079  1.00  0.00     0.157 HD
ENDBRANCH   9  15
ENDBRANCH   2   3
ENDBRANCH   1   2
BRANCH   1  18
HETATM   18  O1  UNL     1       1.062   1.266  21.322  1.00  0.00    -0.364 OA
ATOM     19  H1  UNL     1       0.884   1.938  20.674  1.00  0.00     0.212 HD
ENDBRANCH   1  18
BRANCH   1  20
HETATM   20  C4  UNL     1       2.025   2.745  22.846  1.00  0.00     0.229 C
HETATM   21  O2  UNL     1       2.763   3.091  23.791  1.00  0.00    -0.645 OA
HETATM   22  O3  UNL     1       0.915   3.576  22.617  1.00  0.00    -0.645 OA
ENDBRANCH   1  20
BRANCH   1  23
HETATM   23  C5  UNL     1       3.362   1.785  21.024  1.00  0.00     0.202 C
HETATM   24  O4  UNL     1       3.169   2.532  20.075  1.00  0.00    -0.291 OA
BRANCH  23  25
HETATM   25  C6  UNL     1       4.656   1.094  21.246  1.00  0.00     0.234 C
BRANCH  25  26
HETATM   26  N3  UNL     1       5.081   0.436  20.002  1.00  0.00    -0.265 N
HETATM   27  C7  UNL     1       4.516   0.036  18.861  1.00  0.00     0.156 A
HETATM   28  N4  UNL     1       3.458  -0.108  18.050  1.00  0.00    -0.335 N
HETATM   29  C10 UNL     1       5.733  -0.435  18.395  1.00  0.00     0.140 A
HETATM   30  C8  UNL     1       3.577  -0.685  16.840  1.00  0.00     0.183 A
ATOM     31  H4  UNL     1       2.545   0.227  18.357  1.00  0.00     0.168 HD
HETATM   32  N5  UNL     1       4.765  -1.143  16.389  1.00  0.00    -0.337 N
HETATM   33  C9  UNL     1       5.856  -1.025  17.157  1.00  0.00     0.132 A
ATOM     34  H5  UNL     1       4.831  -1.576  15.468  1.00  0.00     0.168 HD
HETATM   35  N7  UNL     1       6.233  -0.005  19.570  1.00  0.00    -0.285 N
HETATM   36  C11 UNL     1       7.606  -0.062  20.086  1.00  0.00     0.178 C
BRANCH  33  37
HETATM   37  N6  UNL     1       6.989  -1.458  16.734  1.00  0.00    -0.383 N
ATOM     38  H62 UNL     1       7.645  -1.926  17.360  1.00  0.00     0.157 HD
ATOM     39  H61 UNL     1       7.249  -1.338  15.755  1.00  0.00     0.157 HD
ENDBRANCH  33  37
ENDBRANCH  25  26
ENDBRANCH  23  25
ENDBRANCH   1  23
TORSDOF 10
ENDMDL