MODEL 3
REMARK VINA RESULT: -9.451529896      1.617      2.692
REMARK  9 active torsions:
REMARK  status: ('A' for Active; 'I' for Inactive)
REMARK    1  A    between atoms: N1_1  and  C1_4
REMARK    2  A    between atoms: N7_18  and  N8_19
REMARK       I    between atoms: N8_19  and  C8_21
REMARK       I    between atoms: C8_21  and  N9_23
REMARK    3  A    between atoms: N9_23  and  S1_25
REMARK    4  A    between atoms: S1_25  and  O4_28
REMARK    5  A    between atoms: O4_28  and  C9_29
REMARK    6  A    between atoms: C9_29  and  C10_30
REMARK    7  A    between atoms: C10_30  and  O5_31
REMARK    8  A    between atoms: C10_30  and  C11_33
REMARK    9  A    between atoms: C11_33  and  N10_34
ROOT
HETATM    1  N8  UNL     1       3.661   2.052  21.734  1.00  0.00    -0.242 N
ATOM      2  H8  UNL     1       4.087   2.896  22.118  1.00  0.00     0.192 HD
HETATM    3  C8  UNL     1       3.852   1.814  20.373  1.00  0.00     0.350 C
HETATM    4  O1  UNL     1       3.416   0.846  19.717  1.00  0.00    -0.244 OA
HETATM    5  N9  UNL     1       4.632   2.754  19.577  1.00  0.00    -0.212 N
ATOM      6  H9  UNL     1       5.034   3.582  20.016  1.00  0.00     0.185 HD
ENDROOT
BRANCH   1   7
HETATM    7  N7  UNL     1       2.955   1.262  22.609  1.00  0.00    -0.230 N
HETATM    8  C1  UNL     1       1.636   1.611  22.842  1.00  0.00     0.151 A
HETATM    9  C2  UNL     1       0.819   0.915  23.686  1.00  0.00     0.108 A
HETATM   10  N2  UNL     1      -0.475   1.275  23.897  1.00  0.00    -0.338 N
HETATM   11  C6  UNL     1       1.343  -0.186  24.332  1.00  0.00     0.090 A
HETATM   12  C3  UNL     1      -1.304   0.613  24.719  1.00  0.00     0.143 A
ATOM     13  H2  UNL     1      -0.835   2.094  23.405  1.00  0.00     0.167 HD
HETATM   14  N3  UNL     1      -2.655   1.011  24.922  1.00  0.00    -0.081 NA
HETATM   15  C4  UNL     1      -0.809  -0.501  25.386  1.00  0.00     0.114 A
HETATM   16  N4  UNL     1      -1.676  -1.225  26.267  1.00  0.00    -0.097 NA
HETATM   17  C5  UNL     1       0.511  -0.883  25.179  1.00  0.00     0.103 A
HETATM   18  N5  UNL     1       1.028  -2.005  25.845  1.00  0.00    -0.098 NA
HETATM   19  N6  UNL     1       2.613  -0.506  24.095  1.00  0.00    -0.347 N
HETATM   20  C7  UNL     1       3.427   0.195  23.249  1.00  0.00     0.209 A
ATOM     21  H6  UNL     1       3.001  -1.320  24.572  1.00  0.00     0.167 HD
BRANCH   8  22
HETATM   22  N1  UNL     1       1.128   2.647  22.240  1.00  0.00    -0.382 N
ATOM     23  H12 UNL     1       1.427   2.875  21.292  1.00  0.00     0.157 HD
ATOM     24  H11 UNL     1       0.440   3.196  22.755  1.00  0.00     0.157 HD
ENDBRANCH   8  22
ENDBRANCH   1   7
BRANCH   5  25
HETATM   25  S1  UNL     1       4.871   2.475  17.920  1.00  0.00     0.365 S
HETATM   26  O2  UNL     1       5.553   3.681  17.286  1.00  0.00    -0.175 OA
HETATM   27  O3  UNL     1       3.583   2.265  17.215  1.00  0.00    -0.175 OA
BRANCH  25  28
HETATM   28  O4  UNL     1       5.887   1.168  17.627  1.00  0.00    -0.257 OA
BRANCH  28  29
HETATM   29  C9  UNL     1       6.784   0.990  18.683  1.00  0.00     0.225 C
BRANCH  29  30
HETATM   30  C10 UNL     1       7.475  -0.353  18.632  1.00  0.00     0.168 C
BRANCH  30  31
HETATM   31  O5  UNL     1       8.395  -0.506  19.649  1.00  0.00    -0.392 OA
ATOM     32  H5  UNL     1       9.210  -0.887  19.343  1.00  0.00     0.210 HD
ENDBRANCH  30  31
BRANCH  30  33
HETATM   33  C11 UNL     1       8.166  -0.458  17.269  1.00  0.00     0.263 C
BRANCH  33  34
HETATM   34  N10 UNL     1       8.924   0.743  16.987  1.00  0.00    -0.077 N
ATOM     35 3H10 UNL     1       9.383   1.105  17.823  1.00  0.00     0.274 HD
ATOM     36 2H10 UNL     1       9.754   0.545  16.431  1.00  0.00     0.274 HD
ATOM     37 1H10 UNL     1       8.331   1.446  16.546  1.00  0.00     0.274 HD
ENDBRANCH  33  34
ENDBRANCH  30  33
ENDBRANCH  29  30
ENDBRANCH  28  29
ENDBRANCH  25  28
ENDBRANCH   5  25
TORSDOF 9
ENDMDL