MODEL 1
REMARK VINA RESULT: -9.675591221      0.000      0.000
REMARK  12 active torsions:
REMARK  status: ('A' for Active; 'I' for Inactive)
REMARK    1  A    between atoms: N1_1  and  C1_4
REMARK    2  A    between atoms: C5_14  and  C6_15
REMARK    3  A    between atoms: N6_18  and  C7_19
REMARK    4  A    between atoms: C7_19  and  N7_20
REMARK    5  A    between atoms: N7_20  and  O1_21
REMARK    6  A    between atoms: N9_25  and  C8_26
REMARK    7  A    between atoms: C8_26  and  N10_27
REMARK    8  A    between atoms: C12_32  and  O3_33
REMARK    9  A    between atoms: C12_32  and  C13_35
REMARK   10  A    between atoms: C13_35  and  O4_36
REMARK   11  A    between atoms: C13_35  and  C14_38
REMARK   12  A    between atoms: C14_38  and  O5_39
ROOT
HETATM    1  C1  UNL     1       6.091   0.467  24.660  1.00  0.00     0.131 A
HETATM    2  N2  UNL     1       7.181   0.453  23.882  1.00  0.00    -0.337 N
ATOM      3  H2  UNL     1       8.110   0.330  24.286  1.00  0.00     0.168 HD
HETATM    4  C2  UNL     1       7.022   0.604  22.557  1.00  0.00     0.183 A
HETATM    5  N3  UNL     1       5.834   0.768  21.976  1.00  0.00    -0.336 N
ATOM      6  H3  UNL     1       5.769   0.879  20.964  1.00  0.00     0.168 HD
HETATM    7  C3  UNL     1       4.728   0.787  22.729  1.00  0.00     0.146 A
HETATM    8  C4  UNL     1       4.829   0.636  24.094  1.00  0.00     0.123 A
HETATM    9  N4  UNL     1       3.593   0.692  24.598  1.00  0.00    -0.333 N
ATOM     10  H4  UNL     1       3.357   0.609  25.588  1.00  0.00     0.168 HD
HETATM   11  C5  UNL     1       2.692   0.876  23.591  1.00  0.00     0.162 A
HETATM   12  N9  UNL     1       3.389   0.930  22.468  1.00  0.00    -0.279 N
ENDROOT
BRANCH  12  13
HETATM   13  C8  UNL     1       2.917   1.135  21.109  1.00  0.00     0.165 C
BRANCH  13  14
HETATM   14  N10 UNL     1       3.688   0.511  20.129  1.00  0.00    -0.238 NA
HETATM   15  C9  UNL     1       3.193  -0.463  19.220  1.00  0.00     0.144 C
HETATM   16  C10 UNL     1       4.301  -0.015  18.294  1.00  0.00     0.142 A
HETATM   17  C11 UNL     1       5.119  -0.671  17.487  1.00  0.00     0.213 A
HETATM   18  O2  UNL     1       5.571  -0.647  18.811  1.00  0.00    -0.369 OA
HETATM   19  C12 UNL     1       4.116   1.277  18.959  1.00  0.00     0.182 C
BRANCH  19  20
HETATM   20  O3  UNL     1       3.033   1.982  18.440  1.00  0.00    -0.369 OA
ATOM     21  H3  UNL     1       3.082   2.890  18.714  1.00  0.00     0.212 HD
ENDBRANCH  19  20
BRANCH  19  22
HETATM   22  C13 UNL     1       5.293   2.169  19.211  1.00  0.00     0.195 C
BRANCH  22  23
HETATM   23  O4  UNL     1       6.524   1.585  19.057  1.00  0.00    -0.389 OA
ATOM     24  H4  UNL     1       7.009   1.431  19.859  1.00  0.00     0.210 HD
ENDBRANCH  22  23
BRANCH  22  25
HETATM   25  C14 UNL     1       5.245   3.468  18.496  1.00  0.00     0.200 C
BRANCH  25  26
HETATM   26  O5  UNL     1       5.584   3.443  17.164  1.00  0.00    -0.398 OA
ATOM     27  H5  UNL     1       4.878   3.600  16.547  1.00  0.00     0.209 HD
ENDBRANCH  25  26
ENDBRANCH  22  25
ENDBRANCH  19  22
ENDBRANCH  13  14
ENDBRANCH  12  13
BRANCH  11  28
HETATM   28  C6  UNL     1       1.237   1.019  23.781  1.00  0.00     0.183 A
HETATM   29  N5  UNL     1       0.479   1.836  24.572  1.00  0.00    -0.263 N
HETATM   30  N6  UNL     1      -0.640   1.309  24.122  1.00  0.00    -0.214 N
ATOM     31  H5  UNL     1       0.696   2.568  25.249  1.00  0.00     0.190 HD
HETATM   32  N8  UNL     1       0.085   0.517  23.356  1.00  0.00    -0.263 N
ATOM     33  H8  UNL     1      -0.153  -0.212  22.684  1.00  0.00     0.190 HD
BRANCH  30  34
HETATM   34  C7  UNL     1      -2.081   1.501  24.355  1.00  0.00     0.311 C
BRANCH  34  35
HETATM   35  N7  UNL     1      -2.553   0.292  24.980  1.00  0.00    -0.081 NA
BRANCH  35  36
HETATM   36  O1  UNL     1      -1.810   0.008  26.058  1.00  0.00    -0.294 OA
ATOM     37  H1  UNL     1      -2.298  -0.545  26.656  1.00  0.00     0.238 HD
ENDBRANCH  35  36
ENDBRANCH  34  35
ENDBRANCH  30  34
ENDBRANCH  11  28
BRANCH   1  38
HETATM   38  N1  UNL     1       6.222   0.324  25.922  1.00  0.00    -0.383 N
ATOM     39  H12 UNL     1       7.137   0.421  26.362  1.00  0.00     0.157 HD
ATOM     40  H11 UNL     1       5.401   0.112  26.489  1.00  0.00     0.157 HD
ENDBRANCH   1  38
TORSDOF 12
ENDMDL