MODEL 2
REMARK VINA RESULT: -10.563906749      1.128      2.096
REMARK  10 active torsions:
REMARK  status: ('A' for Active; 'I' for Inactive)
REMARK    1  A    between atoms: C2_7  and  O1_8
REMARK    2  A    between atoms: O1_8  and  C3_9
REMARK    3  A    between atoms: C6_16  and  O2_17
REMARK    4  A    between atoms: O2_17  and  C7_18
REMARK    5  A    between atoms: C7_18  and  C8_19
REMARK    6  A    between atoms: C7_18  and  C9_24
REMARK    7  A    between atoms: C8_19  and  N6_20
REMARK       I    between atoms: C9_24  and  N7_26
REMARK    8  A    between atoms: N7_26  and  N8_27
REMARK    9  A    between atoms: C10_30  and  N9_31
REMARK   10  A    between atoms: C12_39  and  N12_40
REMARK       I    between atoms: N12_40  and  C13_42
ROOT
HETATM    1  C3  UNL     1      -0.619  -3.520  27.464  1.00  0.00     0.233 A
HETATM    2  N4  UNL     1       0.481  -3.281  26.688  1.00  0.00    -0.305 N
ATOM      3  H4  UNL     1       1.286  -3.903  26.622  1.00  0.00     0.171 HD
HETATM    4  C4  UNL     1       0.361  -2.122  26.027  1.00  0.00     0.153 A
HETATM    5  N5  UNL     1       1.258  -1.584  25.181  1.00  0.00    -0.346 N
ATOM      6  H5  UNL     1       2.198  -1.973  25.247  1.00  0.00     0.167 HD
HETATM    7  C5  UNL     1       1.109  -0.621  24.269  1.00  0.00     0.130 C
HETATM    8  C6  UNL     1       0.293   0.536  24.453  1.00  0.00     0.129 C
HETATM    9  C10 UNL     1      -0.920   0.519  25.120  1.00  0.00     0.136 C
HETATM   10  N10 UNL     1      -1.389  -0.427  25.969  1.00  0.00    -0.324 N
ATOM     11  H10 UNL     1      -2.308  -0.211  26.356  1.00  0.00     0.169 HD
HETATM   12  C11 UNL     1      -0.883  -1.590  26.400  1.00  0.00     0.155 A
HETATM   13  N11 UNL     1      -1.426  -2.467  27.259  1.00  0.00    -0.305 N
ATOM     14  H11 UNL     1      -2.337  -2.348  27.702  1.00  0.00     0.171 HD
ENDROOT
BRANCH   1  15
HETATM   15  O1  UNL     1      -0.830  -4.619  28.278  1.00  0.00    -0.256 OA
BRANCH  15  16
HETATM   16  C2  UNL     1       0.041  -4.972  29.290  1.00  0.00     0.213 A
HETATM   17  N3  UNL     1       0.997  -5.950  29.150  1.00  0.00    -0.262 N
HETATM   18  N2  UNL     1       1.653  -6.042  30.283  1.00  0.00    -0.237 N
ATOM     19  H3  UNL     1       1.166  -6.507  28.313  1.00  0.00     0.190 HD
HETATM   20  N1  UNL     1       1.184  -5.179  31.157  1.00  0.00    -0.263 N
ATOM     21  H2  UNL     1       2.420  -6.691  30.460  1.00  0.00     0.208 HD
HETATM   22  C1  UNL     1       1.636  -4.970  32.512  1.00  0.00     0.181 C
HETATM   23  C12 UNL     1       0.166  -4.491  30.557  1.00  0.00     0.180 A
BRANCH  23  24
HETATM   24  N12 UNL     1      -0.584  -3.463  31.186  1.00  0.00    -0.292 N
HETATM   25  C13 UNL     1      -1.916  -3.431  31.585  1.00  0.00     0.334 C
HETATM   26  N13 UNL     1      -2.437  -2.238  32.196  1.00  0.00    -0.040 NA
HETATM   27  O4  UNL     1      -2.719  -4.359  31.461  1.00  0.00    -0.251 OA
ATOM     28  H12 UNL     1      -0.061  -2.609  31.377  1.00  0.00     0.172 HD
ENDBRANCH  23  24
ENDBRANCH  15  16
ENDBRANCH   1  15
BRANCH   9  29
HETATM   29  N9  UNL     1      -1.707   1.523  24.907  1.00  0.00    -0.383 N
ATOM     30  H92 UNL     1      -1.667   1.926  23.970  1.00  0.00     0.157 HD
ATOM     31  H91 UNL     1      -2.289   1.818  25.691  1.00  0.00     0.157 HD
ENDBRANCH   9  29
BRANCH   8  32
HETATM   32  O2  UNL     1       0.752   1.657  23.947  1.00  0.00    -0.328 OA
BRANCH  32  33
HETATM   33  C7  UNL     1       1.803   2.474  23.932  1.00  0.00     0.263 C
BRANCH  33  34
HETATM   34  C8  UNL     1       1.379   3.949  23.783  1.00  0.00     0.273 C
BRANCH  34  35
HETATM   35  N6  UNL     1       0.017   4.077  23.347  1.00  0.00    -0.076 N
ATOM     36  H63 UNL     1      -0.064   4.745  22.580  1.00  0.00     0.274 HD
ATOM     37  H62 UNL     1      -0.297   3.237  22.862  1.00  0.00     0.274 HD
ATOM     38  H61 UNL     1      -0.609   4.317  24.116  1.00  0.00     0.274 HD
ENDBRANCH  34  35
ENDBRANCH  33  34
BRANCH  33  39
HETATM   39  C9  UNL     1       2.699   2.235  22.708  1.00  0.00     0.342 C
HETATM   40  O3  UNL     1       2.252   2.403  21.580  1.00  0.00    -0.252 OA
HETATM   41  N7  UNL     1       4.025   1.825  23.041  1.00  0.00    -0.291 NA
BRANCH  41  42
HETATM   42  N8  UNL     1       5.180   1.467  23.331  1.00  0.00    -0.277 N
ATOM     43  H82 UNL     1       4.235   1.743  23.067  1.00  0.00     0.191 HD
ATOM     44  H81 UNL     1       6.128   1.173  23.569  1.00  0.00     0.191 HD
ENDBRANCH  41  42
ENDBRANCH  33  39
ENDBRANCH  32  33
ENDBRANCH   8  32
TORSDOF 10
ENDMDL