MODEL 5
REMARK VINA RESULT: -9.468375110      2.155      3.467
REMARK  9 active torsions:
REMARK  status: ('A' for Active; 'I' for Inactive)
REMARK    1  A    between atoms: N1_2  and  C3_4
REMARK    2  A    between atoms: N3_9  and  C6_10
REMARK    3  A    between atoms: C6_10  and  O1_11
REMARK    4  A    between atoms: C6_10  and  C7_13
REMARK    5  A    between atoms: C7_13  and  N4_14
REMARK    6  A    between atoms: C7_13  and  C9_21
REMARK    7  A    between atoms: N4_14  and  C8_16
REMARK    8  A    between atoms: C8_16  and  O2_17
REMARK    9  A    between atoms: C8_16  and  O3_19
ROOT
HETATM    1  C6  UNL     1       3.991   0.669  19.489  1.00  0.00     0.266 C
ENDROOT
BRANCH   1   2
HETATM    2  N3  UNL     1       4.053   1.055  20.882  1.00  0.00    -0.256 N
HETATM    3  C5  UNL     1       5.175   0.666  21.662  1.00  0.00     0.204 A
HETATM    4  N2  UNL     1       5.269   0.997  22.928  1.00  0.00    -0.346 N
HETATM    5  C4  UNL     1       4.246   1.758  23.559  1.00  0.00     0.108 A
ATOM      6  H2  UNL     1       6.085   0.706  23.466  1.00  0.00     0.167 HD
HETATM    7  C3  UNL     1       4.292   2.121  24.840  1.00  0.00     0.133 A
HETATM    8  C13 UNL     1       3.103   2.147  22.742  1.00  0.00     0.106 A
HETATM    9  N10 UNL     1       3.263   2.882  25.462  1.00  0.00    -0.328 N
HETATM   10  C15 UNL     1       2.150   3.259  24.663  1.00  0.00     0.144 A
ATOM     11  H10 UNL     1       3.321   3.146  26.445  1.00  0.00     0.168 HD
HETATM   12  C14 UNL     1       2.043   2.927  23.367  1.00  0.00     0.117 A
HETATM   13  N9  UNL     1       1.125   4.016  25.275  1.00  0.00    -0.081 NA
HETATM   14  N8  UNL     1       0.925   3.308  22.575  1.00  0.00    -0.096 NA
HETATM   15  N7  UNL     1       3.049   1.800  21.499  1.00  0.00    -0.291 N
ATOM     16  H7  UNL     1       2.240   2.083  20.946  1.00  0.00     0.187 HD
BRANCH   7  17
HETATM   17  N1  UNL     1       5.409   1.735  25.617  1.00  0.00    -0.374 N
HETATM   18  C1  UNL     1       6.771   1.725  25.122  1.00  0.00     0.150 C
HETATM   19  C2  UNL     1       5.234   1.307  27.012  1.00  0.00     0.150 C
ENDBRANCH   7  17
ENDBRANCH   1   2
BRANCH   1  20
HETATM   20  O1  UNL     1       3.588  -0.652  19.459  1.00  0.00    -0.373 OA
ATOM     21  H1  UNL     1       3.408  -0.864  18.549  1.00  0.00     0.212 HD
ENDBRANCH   1  20
BRANCH   1  22
HETATM   22  C7  UNL     1       5.339   0.812  18.878  1.00  0.00     0.171 C
BRANCH  22  23
HETATM   23  N4  UNL     1       5.392   1.858  17.887  1.00  0.00    -0.365 N
ATOM     24  H4  UNL     1       5.164   1.659  16.913  1.00  0.00     0.158 HD
BRANCH  23  25
HETATM   25  C8  UNL     1       5.758   3.143  18.278  1.00  0.00     0.361 C
BRANCH  25  26
HETATM   26  O2  UNL     1       6.724   3.309  19.224  1.00  0.00    -0.355 OA
ATOM     27  H2  UNL     1       7.439   2.685  19.279  1.00  0.00     0.214 HD
ENDBRANCH  25  26
BRANCH  25  28
HETATM   28  O3  UNL     1       4.615   3.839  18.739  1.00  0.00    -0.355 OA
ATOM     29  H3  UNL     1       4.762   4.775  18.660  1.00  0.00     0.214 HD
ENDBRANCH  25  28
ENDBRANCH  23  25
ENDBRANCH  22  23
BRANCH  22  30
HETATM   30  C9  UNL     1       5.967  -0.466  18.386  1.00  0.00     0.303 C
HETATM   31  N5  UNL     1       6.079  -0.357  16.912  1.00  0.00    -0.059 N
HETATM   32  C10 UNL     1       7.304  -0.958  16.421  1.00  0.00     0.253 C
ATOM     33  H52 UNL     1       5.259  -0.748  16.447  1.00  0.00     0.278 HD
ATOM     34  H51 UNL     1       5.990   0.611  16.602  1.00  0.00     0.278 HD
HETATM   35  C11 UNL     1       8.432   0.034  16.794  1.00  0.00     0.150 C
HETATM   36  N6  UNL     1       8.423  -0.045  18.272  1.00  0.00    -0.358 N
HETATM   37  C12 UNL     1       7.317  -0.741  18.895  1.00  0.00     0.250 C
ATOM     38  H6  UNL     1       9.167   0.375  18.830  1.00  0.00     0.162 HD
HETATM   39  O4  UNL     1       7.577  -1.545  19.834  1.00  0.00    -0.271 OA
ENDBRANCH  22  30
ENDBRANCH   1  22
TORSDOF 9
ENDMDL