MODEL 5
REMARK VINA RESULT: -8.771777854      1.391      2.837
REMARK  9 active torsions:
REMARK  status: ('A' for Active; 'I' for Inactive)
REMARK    1  A    between atoms: C2_2  and  C3_3
REMARK    2  A    between atoms: C4_4  and  N1_5
REMARK    3  A    between atoms: N2_8  and  C5_9
REMARK    4  A    between atoms: C5_9  and  C6_10
REMARK    5  A    between atoms: C5_9  and  C7_19
REMARK       I    between atoms: C6_10  and  N3_12
REMARK    6  A    between atoms: N3_12  and  N4_14
REMARK    7  A    between atoms: N4_14  and  N5_15
REMARK    8  A    between atoms: N5_15  and  N6_16
REMARK    9  A    between atoms: C12_33  and  C13_34
REMARK       I    between atoms: C13_34  and  N11_35
ROOT
HETATM    1  C3  UNL     1       4.118   0.944  20.765  1.00  0.00     0.000 A
HETATM    2  C4  UNL     1       3.026   0.936  21.699  1.00  0.00     0.109 A
HETATM    3  N2  UNL     1       3.135   0.839  23.015  1.00  0.00    -0.323 N
HETATM    4  C9  UNL     1       4.371   0.732  23.533  1.00  0.00     0.124 A
HETATM    5  C10 UNL     1       5.474   0.729  22.734  1.00  0.00     0.062 A
HETATM    6  N9  UNL     1       6.681   0.605  23.272  1.00  0.00    -0.350 N
ATOM      7  H9  UNL     1       6.754   0.522  24.286  1.00  0.00     0.166 HD
HETATM    8  C11 UNL     1       7.808   0.583  22.548  1.00  0.00     0.181 A
HETATM    9  N10 UNL     1       7.732   0.693  21.240  1.00  0.00    -0.347 N
ATOM     10  H10 UNL     1       8.589   0.680  20.687  1.00  0.00     0.167 HD
HETATM   11  C12 UNL     1       6.505   0.827  20.594  1.00  0.00     0.114 A
HETATM   12  C14 UNL     1       5.361   0.841  21.322  1.00  0.00     0.034 A
ENDROOT
BRANCH   3  13
HETATM   13  C5  UNL     1       2.035   0.861  23.959  1.00  0.00     0.231 C
BRANCH  13  14
HETATM   14  C6  UNL     1       1.492   2.162  24.317  1.00  0.00     0.261 C
HETATM   15  O1  UNL     1       1.629   2.763  25.435  1.00  0.00    -0.270 OA
HETATM   16  N3  UNL     1       0.734   2.868  23.343  1.00  0.00    -0.254 N
ATOM     17  H3  UNL     1       0.598   2.429  22.433  1.00  0.00     0.187 HD
BRANCH  16  18
HETATM   18  N4  UNL     1       0.167   4.122  23.555  1.00  0.00    -0.007 NA
BRANCH  18  19
HETATM   19  N5  UNL     1       1.023   5.053  24.096  1.00  0.00    -0.016 NA
BRANCH  19  20
HETATM   20  N6  UNL     1       0.448   6.295  24.319  1.00  0.00    -0.330 N
ATOM     21  H62 UNL     1       0.111   6.576  25.240  1.00  0.00     0.173 HD
ATOM     22  H61 UNL     1       0.395   6.888  23.491  1.00  0.00     0.173 HD
ENDBRANCH  19  20
ENDBRANCH  18  19
ENDBRANCH  16  18
ENDBRANCH  13  14
BRANCH  13  23
HETATM   23  C7  UNL     1       1.038  -0.188  23.576  1.00  0.00     0.278 C
HETATM   24  N7  UNL     1       1.132  -1.293  24.549  1.00  0.00    -0.101 NA
HETATM   25  N8  UNL     1       0.219  -0.938  25.557  1.00  0.00    -0.247 N
HETATM   26  C8  UNL     1      -0.727  -0.071  24.956  1.00  0.00     0.378 C
ATOM     27  H8  UNL     1       0.235  -1.243  26.530  1.00  0.00     0.188 HD
HETATM   28  O2  UNL     1      -1.779   0.337  25.514  1.00  0.00    -0.237 OA
HETATM   29  O3  UNL     1      -0.303   0.238  23.693  1.00  0.00    -0.277 OA
ENDBRANCH  13  23
ENDBRANCH   3  13
BRANCH   2  30
HETATM   30  N1  UNL     1       1.882   0.996  21.134  1.00  0.00    -0.385 N
ATOM     31  H12 UNL     1       1.778   0.826  20.133  1.00  0.00     0.157 HD
ATOM     32  H11 UNL     1       1.131   1.252  21.775  1.00  0.00     0.157 HD
ENDBRANCH   2  30
BRANCH   1  33
HETATM   33  C2  UNL     1       3.826   1.000  19.355  1.00  0.00     0.039 C
HETATM   34  C1  UNL     1       3.349  -0.354  18.791  1.00  0.00     0.010 C
ENDBRANCH   1  33
BRANCH  11  35
HETATM   35  C13 UNL     1       6.603   1.053  19.187  1.00  0.00     0.267 C
HETATM   36  N11 UNL     1       6.701   0.044  18.260  1.00  0.00    -0.365 N
ATOM     37 2H11 UNL     1       6.691  -0.921  18.591  1.00  0.00     0.159 HD
ATOM     38 1H11 UNL     1       6.770   0.205  17.254  1.00  0.00     0.159 HD
HETATM   39  O4  UNL     1       6.615   2.242  18.778  1.00  0.00    -0.266 OA
ENDBRANCH  11  35
TORSDOF 9
ENDMDL