MODEL 3
REMARK VINA RESULT: -9.780964158      2.976      6.577
REMARK  8 active torsions:
REMARK  status: ('A' for Active; 'I' for Inactive)
REMARK    1  A    between atoms: O1_2  and  C2_3
REMARK    2  A    between atoms: C2_3  and  O2_4
REMARK    3  A    between atoms: C2_3  and  C12_39
REMARK    4  A    between atoms: O2_4  and  C3_5
REMARK    5  A    between atoms: C7_17  and  N5_18
REMARK    6  A    between atoms: C8_23  and  N7_24
REMARK       I    between atoms: N7_24  and  C9_26
REMARK       I    between atoms: C9_26  and  N8_27
REMARK       I    between atoms: C9_26  and  N9_31
REMARK    7  A    between atoms: N9_31  and  N10_32
REMARK       I    between atoms: C12_39  and  N12_41
REMARK    8  A    between atoms: N12_41  and  C13_43
ROOT
HETATM    1  C13 UNL     1      10.001   0.161  16.603  1.00  0.00     0.247 C
HETATM    2  C14 UNL     1       9.847  -0.577  15.357  1.00  0.00     0.078 C
HETATM    3  N13 UNL     1       9.725  -1.184  14.370  1.00  0.00    -0.196 NA
ENDROOT
BRANCH   1   4
HETATM    4  N12 UNL     1       8.831   0.004  17.421  1.00  0.00    -0.345 N
HETATM    5  C12 UNL     1       8.780  -0.883  18.530  1.00  0.00     0.274 C
HETATM    6  O3  UNL     1       9.816  -1.549  18.789  1.00  0.00    -0.268 OA
ATOM      7  H12 UNL     1       8.001   0.552  17.195  1.00  0.00     0.163 HD
BRANCH   5   8
HETATM    8  C2  UNL     1       7.561  -1.034  19.365  1.00  0.00     0.360 C
BRANCH   8   9
HETATM    9  O1  UNL     1       7.850  -1.185  20.698  1.00  0.00    -0.357 OA
HETATM   10  C1  UNL     1       7.563  -0.071  21.471  1.00  0.00     0.205 C
ENDBRANCH   8   9
BRANCH   8  11
HETATM   11  O2  UNL     1       6.678   0.050  19.222  1.00  0.00    -0.293 OA
BRANCH  11  12
HETATM   12  C3  UNL     1       5.392  -0.116  18.711  1.00  0.00     0.177 A
HETATM   13  N1  UNL     1       5.254  -0.656  17.482  1.00  0.00    -0.331 N
HETATM   14  C4  UNL     1       4.004  -0.811  17.001  1.00  0.00     0.184 A
ATOM     15  H1  UNL     1       6.068  -0.938  16.935  1.00  0.00     0.168 HD
HETATM   16  N2  UNL     1       2.943  -0.437  17.734  1.00  0.00    -0.337 N
HETATM   17  C5  UNL     1       3.049   0.106  18.965  1.00  0.00     0.139 A
ATOM     18  H2  UNL     1       2.012  -0.569  17.341  1.00  0.00     0.168 HD
HETATM   19  N3  UNL     1       1.931   0.467  19.660  1.00  0.00    -0.324 N
HETATM   20  C11 UNL     1       4.312   0.275  19.477  1.00  0.00     0.129 A
HETATM   21  C6  UNL     1       2.103   1.005  20.888  1.00  0.00     0.153 A
ATOM     22  H3  UNL     1       0.999   0.336  19.267  1.00  0.00     0.169 HD
HETATM   23  N4  UNL     1       1.049   1.388  21.641  1.00  0.00    -0.174 N
HETATM   24  C10 UNL     1       3.374   1.175  21.406  1.00  0.00     0.123 A
HETATM   25  C7  UNL     1       1.241   1.921  22.858  1.00  0.00     0.679 A
ATOM     26  H4  UNL     1       0.101   1.272  21.282  1.00  0.00     0.186 HD
HETATM   27  N6  UNL     1       2.470   2.093  23.375  1.00  0.00    -0.175 N
HETATM   28  C8  UNL     1       3.550   1.730  22.674  1.00  0.00     0.150 A
ATOM     29  H6  UNL     1       2.579   2.501  24.304  1.00  0.00     0.186 HD
HETATM   30  N11 UNL     1       4.477   0.816  20.713  1.00  0.00    -0.344 N
ATOM     31  H11 UNL     1       5.409   0.948  21.108  1.00  0.00     0.166 HD
BRANCH  25  32
HETATM   32  N5  UNL     1       0.222   2.278  23.554  1.00  0.00    -0.234 N
ATOM     33  H52 UNL     1      -0.681   1.844  23.360  1.00  0.00     0.174 HD
ATOM     34  H51 UNL     1       0.339   2.984  24.281  1.00  0.00     0.174 HD
ENDBRANCH  25  32
BRANCH  28  35
HETATM   35  N7  UNL     1       4.757   1.868  23.108  1.00  0.00    -0.333 N
HETATM   36  C9  UNL     1       5.141   1.388  24.407  1.00  0.00     0.397 C
HETATM   37  N8  UNL     1       5.257  -0.037  24.497  1.00  0.00    -0.042 N
HETATM   38  N9  UNL     1       6.416   1.971  24.835  1.00  0.00    -0.093 NA
ATOM     39  H83 UNL     1       4.392  -0.485  24.193  1.00  0.00     0.278 HD
ATOM     40  H82 UNL     1       5.896  -0.389  23.784  1.00  0.00     0.278 HD
ATOM     41  H81 UNL     1       5.530  -0.378  25.420  1.00  0.00     0.278 HD
ATOM     42  H7  UNL     1       5.451   2.326  22.518  1.00  0.00     0.164 HD
BRANCH  38  43
HETATM   43  N10 UNL     1       6.782   1.501  26.096  1.00  0.00    -0.345 N
ATOM     44 2H10 UNL     1       6.899   0.513  26.319  1.00  0.00     0.172 HD
ATOM     45 1H10 UNL     1       6.910   2.273  26.750  1.00  0.00     0.172 HD
ENDBRANCH  38  43
ENDBRANCH  28  35
ENDBRANCH  11  12
ENDBRANCH   8  11
ENDBRANCH   5   8
ENDBRANCH   1   4
TORSDOF 8
ENDMDL