MODEL 2
REMARK VINA RESULT: -10.373260288      2.524      7.535
REMARK  7 active torsions:
REMARK  status: ('A' for Active; 'I' for Inactive)
REMARK    1  A    between atoms: C2_2  and  C3_4
REMARK    2  A    between atoms: C3_4  and  C4_6
REMARK    3  A    between atoms: C4_6  and  O3_7
REMARK    4  A    between atoms: C4_6  and  C5_9
REMARK    5  A    between atoms: C6_14  and  C7_15
REMARK    6  A    between atoms: N3_18  and  N4_19
REMARK    7  A    between atoms: N4_19  and  C8_21
ROOT
HETATM    1  C8  UNL     1       4.099   1.492  21.073  1.00  0.00     0.699 C
HETATM    2  N5  UNL     1       2.935   1.218  20.646  1.00  0.00    -0.199 N
ATOM      3  H5  UNL     1       2.872   1.124  19.632  1.00  0.00     0.183 HD
HETATM    4  C9  UNL     1       1.718   1.021  21.318  1.00  0.00     0.143 C
HETATM    5  C10 UNL     1       1.730   1.358  22.770  1.00  0.00     0.238 A
HETATM    6  N6  UNL     1       1.256   2.692  22.931  1.00  0.00    -0.325 N
ATOM      7  H6  UNL     1       1.769   3.404  22.410  1.00  0.00     0.165 HD
HETATM    8  C11 UNL     1       0.290   3.121  23.629  1.00  0.00     0.205 A
HETATM    9  N7  UNL     1      -0.069   4.485  23.693  1.00  0.00    -0.063 NA
HETATM   10  N8  UNL     1      -0.473   2.179  24.387  1.00  0.00    -0.164 N
ATOM     11  H8  UNL     1      -1.259   2.484  24.961  1.00  0.00     0.187 HD
HETATM   12  C12 UNL     1      -0.111   0.807  24.321  1.00  0.00     0.676 A
HETATM   13  N9  UNL     1      -0.837  -0.011  25.029  1.00  0.00    -0.235 N
ATOM     14  H91 UNL     1      -0.577  -0.996  24.982  1.00  0.00     0.174 HD
ATOM     15  H92 UNL     1      -1.620   0.309  25.599  1.00  0.00     0.174 HD
HETATM   16  N10 UNL     1       0.973   0.365  23.533  1.00  0.00    -0.185 N
ATOM     17  H10 UNL     1       1.222  -0.624  23.495  1.00  0.00     0.181 HD
HETATM   18  C13 UNL     1       3.103   1.307  23.317  1.00  0.00     0.291 C
HETATM   19  O6  UNL     1       3.253   1.039  24.533  1.00  0.00    -0.267 OA
HETATM   20  N11 UNL     1       4.230   1.550  22.514  1.00  0.00    -0.154 N
ATOM     21  H11 UNL     1       5.130   1.766  22.942  1.00  0.00     0.187 HD
ENDROOT
BRANCH   1  22
HETATM   22  N4  UNL     1       5.252   1.667  20.297  1.00  0.00    -0.122 N
ATOM     23  H4  UNL     1       5.315   2.612  19.918  1.00  0.00     0.206 HD
BRANCH  22  24
HETATM   24  N3  UNL     1       6.316   0.897  19.918  1.00  0.00    -0.201 N
HETATM   25  C5  UNL     1       6.544   0.619  18.573  1.00  0.00     0.157 A
HETATM   26  N1  UNL     1       7.634  -0.161  18.557  1.00  0.00    -0.283 N
HETATM   27  N2  UNL     1       8.061  -0.363  19.756  1.00  0.00    -0.277 N
ATOM     28  H1  UNL     1       8.066  -0.542  17.715  1.00  0.00     0.188 HD
HETATM   29  C6  UNL     1       7.248   0.297  20.668  1.00  0.00     0.222 A
ATOM     30  H2  UNL     1       8.876  -0.924  19.999  1.00  0.00     0.189 HD
BRANCH  25  31
HETATM   31  C4  UNL     1       5.762   1.074  17.395  1.00  0.00     0.266 C
BRANCH  31  32
HETATM   32  C3  UNL     1       4.310   0.703  17.499  1.00  0.00     0.230 C
HETATM   33  O2  UNL     1       3.414   1.601  17.465  1.00  0.00    -0.286 OA
BRANCH  32  34
HETATM   34  C2  UNL     1       3.878  -0.669  17.640  1.00  0.00     0.194 C
HETATM   35  C1  UNL     1       3.978  -1.612  16.493  1.00  0.00     0.100 C
HETATM   36  O1  UNL     1       3.404  -1.137  18.711  1.00  0.00    -0.290 OA
ENDBRANCH  32  34
ENDBRANCH  31  32
BRANCH  31  37
HETATM   37  O3  UNL     1       5.903   2.411  17.122  1.00  0.00    -0.380 OA
ATOM     38  H3  UNL     1       6.820   2.637  17.016  1.00  0.00     0.211 HD
ENDBRANCH  31  37
ENDBRANCH  25  31
BRANCH  29  39
HETATM   39  C7  UNL     1       7.500   0.234  22.092  1.00  0.00     0.248 C
HETATM   40  O4  UNL     1       8.399   0.697  22.777  1.00  0.00    -0.642 OA
HETATM   41  O5  UNL     1       6.534  -0.498  22.852  1.00  0.00    -0.642 OA
ENDBRANCH  29  39
ENDBRANCH  22  24
ENDBRANCH   1  22
TORSDOF 7
ENDMDL