MODEL 5
REMARK VINA RESULT: -10.391640314      3.449      5.948
REMARK  14 active torsions:
REMARK  status: ('A' for Active; 'I' for Inactive)
REMARK    1  A    between atoms: N1_1  and  C1_4
REMARK    2  A    between atoms: N4_13  and  C6_14
REMARK    3  A    between atoms: C6_14  and  C7_15
REMARK    4  A    between atoms: C7_15  and  O1_16
REMARK    5  A    between atoms: C7_15  and  C8_18
REMARK    6  A    between atoms: C8_18  and  N5_19
REMARK    7  A    between atoms: C10_21  and  C11_22
REMARK    8  A    between atoms: C12_27  and  C13_28
REMARK    9  A    between atoms: C13_28  and  O2_29
REMARK   10  A    between atoms: C13_28  and  N8_31
REMARK       I    between atoms: N8_31  and  C14_33
REMARK       I    between atoms: C14_33  and  N9_34
REMARK       I    between atoms: C14_33  and  N10_38
REMARK   11  A    between atoms: N10_38  and  C15_40
REMARK   12  A    between atoms: C16_43  and  O3_44
REMARK   13  A    between atoms: C17_46  and  C18_47
REMARK   14  A    between atoms: C18_47  and  C19_48
ROOT
HETATM    1  C11 UNL     1      10.392  49.060   2.440  1.00  0.00     0.194 A
HETATM    2  N6  UNL     1      11.463  48.364   2.039  1.00  0.00    -0.276 N
ATOM      3  H6  UNL     1      12.176  47.985   2.662  1.00  0.00     0.189 HD
HETATM    4  N7  UNL     1      11.468  48.234   0.728  1.00  0.00    -0.278 N
ATOM      5  H7  UNL     1      12.168  47.749   0.167  1.00  0.00     0.189 HD
HETATM    6  C12 UNL     1      10.370  48.864   0.273  1.00  0.00     0.189 A
HETATM    7  O5  UNL     1       9.757  49.343   1.331  1.00  0.00    -0.271 OA
ENDROOT
BRANCH   6   8
HETATM    8  C13 UNL     1       9.940  48.988  -1.148  1.00  0.00     0.294 C
BRANCH   8   9
HETATM    9  O2  UNL     1       8.761  49.772  -1.213  1.00  0.00    -0.369 OA
ATOM     10  H2  UNL     1       8.920  50.611  -0.796  1.00  0.00     0.212 HD
ENDBRANCH   8   9
BRANCH   8  11
HETATM   11  N8  UNL     1       9.658  47.770  -1.809  1.00  0.00    -0.347 N
HETATM   12  C14 UNL     1       8.492  47.722  -2.628  1.00  0.00     0.399 C
HETATM   13  N9  UNL     1       8.497  48.602  -3.768  1.00  0.00    -0.040 N
HETATM   14  N10 UNL     1       8.117  46.385  -2.923  1.00  0.00    -0.180 N
ATOM     15  H93 UNL     1       8.673  49.560  -3.467  1.00  0.00     0.279 HD
ATOM     16  H92 UNL     1       9.329  48.434  -4.334  1.00  0.00     0.279 HD
ATOM     17  H91 UNL     1       7.663  48.567  -4.355  1.00  0.00     0.279 HD
ATOM     18  H10 UNL     1       7.205  46.114  -2.557  1.00  0.00     0.181 HD
ATOM     19  H8  UNL     1      10.265  46.957  -1.703  1.00  0.00     0.160 HD
BRANCH  14  20
HETATM   20  C15 UNL     1       8.712  45.478  -3.556  1.00  0.00     0.686 A
HETATM   21  N11 UNL     1       9.825  44.903  -3.007  1.00  0.00    -0.170 N
HETATM   22  C16 UNL     1      10.469  43.930  -3.675  1.00  0.00     0.167 A
ATOM     23  H11 UNL     1      10.165  45.211  -2.096  1.00  0.00     0.186 HD
HETATM   24  C17 UNL     1      10.021  43.491  -4.927  1.00  0.00     0.069 A
HETATM   25  C20 UNL     1       8.911  44.081  -5.449  1.00  0.00     0.270 A
HETATM   26  O4  UNL     1       8.470  43.721  -6.568  1.00  0.00    -0.267 OA
HETATM   27  N16 UNL     1       8.278  45.063  -4.750  1.00  0.00    -0.155 N
ATOM     28  H16 UNL     1       7.446  45.497  -5.151  1.00  0.00     0.187 HD
BRANCH  22  29
HETATM   29  O3  UNL     1      11.599  43.320  -3.160  1.00  0.00    -0.345 OA
ATOM     30  H3  UNL     1      11.927  42.500  -3.510  1.00  0.00     0.219 HD
ENDBRANCH  22  29
BRANCH  24  31
HETATM   31  C18 UNL     1      10.709  42.430  -5.673  1.00  0.00     0.127 C
BRANCH  31  32
HETATM   32  C19 UNL     1      11.704  42.922  -6.625  1.00  0.00     0.111 A
HETATM   33  N12 UNL     1      11.458  43.496  -7.808  1.00  0.00    -0.274 N
HETATM   34  N13 UNL     1      12.634  43.796  -8.361  1.00  0.00    -0.007 NA
ATOM     35  H12 UNL     1      10.539  43.672  -8.214  1.00  0.00     0.185 HD
HETATM   36  N14 UNL     1      13.617  43.425  -7.550  1.00  0.00    -0.007 NA
HETATM   37  N15 UNL     1      13.034  42.885  -6.480  1.00  0.00    -0.274 N
ATOM     38  H15 UNL     1      13.527  42.502  -5.673  1.00  0.00     0.185 HD
ENDBRANCH  31  32
ENDBRANCH  24  31
ENDBRANCH  14  20
ENDBRANCH   8  11
ENDBRANCH   6   8
BRANCH   1  39
HETATM   39  C10 UNL     1      10.024  49.417   3.799  1.00  0.00     0.119 A
HETATM   40  C9  UNL     1       9.508  48.566   4.778  1.00  0.00     0.147 A
HETATM   41  N5  UNL     1       9.296  49.267   5.903  1.00  0.00    -0.284 N
HETATM   42  N18 UNL     1       9.653  50.493   5.664  1.00  0.00    -0.240 N
HETATM   43  N17 UNL     1      10.096  50.613   4.402  1.00  0.00    -0.281 N
ATOM     44  H18 UNL     1       9.604  51.256   6.340  1.00  0.00     0.208 HD
ATOM     45  H17 UNL     1      10.433  51.475   3.972  1.00  0.00     0.188 HD
BRANCH  41  46
HETATM   46  C8  UNL     1       8.766  48.778   7.171  1.00  0.00     0.183 C
BRANCH  46  47
HETATM   47  C7  UNL     1       8.165  47.421   7.012  1.00  0.00     0.156 C
BRANCH  47  48
HETATM   48  C6  UNL     1       8.995  46.406   7.744  1.00  0.00     0.163 C
BRANCH  48  49
HETATM   49  N4  UNL     1       8.998  45.101   7.152  1.00  0.00    -0.336 N
HETATM   50  C3  UNL     1       9.854  44.709   6.186  1.00  0.00     0.096 A
HETATM   51  C2  UNL     1      10.885  45.357   5.528  1.00  0.00     0.139 A
HETATM   52  C4  UNL     1       9.594  43.405   5.844  1.00  0.00     0.150 A
HETATM   53  N2  UNL     1      11.571  44.677   4.594  1.00  0.00    -0.200 N
HETATM   54  C1  UNL     1      11.297  43.402   4.276  1.00  0.00     0.677 A
ATOM     55  H2  UNL     1      12.333  45.149   4.106  1.00  0.00     0.183 HD
HETATM   56  N19 UNL     1      10.306  42.736   4.891  1.00  0.00    -0.175 N
ATOM     57  H19 UNL     1      10.094  41.767   4.654  1.00  0.00     0.186 HD
HETATM   58  N3  UNL     1       8.560  43.010   6.623  1.00  0.00    -0.336 N
HETATM   59  C5  UNL     1       8.211  44.038   7.405  1.00  0.00     0.185 A
ATOM     60  H3  UNL     1       8.123  42.089   6.616  1.00  0.00     0.168 HD
BRANCH  54  61
HETATM   61  N1  UNL     1      12.006  42.799   3.356  1.00  0.00    -0.234 N
ATOM     62  H12 UNL     1      12.247  43.298   2.500  1.00  0.00     0.174 HD
ATOM     63  H11 UNL     1      12.307  41.835   3.504  1.00  0.00     0.174 HD
ENDBRANCH  54  61
ENDBRANCH  48  49
ENDBRANCH  47  48
BRANCH  47  64
HETATM   64  O1  UNL     1       6.875  47.472   7.553  1.00  0.00    -0.392 OA
ATOM     65  H1  UNL     1       6.811  48.183   8.180  1.00  0.00     0.210 HD
ENDBRANCH  47  64
ENDBRANCH  46  47
ENDBRANCH  41  46
ENDBRANCH   1  39
TORSDOF 14
ENDMDL