MODEL 3
REMARK VINA RESULT: -8.252930312      5.314     12.183
REMARK  20 active torsions:
REMARK  status: ('A' for Active; 'I' for Inactive)
REMARK    1  A    between atoms: S1_2  and  C2_3
REMARK    2  A    between atoms: C3_6  and  N2_7
REMARK    3  A    between atoms: N2_7  and  N3_9
REMARK    4  A    between atoms: N3_9  and  C4_11
REMARK    5  A    between atoms: N4_12  and  N5_13
REMARK    6  A    between atoms: C5_16  and  N6_17
REMARK       I    between atoms: N6_17  and  C6_19
REMARK    7  A    between atoms: N8_24  and  C9_25
REMARK    8  A    between atoms: C10_27  and  C11_28
REMARK    9  A    between atoms: C11_28  and  O3_29
REMARK   10  A    between atoms: C12_31  and  N9_32
REMARK   11  A    between atoms: N9_32  and  C13_34
REMARK   12  A    between atoms: C14_37  and  N11_38
REMARK   13  A    between atoms: N11_38  and  C15_39
REMARK   14  A    between atoms: N11_38  and  C17_43
REMARK   15  A    between atoms: C15_39  and  C16_40
REMARK   16  A    between atoms: C16_40  and  O4_41
REMARK   17  A    between atoms: C17_43  and  C18_44
REMARK   18  A    between atoms: C18_44  and  O5_45
REMARK   19  A    between atoms: C19_49  and  N13_50
REMARK   20  A    between atoms: C20_58  and  N16_59
ROOT
HETATM    1  C4  UNL     1      10.130  43.708 -10.398  1.00  0.00     0.727 A
HETATM    2  N4  UNL     1       9.557  44.093 -11.546  1.00  0.00    -0.071 N
HETATM    3  C5  UNL     1       9.627  45.463 -11.675  1.00  0.00     0.190 A
HETATM    4  C8  UNL     1      10.265  45.897 -10.554  1.00  0.00     0.186 A
HETATM    5  N7  UNL     1      10.609  47.208 -10.184  1.00  0.00    -0.078 NA
HETATM    6  N8  UNL     1      10.552  44.798  -9.801  1.00  0.00    -0.112 N
ENDROOT
BRANCH   6   7
HETATM    7  C9  UNL     1      11.219  44.870  -8.500  1.00  0.00     0.398 C
HETATM    8  O2  UNL     1      12.488  44.344  -8.656  1.00  0.00    -0.331 OA
HETATM    9  C10 UNL     1      12.739  43.472  -7.596  1.00  0.00     0.199 C
HETATM   10  C12 UNL     1      11.567  43.581  -6.696  1.00  0.00     0.274 C
HETATM   11  O6  UNL     1      10.572  44.049  -7.573  1.00  0.00    -0.315 OA
BRANCH   9  12
HETATM   12  C11 UNL     1      13.000  42.078  -8.135  1.00  0.00     0.200 C
BRANCH  12  13
HETATM   13  O3  UNL     1      11.894  41.247  -8.084  1.00  0.00    -0.398 OA
ATOM     14  H3  UNL     1      11.117  41.667  -7.734  1.00  0.00     0.209 HD
ENDBRANCH  12  13
ENDBRANCH   9  12
BRANCH  10  15
HETATM   15  N9  UNL     1      11.689  44.409  -5.548  1.00  0.00    -0.196 N
ATOM     16  H9  UNL     1      12.469  45.064  -5.536  1.00  0.00     0.180 HD
BRANCH  15  17
HETATM   17  C13 UNL     1      10.834  44.416  -4.416  1.00  0.00     0.709 A
HETATM   18  N10 UNL     1      10.463  45.605  -3.850  1.00  0.00    -0.021 N
HETATM   19  C14 UNL     1       9.659  45.710  -2.793  1.00  0.00     0.709 A
ATOM     20  H10 UNL     1      10.825  46.465  -4.264  1.00  0.00     0.203 HD
HETATM   21  N12 UNL     1       9.200  44.531  -2.271  1.00  0.00    -0.022 N
HETATM   22  C19 UNL     1       9.550  43.357  -2.808  1.00  0.00     0.705 A
ATOM     23  H12 UNL     1       8.581  44.548  -1.459  1.00  0.00     0.203 HD
HETATM   24  N14 UNL     1      10.365  43.285  -3.880  1.00  0.00    -0.022 N
ATOM     25  H14 UNL     1      10.621  42.380  -4.275  1.00  0.00     0.203 HD
BRANCH  19  26
HETATM   26  N11 UNL     1       9.257  46.929  -2.192  1.00  0.00    -0.213 N
BRANCH  26  27
HETATM   27  C15 UNL     1       9.829  47.420  -0.952  1.00  0.00     0.167 C
BRANCH  27  28
HETATM   28  C16 UNL     1       9.523  48.877  -0.696  1.00  0.00     0.184 C
BRANCH  28  29
HETATM   29  O4  UNL     1       8.970  48.985   0.579  1.00  0.00    -0.399 OA
ATOM     30  H4  UNL     1       8.816  49.905   0.756  1.00  0.00     0.209 HD
ENDBRANCH  28  29
ENDBRANCH  27  28
ENDBRANCH  26  27
BRANCH  26  31
HETATM   31  C17 UNL     1       8.255  47.726  -2.833  1.00  0.00     0.167 C
BRANCH  31  32
HETATM   32  C18 UNL     1       7.020  46.961  -3.243  1.00  0.00     0.184 C
BRANCH  32  33
HETATM   33  O5  UNL     1       6.461  46.386  -2.107  1.00  0.00    -0.399 OA
ATOM     34  H5  UNL     1       6.637  46.953  -1.365  1.00  0.00     0.209 HD
ENDBRANCH  32  33
ENDBRANCH  31  32
ENDBRANCH  26  31
ENDBRANCH  19  26
BRANCH  22  35
HETATM   35  N13 UNL     1       9.109  42.261  -2.300  1.00  0.00    -0.234 N
ATOM     36 2H13 UNL     1       9.764  41.661  -1.798  1.00  0.00     0.174 HD
ATOM     37 1H13 UNL     1       8.125  42.012  -2.403  1.00  0.00     0.174 HD
ENDBRANCH  22  35
ENDBRANCH  15  17
ENDBRANCH  10  15
ENDBRANCH   6   7
BRANCH   1  38
HETATM   38  N3  UNL     1      10.208  42.450 -10.034  1.00  0.00    -0.115 N
ATOM     39  H3  UNL     1      11.066  42.174  -9.555  1.00  0.00     0.206 HD
BRANCH  38  40
HETATM   40  N2  UNL     1       9.290  41.477 -10.218  1.00  0.00    -0.117 N
ATOM     41  H2  UNL     1       9.128  41.123 -11.160  1.00  0.00     0.206 HD
BRANCH  40  42
HETATM   42  C3  UNL     1       8.613  40.983  -9.238  1.00  0.00     0.713 A
HETATM   43  N1  UNL     1       7.513  40.221  -9.401  1.00  0.00    -0.168 N
HETATM   44  C2  UNL     1       6.866  39.744  -8.319  1.00  0.00     0.174 A
ATOM     45  H1  UNL     1       7.171  40.007 -10.338  1.00  0.00     0.186 HD
HETATM   46  N17 UNL     1       7.334  40.040  -7.078  1.00  0.00    -0.170 N
HETATM   47  C20 UNL     1       8.425  40.795  -6.904  1.00  0.00     0.692 A
ATOM     48  H17 UNL     1       6.844  39.678  -6.261  1.00  0.00     0.186 HD
HETATM   49  N15 UNL     1       9.055  41.260  -7.984  1.00  0.00    -0.021 N
ATOM     50  H15 UNL     1       9.888  41.837  -7.866  1.00  0.00     0.203 HD
BRANCH  44  51
HETATM   51  S1  UNL     1       5.410  38.733  -8.435  1.00  0.00    -0.097 SA
HETATM   52  C1  UNL     1       4.563  38.630  -6.848  1.00  0.00     0.099 C
ENDBRANCH  44  51
BRANCH  47  53
HETATM   53  N16 UNL     1       8.848  41.061  -5.726  1.00  0.00    -0.234 N
ATOM     54 2H16 UNL     1       8.371  41.753  -5.149  1.00  0.00     0.174 HD
ATOM     55 1H16 UNL     1       9.666  40.588  -5.341  1.00  0.00     0.174 HD
ENDBRANCH  47  53
ENDBRANCH  40  42
ENDBRANCH  38  40
ENDBRANCH   1  38
BRANCH   2  56
HETATM   56  N5  UNL     1       8.974  43.255 -12.485  1.00  0.00    -0.322 N
ATOM     57  H52 UNL     1       8.046  42.846 -12.385  1.00  0.00     0.178 HD
ATOM     58  H51 UNL     1       9.396  42.959 -13.366  1.00  0.00     0.178 HD
ENDBRANCH   2  56
BRANCH   3  59
HETATM   59  N6  UNL     1       9.102  46.156 -12.784  1.00  0.00    -0.309 N
HETATM   60  C6  UNL     1       9.706  47.086 -13.588  1.00  0.00     0.219 C
HETATM   61  C7  UNL     1       8.887  47.704 -14.743  1.00  0.00     0.117 C
HETATM   62  O1  UNL     1      10.852  47.542 -13.548  1.00  0.00    -0.274 OA
ATOM     63  H6  UNL     1       8.135  45.933 -13.021  1.00  0.00     0.170 HD
ENDBRANCH   3  59
TORSDOF 20
ENDMDL