MODEL 4
REMARK VINA RESULT: -9.606931552      0.864      1.019
REMARK  17 active torsions:
REMARK  status: ('A' for Active; 'I' for Inactive)
REMARK    1  A    between atoms: C2_2  and  C3_3
REMARK    2  A    between atoms: C2_2  and  C16_40
REMARK    3  A    between atoms: C3_3  and  O2_5
REMARK    4  A    between atoms: O2_5  and  C4_6
REMARK    5  A    between atoms: C4_6  and  C5_7
REMARK    6  A    between atoms: C5_7  and  O3_8
REMARK    7  A    between atoms: C5_7  and  C6_10
REMARK    8  A    between atoms: C6_10  and  O4_11
REMARK    9  A    between atoms: C6_10  and  O5_13
REMARK   10  A    between atoms: O5_13  and  C7_14
REMARK   11  A    between atoms: C7_14  and  N1_15
REMARK   12  A    between atoms: C9_17  and  C10_18
REMARK   13  A    between atoms: C10_18  and  O6_19
REMARK   14  A    between atoms: C10_18  and  N2_21
REMARK   15  A    between atoms: C13_31  and  N7_32
REMARK   16  A    between atoms: C20_51  and  O8_52
REMARK   17  A    between atoms: C20_51  and  O9_54
ROOT
HETATM    1  C6  UNL     1       9.862  47.308  -2.118  1.00  0.00     0.294 C
ENDROOT
BRANCH   1   2
HETATM    2  C5  UNL     1       9.019  48.405  -1.492  1.00  0.00     0.197 C
BRANCH   2   3
HETATM    3  C4  UNL     1       9.823  49.548  -0.991  1.00  0.00     0.215 C
BRANCH   3   4
HETATM    4  O2  UNL     1       9.822  49.559   0.404  1.00  0.00    -0.318 OA
BRANCH   4   5
HETATM    5  C3  UNL     1      10.874  49.454   1.274  1.00  0.00     0.268 C
HETATM    6  O1  UNL     1      11.918  48.874   0.813  1.00  0.00    -0.264 OA
BRANCH   5   7
HETATM    7  C2  UNL     1      10.839  49.969   2.676  1.00  0.00     0.135 C
HETATM    8  C1  UNL     1      12.297  50.345   2.998  1.00  0.00     0.027 C
BRANCH   7   9
HETATM    9  C16 UNL     1      10.441  48.966   3.672  1.00  0.00     0.066 A
HETATM   10  N9  UNL     1      10.627  47.629   3.448  1.00  0.00    -0.339 N
HETATM   11  C17 UNL     1      10.255  46.701   4.342  1.00  0.00     0.147 A
ATOM     12  H9  UNL     1      11.062  47.329   2.577  1.00  0.00     0.167 HD
HETATM   13  C18 UNL     1       9.663  47.052   5.539  1.00  0.00     0.166 A
HETATM   14  N14 UNL     1      10.456  45.315   4.102  1.00  0.00    -0.371 N
HETATM   15  N10 UNL     1       9.470  48.342   5.784  1.00  0.00    -0.325 N
HETATM   16  N12 UNL     1       9.277  46.031   6.473  1.00  0.00    -0.259 N
HETATM   17  C19 UNL     1       9.850  49.284   4.872  1.00  0.00     0.141 A
ATOM     18  H10 UNL     1       9.035  48.631   6.660  1.00  0.00     0.169 HD
HETATM   19  N11 UNL     1       9.623  50.649   5.215  1.00  0.00    -0.081 NA
HETATM   20  N13 UNL     1       8.982  45.701   7.786  1.00  0.00    -0.067 NA
HETATM   21  C21 UNL     1       9.064  44.703   5.939  1.00  0.00     0.206 C
HETATM   22  C20 UNL     1       9.086  44.294   7.395  1.00  0.00     0.282 C
HETATM   23  C22 UNL     1      10.291  44.320   5.153  1.00  0.00     0.155 C
ATOM     24  H14 UNL     1      10.724  45.008   3.167  1.00  0.00     0.161 HD
BRANCH  22  25
HETATM   25  O8  UNL     1       7.971  43.569   7.767  1.00  0.00    -0.349 OA
ATOM     26  H8  UNL     1       8.202  42.769   8.224  1.00  0.00     0.214 HD
ENDBRANCH  22  25
BRANCH  22  27
HETATM   27  O9  UNL     1      10.315  43.722   7.719  1.00  0.00    -0.349 OA
ATOM     28  H9  UNL     1      10.269  42.782   7.846  1.00  0.00     0.214 HD
ENDBRANCH  22  27
ENDBRANCH   7   9
ENDBRANCH   5   7
ENDBRANCH   4   5
ENDBRANCH   3   4
ENDBRANCH   2   3
BRANCH   2  29
HETATM   29  O3  UNL     1       8.416  47.784  -0.374  1.00  0.00    -0.388 OA
ATOM     30  H3  UNL     1       7.612  48.252  -0.185  1.00  0.00     0.210 HD
ENDBRANCH   2  29
ENDBRANCH   1   2
BRANCH   1  31
HETATM   31  O4  UNL     1       9.748  46.217  -1.218  1.00  0.00    -0.368 OA
ATOM     32  H4  UNL     1       9.274  45.555  -1.707  1.00  0.00     0.212 HD
ENDBRANCH   1  31
BRANCH   1  33
HETATM   33  O5  UNL     1       9.457  46.928  -3.352  1.00  0.00    -0.313 OA
BRANCH  33  34
HETATM   34  C7  UNL     1       8.492  45.974  -3.462  1.00  0.00     0.237 C
BRANCH  34  35
HETATM   35  N1  UNL     1       8.760  44.899  -4.392  1.00  0.00    -0.305 N
HETATM   36  C8  UNL     1       8.682  45.027  -5.720  1.00  0.00     0.113 A
HETATM   37  C9  UNL     1       8.990  43.765  -6.242  1.00  0.00     0.037 A
HETATM   38  C12 UNL     1       9.253  42.877  -5.223  1.00  0.00     0.094 A
HETATM   39  N6  UNL     1       9.588  41.575  -5.179  1.00  0.00    -0.189 N
HETATM   40  C15 UNL     1       9.098  43.634  -4.050  1.00  0.00     0.137 A
HETATM   41  C13 UNL     1       9.775  40.999  -3.981  1.00  0.00     0.679 A
ATOM     42  H6  UNL     1       9.697  41.036  -6.039  1.00  0.00     0.184 HD
HETATM   43  N8  UNL     1       9.638  41.677  -2.848  1.00  0.00    -0.154 N
HETATM   44  C14 UNL     1       9.306  42.973  -2.864  1.00  0.00     0.289 A
ATOM     45  H8  UNL     1       9.789  41.205  -1.956  1.00  0.00     0.187 HD
HETATM   46  O7  UNL     1       9.178  43.614  -1.784  1.00  0.00    -0.265 OA
BRANCH  37  47
HETATM   47  C10 UNL     1       9.029  43.496  -7.714  1.00  0.00     0.281 C
BRANCH  47  48
HETATM   48  O6  UNL     1       8.790  42.143  -7.921  1.00  0.00    -0.370 OA
ATOM     49  H6  UNL     1       7.918  41.939  -7.602  1.00  0.00     0.212 HD
ENDBRANCH  47  48
BRANCH  47  50
HETATM   50  N2  UNL     1      10.370  43.821  -8.217  1.00  0.00    -0.240 N
HETATM   51  C11 UNL     1      11.524  43.265  -7.834  1.00  0.00     0.219 A
HETATM   52  N3  UNL     1      12.541  43.820  -8.518  1.00  0.00    -0.277 N
HETATM   53  N4  UNL     1      11.973  44.718  -9.316  1.00  0.00    -0.006 NA
ATOM     54  H3  UNL     1      13.534  43.599  -8.440  1.00  0.00     0.185 HD
HETATM   55  N5  UNL     1      10.654  44.720  -9.135  1.00  0.00    -0.221 N
ATOM     56  H5  UNL     1       9.982  45.314  -9.621  1.00  0.00     0.206 HD
ENDBRANCH  47  50
ENDBRANCH  37  47
BRANCH  41  57
HETATM   57  N7  UNL     1      10.096  39.749  -3.918  1.00  0.00    -0.234 N
ATOM     58  H72 UNL     1      10.130  39.211  -4.783  1.00  0.00     0.174 HD
ATOM     59  H71 UNL     1      10.309  39.330  -3.013  1.00  0.00     0.174 HD
ENDBRANCH  41  57
ENDBRANCH  34  35
ENDBRANCH  33  34
ENDBRANCH   1  33
TORSDOF 17
ENDMDL