MODEL 2
REMARK VINA RESULT: -7.084352697      1.979      3.569
REMARK  18 active torsions:
REMARK  status: ('A' for Active; 'I' for Inactive)
REMARK    1  A    between atoms: N1_4  and  O1_5
REMARK    2  A    between atoms: O1_5  and  C4_6
REMARK    3  A    between atoms: C4_6  and  O2_7
REMARK    4  A    between atoms: C4_6  and  N2_9
REMARK    5  A    between atoms: N2_9  and  O3_11
REMARK    6  A    between atoms: O3_11  and  C5_12
REMARK    7  A    between atoms: C5_12  and  C6_13
REMARK    8  A    between atoms: C9_21  and  O5_22
REMARK    9  A    between atoms: C10_24  and  N5_25
REMARK   10  A    between atoms: C11_30  and  S1_31
REMARK   11  A    between atoms: S1_31  and  C12_32
REMARK   12  A    between atoms: C14_36  and  N9_37
REMARK   13  A    between atoms: N10_40  and  C15_41
REMARK   14  A    between atoms: C15_41  and  O6_42
REMARK   15  A    between atoms: N12_46  and  O7_47
REMARK   16  A    between atoms: N13_49  and  O8_50
REMARK   17  A    between atoms: O8_50  and  S2_51
REMARK   18  A    between atoms: S2_51  and  N14_52
ROOT
HETATM    1  C1  UNL     1       8.929  46.673   3.777  1.00  0.00     0.067 C
HETATM    2  C2  UNL     1      10.362  46.555   4.244  1.00  0.00     0.151 C
HETATM    3  C3  UNL     1      11.203  47.030   3.116  1.00  0.00     0.067 C
HETATM    4  N1  UNL     1      10.356  47.474   5.428  1.00  0.00    -0.206 N
HETATM    5  C7  UNL     1      10.179  46.675   6.561  1.00  0.00     0.152 C
HETATM    6  N4  UNL     1      10.081  47.054   7.780  1.00  0.00    -0.384 N
ATOM      7  H41 UNL     1       9.952  46.471   8.606  1.00  0.00     0.157 HD
ATOM      8  H42 UNL     1      10.138  48.015   8.118  1.00  0.00     0.157 HD
HETATM    9  C8  UNL     1      10.097  45.278   6.070  1.00  0.00     0.226 C
HETATM   10  C9  UNL     1      10.441  44.195   7.033  1.00  0.00     0.216 C
HETATM   11  C10 UNL     1       8.976  43.950   7.141  1.00  0.00     0.264 C
HETATM   12  N12 UNL     1       8.780  44.719   5.932  1.00  0.00    -0.128 NA
HETATM   13  N13 UNL     1      10.768  45.375   4.852  1.00  0.00    -0.207 N
ENDROOT
BRANCH  10  14
HETATM   14  O5  UNL     1      10.916  44.668   8.262  1.00  0.00    -0.387 OA
ATOM     15  H5  UNL     1      11.727  44.259   8.539  1.00  0.00     0.210 HD
ENDBRANCH  10  14
BRANCH  12  16
HETATM   16  O7  UNL     1       8.669  43.827   4.909  1.00  0.00    -0.308 OA
ATOM     17  H7  UNL     1       8.589  42.924   5.196  1.00  0.00     0.237 HD
ENDBRANCH  12  16
BRANCH  13  18
HETATM   18  O8  UNL     1      11.681  44.616   4.446  1.00  0.00    -0.132 OA
BRANCH  18  19
HETATM   19  S2  UNL     1      11.538  43.310   3.519  1.00  0.00     0.376 S
HETATM   20  O9  UNL     1      10.518  43.349   2.422  1.00  0.00    -0.174 OA
HETATM   21  O10 UNL     1      12.832  42.907   2.804  1.00  0.00    -0.174 OA
BRANCH  19  22
HETATM   22  N14 UNL     1      11.150  41.854   4.430  1.00  0.00    -0.304 N
ATOM     23 2H14 UNL     1      10.588  41.872   5.281  1.00  0.00     0.171 HD
ATOM     24 1H14 UNL     1      11.543  41.008   4.018  1.00  0.00     0.171 HD
ENDBRANCH  19  22
ENDBRANCH  18  19
ENDBRANCH  13  18
BRANCH   4  25
HETATM   25  O1  UNL     1      10.489  48.758   5.257  1.00  0.00    -0.219 OA
BRANCH  25  26
HETATM   26  C4  UNL     1       9.462  49.606   5.533  1.00  0.00     0.415 C
BRANCH  26  27
HETATM   27  O2  UNL     1       9.165  49.834   6.888  1.00  0.00    -0.352 OA
ATOM     28  H2  UNL     1       9.614  50.554   7.315  1.00  0.00     0.214 HD
ENDBRANCH  26  27
BRANCH  26  29
HETATM   29  N2  UNL     1       9.696  50.820   4.911  1.00  0.00    -0.248 N
ATOM     30  H2  UNL     1       8.914  51.432   4.675  1.00  0.00     0.193 HD
BRANCH  29  31
HETATM   31  O3  UNL     1      10.946  51.189   4.621  1.00  0.00    -0.272 OA
BRANCH  31  32
HETATM   32  C5  UNL     1      10.807  51.575   3.249  1.00  0.00     0.300 C
BRANCH  32  33
HETATM   33  C6  UNL     1      11.773  50.570   2.595  1.00  0.00     0.257 C
HETATM   34  N3  UNL     1      12.851  50.224   3.441  1.00  0.00    -0.060 NA
HETATM   35  O4  UNL     1      11.544  50.211   1.467  1.00  0.00    -0.274 OA
ENDBRANCH  32  33
ENDBRANCH  31  32
ENDBRANCH  29  31
ENDBRANCH  26  29
ENDBRANCH  25  26
ENDBRANCH   4  25
BRANCH  11  36
HETATM   36  N5  UNL     1       8.493  42.570   7.090  1.00  0.00    -0.194 N
HETATM   37  N6  UNL     1       8.904  41.494   7.170  1.00  0.00    -0.222 N
HETATM   38  N7  UNL     1       8.133  40.487   6.923  1.00  0.00    -0.263 N
ATOM     39  H6  UNL     1       9.877  41.339   7.435  1.00  0.00     0.210 HD
HETATM   40  C11 UNL     1       6.972  41.077   6.641  1.00  0.00     0.182 A
ATOM     41  H7  UNL     1       8.357  39.492   6.940  1.00  0.00     0.190 HD
HETATM   42  N11 UNL     1       7.079  42.442   6.740  1.00  0.00    -0.259 N
ATOM     43  H11 UNL     1       6.371  43.165   6.606  1.00  0.00     0.191 HD
BRANCH  40  44
HETATM   44  S1  UNL     1       5.524  40.234   5.924  1.00  0.00    -0.031 SA
BRANCH  44  45
HETATM   45  C12 UNL     1       6.062  39.603   4.297  1.00  0.00     0.114 A
HETATM   46  C13 UNL     1       6.262  38.278   4.041  1.00  0.00     0.144 A
HETATM   47  N8  UNL     1       6.717  38.197   2.801  1.00  0.00    -0.199 N
HETATM   48  C14 UNL     1       6.818  39.404   2.297  1.00  0.00     0.680 A
ATOM     49  H8  UNL     1       6.954  37.332   2.314  1.00  0.00     0.183 HD
HETATM   50  N10 UNL     1       6.429  40.264   3.221  1.00  0.00    -0.154 N
BRANCH  48  51
HETATM   51  N9  UNL     1       7.301  39.783   1.121  1.00  0.00    -0.234 N
ATOM     52  H92 UNL     1       8.252  39.571   0.819  1.00  0.00     0.174 HD
ATOM     53  H91 UNL     1       6.823  40.247   0.348  1.00  0.00     0.174 HD
ENDBRANCH  48  51
BRANCH  50  54
HETATM   54  C15 UNL     1       6.504  41.725   3.108  1.00  0.00     0.315 C
BRANCH  54  55
HETATM   55  O6  UNL     1       7.771  42.170   2.746  1.00  0.00    -0.381 OA
ATOM     56  H6  UNL     1       8.018  41.899   1.870  1.00  0.00     0.211 HD
ENDBRANCH  54  55
ENDBRANCH  50  54
ENDBRANCH  44  45
ENDBRANCH  40  44
ENDBRANCH  11  36
TORSDOF 18
ENDMDL