MODEL 5
REMARK VINA RESULT: -7.740044449      1.318      1.591
REMARK  22 active torsions:
REMARK  status: ('A' for Active; 'I' for Inactive)
REMARK    1  A    between atoms: C2_2  and  O1_3
REMARK    2  A    between atoms: O1_3  and  C3_4
REMARK    3  A    between atoms: C3_4  and  C4_6
REMARK    4  A    between atoms: C5_7  and  O3_8
REMARK    5  A    between atoms: O3_8  and  C6_9
REMARK    6  A    between atoms: C6_9  and  C7_10
REMARK    7  A    between atoms: C7_10  and  O4_11
REMARK    8  A    between atoms: C7_10  and  C8_13
REMARK    9  A    between atoms: C8_13  and  O5_14
REMARK   10  A    between atoms: C8_13  and  C9_16
REMARK   11  A    between atoms: C9_16  and  O6_17
REMARK   12  A    between atoms: C9_16  and  C10_19
REMARK   13  A    between atoms: C10_19  and  C11_20
REMARK   14  A    between atoms: C10_19  and  N1_23
REMARK   15  A    between atoms: C11_20  and  O7_21
REMARK   16  A    between atoms: C12_25  and  C13_26
REMARK   17  A    between atoms: C13_26  and  O9_27
REMARK   18  A    between atoms: C13_26  and  O10_29
REMARK   19  A    between atoms: C17_35  and  N2_36
REMARK   20  A    between atoms: N2_36  and  O12_38
REMARK   21  A    between atoms: C20_45  and  N4_46
REMARK   22  A    between atoms: C23_55  and  O14_56
ROOT
HETATM    1  C4  UNL     1       9.896  43.470   4.305  1.00  0.00     0.094 A
HETATM    2  C5  UNL     1       9.902  44.103   5.456  1.00  0.00     0.086 A
HETATM    3  C16 UNL     1       8.899  43.483   6.341  1.00  0.00     0.068 A
HETATM    4  C17 UNL     1       8.292  42.484   5.732  1.00  0.00     0.077 A
HETATM    5  C18 UNL     1       8.887  42.395   4.370  1.00  0.00     0.179 A
HETATM    6  O13 UNL     1       7.902  42.686   3.404  1.00  0.00    -0.294 OA
HETATM    7  C19 UNL     1       6.985  41.680   3.058  1.00  0.00     0.258 A
HETATM    8  N3  UNL     1       5.677  41.654   2.750  1.00  0.00    -0.152 N
ATOM      9  H3  UNL     1       5.041  42.449   2.705  1.00  0.00     0.188 HD
HETATM   10  C20 UNL     1       5.378  40.366   2.513  1.00  0.00     0.693 A
HETATM   11  N5  UNL     1       6.492  39.637   2.677  1.00  0.00    -0.126 N
ATOM     12  H5  UNL     1       6.562  38.626   2.561  1.00  0.00     0.206 HD
HETATM   13  N6  UNL     1       7.479  40.437   3.011  1.00  0.00    -0.220 N
HETATM   14  C21 UNL     1       8.859  40.114   3.290  1.00  0.00     0.251 C
HETATM   15  C22 UNL     1       8.961  38.761   3.876  1.00  0.00     0.089 C
HETATM   16  N7  UNL     1       9.054  37.696   4.321  1.00  0.00    -0.195 NA
HETATM   17  C23 UNL     1       9.577  41.085   4.135  1.00  0.00     0.203 C
ENDROOT
BRANCH  17  18
HETATM   18  O14 UNL     1       9.811  40.523   5.413  1.00  0.00    -0.389 OA
ATOM     19  H14 UNL     1      10.643  40.872   5.710  1.00  0.00     0.210 HD
ENDBRANCH  17  18
BRANCH  10  20
HETATM   20  N4  UNL     1       4.190  39.923   2.178  1.00  0.00    -0.233 N
ATOM     21  H42 UNL     1       3.935  39.452   1.310  1.00  0.00     0.174 HD
ATOM     22  H41 UNL     1       3.356  39.997   2.760  1.00  0.00     0.174 HD
ENDBRANCH  10  20
BRANCH   1  23
HETATM   23  C3  UNL     1      10.729  43.761   3.161  1.00  0.00     0.295 C
HETATM   24  O2  UNL     1      10.821  44.921   2.653  1.00  0.00    -0.259 OA
BRANCH  23  25
HETATM   25  O1  UNL     1      11.486  42.773   2.539  1.00  0.00    -0.318 OA
BRANCH  25  26
HETATM   26  C2  UNL     1      12.634  42.221   3.184  1.00  0.00     0.174 C
HETATM   27  C1  UNL     1      13.452  41.472   2.179  1.00  0.00     0.034 C
ENDBRANCH  25  26
ENDBRANCH  23  25
ENDBRANCH   1  23
BRANCH   4  28
HETATM   28  N2  UNL     1       7.272  41.665   6.289  1.00  0.00    -0.270 N
ATOM     29  H2  UNL     1       7.531  40.947   6.966  1.00  0.00     0.194 HD
BRANCH  28  30
HETATM   30  O12 UNL     1       5.958  41.807   5.948  1.00  0.00    -0.290 OA
ATOM     31  H12 UNL     1       5.292  41.190   6.230  1.00  0.00     0.244 HD
ENDBRANCH  28  30
ENDBRANCH   4  28
BRANCH   2  32
HETATM   32  O3  UNL     1      10.725  45.184   5.779  1.00  0.00    -0.348 OA
BRANCH  32  33
HETATM   33  C6  UNL     1      10.142  46.343   6.396  1.00  0.00     0.210 C
BRANCH  33  34
HETATM   34  C7  UNL     1       9.450  47.133   5.308  1.00  0.00     0.173 C
BRANCH  34  35
HETATM   35  O4  UNL     1       8.424  47.888   5.816  1.00  0.00    -0.391 OA
ATOM     36  H4  UNL     1       7.587  47.621   5.455  1.00  0.00     0.210 HD
ENDBRANCH  34  35
BRANCH  34  37
HETATM   37  C8  UNL     1      10.407  47.894   4.452  1.00  0.00     0.179 C
BRANCH  37  38
HETATM   38  O5  UNL     1      11.601  47.227   4.337  1.00  0.00    -0.390 OA
ATOM     39  H5  UNL     1      11.646  46.747   3.519  1.00  0.00     0.210 HD
ENDBRANCH  37  38
BRANCH  37  40
HETATM   40  C9  UNL     1       9.797  48.325   3.140  1.00  0.00     0.177 C
BRANCH  40  41
HETATM   41  O6  UNL     1       8.801  47.411   2.811  1.00  0.00    -0.391 OA
ATOM     42  H6  UNL     1       8.249  47.293   3.575  1.00  0.00     0.210 HD
ENDBRANCH  40  41
BRANCH  40  43
HETATM   43  C10 UNL     1      10.782  48.430   2.019  1.00  0.00     0.173 C
BRANCH  43  44
HETATM   44  C11 UNL     1      11.712  49.607   2.214  1.00  0.00     0.194 C
BRANCH  44  45
HETATM   45  O7  UNL     1      11.124  50.750   2.675  1.00  0.00    -0.399 OA
ATOM     46  H7  UNL     1      10.187  50.699   2.821  1.00  0.00     0.209 HD
ENDBRANCH  44  45
ENDBRANCH  43  44
BRANCH  43  47
HETATM   47  N1  UNL     1      10.223  48.318   0.718  1.00  0.00    -0.207 N
HETATM   48  O8  UNL     1      10.226  47.177   0.042  1.00  0.00    -0.231 OA
HETATM   49  C12 UNL     1       9.681  47.332  -1.115  1.00  0.00     0.136 A
HETATM   50  C14 UNL     1       9.284  48.644  -1.238  1.00  0.00     0.116 A
HETATM   51  C15 UNL     1       9.651  49.249  -0.037  1.00  0.00     0.270 A
HETATM   52  O11 UNL     1       9.457  50.436   0.231  1.00  0.00    -0.266 OA
BRANCH  49  53
HETATM   53  C13 UNL     1       9.527  46.236  -2.121  1.00  0.00     0.315 C
BRANCH  53  54
HETATM   54  O9  UNL     1       9.693  46.837  -3.376  1.00  0.00    -0.365 OA
ATOM     55  H9  UNL     1       9.836  46.126  -3.990  1.00  0.00     0.213 HD
ENDBRANCH  53  54
BRANCH  53  56
HETATM   56  O10 UNL     1       8.317  45.588  -1.997  1.00  0.00    -0.365 OA
ATOM     57  H10 UNL     1       8.307  44.994  -1.256  1.00  0.00     0.213 HD
ENDBRANCH  53  56
ENDBRANCH  49  53
ENDBRANCH  43  47
ENDBRANCH  40  43
ENDBRANCH  37  40
ENDBRANCH  34  37
ENDBRANCH  33  34
ENDBRANCH  32  33
ENDBRANCH   2  32
TORSDOF 22
ENDMDL