MODEL 5
REMARK VINA RESULT: -8.011216484      2.312     11.754
REMARK  20 active torsions:
REMARK  status: ('A' for Active; 'I' for Inactive)
REMARK    1  A    between atoms: N4_7  and  C2_8
REMARK    2  A    between atoms: C2_8  and  C3_9
REMARK    3  A    between atoms: C3_9  and  N5_10
REMARK    4  A    between atoms: N5_10  and  C4_13
REMARK    5  A    between atoms: C4_13  and  C5_14
REMARK    6  A    between atoms: C6_16  and  C7_17
REMARK    7  A    between atoms: C7_17  and  O2_18
REMARK    8  A    between atoms: N6_22  and  O3_24
REMARK    9  A    between atoms: O3_24  and  C10_25
REMARK   10  A    between atoms: C11_28  and  C12_29
REMARK   11  A    between atoms: C12_29  and  O6_30
REMARK   12  A    between atoms: C13_32  and  N7_33
REMARK   13  A    between atoms: C14_35  and  C15_36
REMARK   14  A    between atoms: C14_35  and  C16_39
REMARK   15  A    between atoms: C17_40  and  O9_41
REMARK   16  A    between atoms: C18_43  and  O10_44
REMARK   17  A    between atoms: C19_46  and  N8_47
REMARK   18  A    between atoms: N8_47  and  O11_48
REMARK   19  A    between atoms: N8_47  and  O12_50
REMARK   20  A    between atoms: C22_56  and  O14_57
ROOT
HETATM    1  C1  UNL     1       9.382  50.589   0.441  1.00  0.00     0.199 C
HETATM    2  N1  UNL     1       9.474  49.473  -0.492  1.00  0.00    -0.111 N
HETATM    3  N2  UNL     1       9.434  49.657  -1.851  1.00  0.00    -0.211 N
ATOM      4  H2  UNL     1       9.439  50.558  -2.329  1.00  0.00     0.210 HD
HETATM    5  N3  UNL     1       9.389  48.481  -2.436  1.00  0.00    -0.211 N
ATOM      6  H3  UNL     1       9.356  48.337  -3.444  1.00  0.00     0.210 HD
HETATM    7  N4  UNL     1       9.390  47.533  -1.558  1.00  0.00    -0.105 N
HETATM    8  C13 UNL     1       9.461  48.156  -0.297  1.00  0.00     0.718 A
ENDROOT
BRANCH   8   9
HETATM    9  N7  UNL     1       9.805  47.451   0.661  1.00  0.00    -0.181 N
HETATM   10  C14 UNL     1      10.569  47.193   1.720  1.00  0.00     0.141 C
ATOM     11  H7  UNL     1       9.175  46.651   0.614  1.00  0.00     0.184 HD
BRANCH  10  12
HETATM   12  C15 UNL     1      11.820  48.082   1.798  1.00  0.00     0.228 C
HETATM   13  O7  UNL     1      12.755  47.965   0.976  1.00  0.00    -0.643 OA
HETATM   14  O8  UNL     1      11.862  49.023   2.801  1.00  0.00    -0.643 OA
ENDBRANCH  10  12
BRANCH  10  15
HETATM   15  C16 UNL     1      10.253  46.826   3.070  1.00  0.00     0.069 C
HETATM   16  C17 UNL     1       9.663  47.697   3.982  1.00  0.00     0.116 C
HETATM   17  C18 UNL     1       9.737  47.603   5.356  1.00  0.00     0.130 C
HETATM   18  C19 UNL     1      10.116  46.562   6.190  1.00  0.00     0.153 C
HETATM   19  C20 UNL     1      11.037  45.580   5.800  1.00  0.00     0.227 C
HETATM   20  O13 UNL     1      11.858  45.177   6.637  1.00  0.00    -0.284 OA
HETATM   21  C21 UNL     1      11.142  44.979   4.539  1.00  0.00     0.132 C
HETATM   22  N9  UNL     1      11.889  43.793   4.449  1.00  0.00    -0.095 NA
HETATM   23  C22 UNL     1      10.595  45.484   3.363  1.00  0.00     0.109 C
BRANCH  16  24
HETATM   24  O9  UNL     1       8.970  48.699   3.390  1.00  0.00    -0.357 OA
ATOM     25  H9  UNL     1       8.226  48.994   3.902  1.00  0.00     0.217 HD
ENDBRANCH  16  24
BRANCH  17  26
HETATM   26  O10 UNL     1       9.381  48.742   6.074  1.00  0.00    -0.356 OA
ATOM     27  H10 UNL     1       9.756  49.562   5.776  1.00  0.00     0.218 HD
ENDBRANCH  17  26
BRANCH  18  28
HETATM   28  N8  UNL     1       9.563  46.426   7.478  1.00  0.00    -0.029 NA
BRANCH  28  29
HETATM   29  O11 UNL     1       8.232  46.596   7.477  1.00  0.00    -0.284 OA
ATOM     30  H11 UNL     1       7.910  46.914   8.313  1.00  0.00     0.240 HD
ENDBRANCH  28  29
BRANCH  28  31
HETATM   31  O12 UNL     1      10.124  47.276   8.337  1.00  0.00    -0.284 OA
ATOM     32  H12 UNL     1      10.867  46.879   8.779  1.00  0.00     0.240 HD
ENDBRANCH  28  31
ENDBRANCH  18  28
BRANCH  23  33
HETATM   33  O14 UNL     1      10.369  44.512   2.407  1.00  0.00    -0.358 OA
ATOM     34  H14 UNL     1       9.475  44.280   2.188  1.00  0.00     0.217 HD
ENDBRANCH  23  33
ENDBRANCH  10  15
ENDBRANCH   8   9
BRANCH   7  35
HETATM   35  C2  UNL     1       8.923  46.137  -1.719  1.00  0.00     0.197 C
BRANCH  35  36
HETATM   36  C3  UNL     1       9.518  45.583  -2.958  1.00  0.00     0.255 C
BRANCH  36  37
HETATM   37  N5  UNL     1       8.464  45.297  -4.016  1.00  0.00    -0.068 N
ATOM     38  H52 UNL     1       7.507  45.191  -3.680  1.00  0.00     0.277 HD
ATOM     39  H51 UNL     1       8.238  46.067  -4.645  1.00  0.00     0.277 HD
BRANCH  37  40
HETATM   40  C4  UNL     1       9.071  44.108  -4.637  1.00  0.00     0.297 C
BRANCH  40  41
HETATM   41  C5  UNL     1       9.831  44.283  -5.886  1.00  0.00     0.089 A
HETATM   42  O1  UNL     1       9.795  45.128  -6.847  1.00  0.00    -0.315 OA
HETATM   43  C6  UNL     1      10.625  45.086  -7.892  1.00  0.00     0.079 A
HETATM   44  C8  UNL     1      11.611  44.088  -7.977  1.00  0.00     0.067 A
HETATM   45  C9  UNL     1      11.734  43.143  -7.005  1.00  0.00     0.068 A
HETATM   46  N6  UNL     1      12.675  42.374  -6.718  1.00  0.00    -0.255 N
HETATM   47  C11 UNL     1      10.821  43.234  -5.961  1.00  0.00     0.025 A
ATOM     48  H6  UNL     1      12.430  41.808  -5.905  1.00  0.00     0.195 HD
BRANCH  43  49
HETATM   49  C7  UNL     1      10.592  46.010  -9.044  1.00  0.00     0.229 C
BRANCH  49  50
HETATM   50  O2  UNL     1      10.891  47.298  -8.726  1.00  0.00    -0.394 OA
ATOM     51  H2  UNL     1      11.584  47.674  -9.255  1.00  0.00     0.209 HD
ENDBRANCH  49  50
ENDBRANCH  43  49
BRANCH  46  52
HETATM   52  O3  UNL     1      13.865  42.070  -7.132  1.00  0.00    -0.172 OA
BRANCH  52  53
HETATM   53  C10 UNL     1      14.734  42.073  -8.112  1.00  0.00     0.355 C
HETATM   54  O4  UNL     1      15.003  43.205  -8.646  1.00  0.00    -0.622 OA
HETATM   55  O5  UNL     1      15.372  40.886  -8.582  1.00  0.00    -0.622 OA
ENDBRANCH  52  53
ENDBRANCH  46  52
BRANCH  47  56
HETATM   56  C12 UNL     1      10.711  42.120  -4.989  1.00  0.00     0.207 C
BRANCH  56  57
HETATM   57  O6  UNL     1      10.436  40.934  -5.712  1.00  0.00    -0.396 OA
ATOM     58  H6  UNL     1       9.573  40.630  -5.460  1.00  0.00     0.209 HD
ENDBRANCH  56  57
ENDBRANCH  47  56
ENDBRANCH  40  41
ENDBRANCH  37  40
ENDBRANCH  36  37
ENDBRANCH  35  36
ENDBRANCH   7  35
TORSDOF 20
ENDMDL