MODEL 2
REMARK VINA RESULT: -7.477562902      2.457      6.147
REMARK  19 active torsions:
REMARK  status: ('A' for Active; 'I' for Inactive)
REMARK    1  A    between atoms: C2_2  and  O1_3
REMARK    2  A    between atoms: C2_2  and  C3_5
REMARK    3  A    between atoms: C3_5  and  N1_6
REMARK    4  A    between atoms: C3_5  and  C23_59
REMARK    5  A    between atoms: N1_6  and  C4_8
REMARK    6  A    between atoms: C5_10  and  C6_11
REMARK    7  A    between atoms: C9_14  and  O3_15
REMARK    8  A    between atoms: C11_18  and  N2_19
REMARK    9  A    between atoms: N2_19  and  C12_21
REMARK   10  A    between atoms: C12_21  and  O4_22
REMARK   11  A    between atoms: C12_21  and  O5_24
REMARK   12  A    between atoms: C13_28  and  C14_29
REMARK   13  A    between atoms: C15_30  and  N4_31
REMARK   14  A    between atoms: N4_31  and  O6_32
REMARK   15  A    between atoms: N4_31  and  C16_34
REMARK   16  A    between atoms: C17_36  and  O8_37
REMARK   17  A    between atoms: C17_36  and  C18_39
REMARK   18  A    between atoms: C18_39  and  O9_40
REMARK   19  A    between atoms: C22_55  and  N10_56
ROOT
HETATM    1  C4  UNL     1       9.344  43.681  -8.232  1.00  0.00     0.174 A
HETATM    2  O2  UNL     1       9.155  44.508  -7.248  1.00  0.00    -0.274 OA
HETATM    3  C5  UNL     1       9.099  43.879  -6.083  1.00  0.00     0.163 A
HETATM    4  N3  UNL     1       9.264  42.596  -6.369  1.00  0.00    -0.331 N
ATOM      5  H3  UNL     1       9.271  41.851  -5.672  1.00  0.00     0.168 HD
HETATM    6  C13 UNL     1       9.422  42.395  -7.685  1.00  0.00     0.104 A
ENDROOT
BRANCH   6   7
HETATM    7  C14 UNL     1       9.564  41.183  -8.424  1.00  0.00     0.088 C
HETATM    8  C15 UNL     1      10.782  40.751  -8.804  1.00  0.00     0.162 C
HETATM    9  N5  UNL     1      11.110  39.486  -9.289  1.00  0.00    -0.269 N
HETATM   10  N6  UNL     1      10.329  38.609  -9.891  1.00  0.00    -0.128 N
ATOM     11  H5  UNL     1      12.082  39.201  -9.163  1.00  0.00     0.189 HD
HETATM   12  C20 UNL     1       9.005  38.670 -10.133  1.00  0.00     0.720 A
ATOM     13  H6  UNL     1      10.794  37.764 -10.220  1.00  0.00     0.205 HD
HETATM   14  N7  UNL     1       8.304  37.873 -10.969  1.00  0.00    -0.183 N
HETATM   15  N9  UNL     1       8.120  39.543  -9.587  1.00  0.00    -0.067 N
HETATM   16  C21 UNL     1       7.004  38.234 -10.951  1.00  0.00     0.216 A
ATOM     17  H7  UNL     1       8.697  37.115 -11.528  1.00  0.00     0.185 HD
HETATM   18  N8  UNL     1       6.910  39.265 -10.095  1.00  0.00    -0.273 N
ATOM     19  H8  UNL     1       6.049  39.761  -9.865  1.00  0.00     0.189 HD
HETATM   20  C22 UNL     1       8.353  40.525  -8.700  1.00  0.00     0.155 C
BRANCH   8  21
HETATM   21  N4  UNL     1      11.894  41.615  -8.728  1.00  0.00    -0.205 N
BRANCH  21  22
HETATM   22  O6  UNL     1      12.241  42.494  -9.674  1.00  0.00    -0.283 OA
ATOM     23  H6  UNL     1      12.988  43.078  -9.622  1.00  0.00     0.245 HD
ENDBRANCH  21  22
BRANCH  21  24
HETATM   24  C16 UNL     1      12.780  41.594  -7.561  1.00  0.00     0.332 A
HETATM   25  O7  UNL     1      12.171  41.987  -6.377  1.00  0.00    -0.312 OA
HETATM   26  C17 UNL     1      13.049  43.064  -6.139  1.00  0.00     0.253 A
HETATM   27  C19 UNL     1      13.685  42.739  -7.438  1.00  0.00     0.241 A
HETATM   28  O10 UNL     1      14.581  43.247  -8.085  1.00  0.00    -0.287 OA
BRANCH  26  29
HETATM   29  O8  UNL     1      12.409  44.299  -6.077  1.00  0.00    -0.358 OA
ATOM     30  H8  UNL     1      12.613  44.792  -5.291  1.00  0.00     0.213 HD
ENDBRANCH  26  29
BRANCH  26  31
HETATM   31  C18 UNL     1      13.923  42.868  -4.924  1.00  0.00     0.241 C
BRANCH  31  32
HETATM   32  O9  UNL     1      13.533  43.859  -3.994  1.00  0.00    -0.395 OA
ATOM     33  H9  UNL     1      14.225  43.901  -3.344  1.00  0.00     0.209 HD
ENDBRANCH  31  32
ENDBRANCH  26  31
ENDBRANCH  21  24
ENDBRANCH   8  21
BRANCH  20  34
HETATM   34  N10 UNL     1       7.309  40.879  -8.039  1.00  0.00    -0.383 N
ATOM     35 2H10 UNL     1       7.494  41.599  -7.340  1.00  0.00     0.157 HD
ATOM     36 1H10 UNL     1       6.423  40.425  -8.263  1.00  0.00     0.157 HD
ENDBRANCH  20  34
ENDBRANCH   6   7
BRANCH   1  37
HETATM   37  N1  UNL     1       9.458  43.983  -9.623  1.00  0.00    -0.352 N
ATOM     38  H1  UNL     1       9.492  43.230 -10.312  1.00  0.00     0.162 HD
BRANCH  37  39
HETATM   39  C3  UNL     1       9.525  45.362 -10.049  1.00  0.00     0.213 C
BRANCH  39  40
HETATM   40  C2  UNL     1       9.234  45.495 -11.533  1.00  0.00     0.147 C
HETATM   41  C1  UNL     1       9.410  44.185 -12.252  1.00  0.00     0.042 C
BRANCH  40  42
HETATM   42  O1  UNL     1      10.160  46.399 -12.101  1.00  0.00    -0.393 OA
ATOM     43  H1  UNL     1      11.011  46.185 -11.737  1.00  0.00     0.210 HD
ENDBRANCH  40  42
ENDBRANCH  39  40
BRANCH  39  44
HETATM   44  C23 UNL     1      10.860  45.960  -9.786  1.00  0.00     0.199 C
HETATM   45  O11 UNL     1      10.915  47.176  -9.480  1.00  0.00    -0.646 OA
HETATM   46  O12 UNL     1      12.034  45.262  -9.854  1.00  0.00    -0.646 OA
ENDBRANCH  39  44
ENDBRANCH  37  39
ENDBRANCH   1  37
BRANCH   3  47
HETATM   47  C6  UNL     1       8.892  44.598  -4.821  1.00  0.00     0.042 A
HETATM   48  C7  UNL     1       7.836  45.504  -4.788  1.00  0.00     0.021 A
HETATM   49  C8  UNL     1       7.570  46.212  -3.646  1.00  0.00     0.037 A
HETATM   50  C9  UNL     1       8.322  46.061  -2.512  1.00  0.00     0.067 A
HETATM   51  C10 UNL     1       9.374  45.156  -2.553  1.00  0.00     0.066 A
HETATM   52  C11 UNL     1       9.643  44.443  -3.698  1.00  0.00     0.049 A
BRANCH  50  53
HETATM   53  O3  UNL     1       8.059  46.769  -1.365  1.00  0.00    -0.361 OA
ATOM     54  H3  UNL     1       8.141  46.378  -0.503  1.00  0.00     0.217 HD
ENDBRANCH  50  53
BRANCH  52  55
HETATM   55  N2  UNL     1      10.737  43.557  -3.657  1.00  0.00    -0.341 N
ATOM     56  H2  UNL     1      11.631  43.873  -4.030  1.00  0.00     0.164 HD
BRANCH  55  57
HETATM   57  C12 UNL     1      10.653  42.208  -3.105  1.00  0.00     0.365 C
BRANCH  57  58
HETATM   58  O4  UNL     1      11.750  41.880  -2.332  1.00  0.00    -0.355 OA
ATOM     59  H4  UNL     1      11.572  41.940  -1.400  1.00  0.00     0.214 HD
ENDBRANCH  57  58
BRANCH  57  60
HETATM   60  O5  UNL     1      10.376  41.245  -4.061  1.00  0.00    -0.355 OA
ATOM     61  H5  UNL     1       9.855  40.525  -3.726  1.00  0.00     0.214 HD
ENDBRANCH  57  60
ENDBRANCH  55  57
ENDBRANCH  52  55
ENDBRANCH   3  47
TORSDOF 19
ENDMDL