MODEL 2
REMARK VINA RESULT: -9.581938157      2.801      3.682
REMARK  16 active torsions:
REMARK  status: ('A' for Active; 'I' for Inactive)
REMARK    1  A    between atoms: C2_2  and  O2_4
REMARK    2  A    between atoms: O2_4  and  C3_5
REMARK    3  A    between atoms: C3_5  and  C4_6
REMARK    4  A    between atoms: N1_8  and  C6_9
REMARK    5  A    between atoms: C6_9  and  N2_10
REMARK    6  A    between atoms: N2_10  and  C7_13
REMARK    7  A    between atoms: C7_13  and  C8_14
REMARK    8  A    between atoms: C8_14  and  C9_15
REMARK    9  A    between atoms: C9_15  and  C10_16
REMARK   10  A    between atoms: C10_16  and  N3_17
REMARK   11  A    between atoms: C10_16  and  C20_52
REMARK   12  A    between atoms: N3_17  and  C11_19
REMARK   13  A    between atoms: N10_33  and  N11_34
REMARK   14  A    between atoms: N11_34  and  C15_36
REMARK   15  A    between atoms: N14_45  and  N15_46
REMARK   16  A    between atoms: C19_49  and  O4_50
ROOT
HETATM    1  C11 UNL     1       9.773  44.837  -4.300  1.00  0.00     0.680 A
HETATM    2  N4  UNL     1       9.235  44.504  -5.435  1.00  0.00    -0.176 N
ATOM      3  H4  UNL     1       8.234  44.651  -5.562  1.00  0.00     0.182 HD
HETATM    4  C12 UNL     1       9.982  43.944  -6.508  1.00  0.00     0.249 A
HETATM    5  N5  UNL     1      11.389  43.752  -6.224  1.00  0.00    -0.316 N
ATOM      6  H5  UNL     1      11.972  43.338  -6.952  1.00  0.00     0.166 HD
HETATM    7  C13 UNL     1      11.934  44.063  -5.143  1.00  0.00     0.206 A
HETATM    8  N6  UNL     1      13.324  43.861  -4.904  1.00  0.00    -0.063 NA
HETATM    9  N7  UNL     1      11.157  44.640  -4.076  1.00  0.00    -0.164 N
ATOM     10  H7  UNL     1      11.589  44.898  -3.189  1.00  0.00     0.187 HD
HETATM   11  N8  UNL     1       9.442  42.735  -7.076  1.00  0.00    -0.315 N
ATOM     12  H8  UNL     1       9.055  41.970  -6.525  1.00  0.00     0.166 HD
HETATM   13  C14 UNL     1       9.506  42.736  -8.361  1.00  0.00     0.211 C
HETATM   14  N9  UNL     1       9.027  41.629  -9.152  1.00  0.00    -0.062 NA
HETATM   15  N10 UNL     1      10.078  43.942  -8.846  1.00  0.00    -0.227 N
HETATM   16  C19 UNL     1       9.919  44.894  -7.736  1.00  0.00     0.316 C
ENDROOT
BRANCH   1  17
HETATM   17  N3  UNL     1       8.977  45.396  -3.268  1.00  0.00    -0.212 N
ATOM     18  H3  UNL     1       8.400  44.729  -2.758  1.00  0.00     0.178 HD
BRANCH  17  19
HETATM   19  C10 UNL     1       8.864  46.735  -2.840  1.00  0.00     0.200 C
BRANCH  19  20
HETATM   20  C9  UNL     1       8.955  47.018  -1.379  1.00  0.00     0.038 C
BRANCH  20  21
HETATM   21  C8  UNL     1       9.949  48.083  -1.033  1.00  0.00     0.030 C
BRANCH  21  22
HETATM   22  C7  UNL     1       9.460  49.484  -1.130  1.00  0.00     0.234 C
BRANCH  22  23
HETATM   23  N2  UNL     1      10.024  50.416  -0.216  1.00  0.00    -0.058 N
ATOM     24  H22 UNL     1       9.373  50.622   0.541  1.00  0.00     0.279 HD
ATOM     25  H21 UNL     1      10.091  51.343  -0.637  1.00  0.00     0.279 HD
BRANCH  23  26
HETATM   26  C6  UNL     1      11.310  49.992   0.308  1.00  0.00     0.377 C
BRANCH  26  27
HETATM   27  N1  UNL     1      11.276  49.825   1.732  1.00  0.00    -0.259 N
HETATM   28  C5  UNL     1      10.159  49.631   2.464  1.00  0.00     0.138 A
HETATM   29  C4  UNL     1      10.519  49.506   3.785  1.00  0.00     0.065 A
HETATM   30  N17 UNL     1      11.862  49.630   3.811  1.00  0.00    -0.285 N
HETATM   31  N16 UNL     1      12.294  49.820   2.578  1.00  0.00    -0.019 NA
ATOM     32  H17 UNL     1      12.446  49.586   4.645  1.00  0.00     0.184 HD
BRANCH  29  33
HETATM   33  C3  UNL     1       9.592  49.280   4.917  1.00  0.00     0.238 C
BRANCH  33  34
HETATM   34  O2  UNL     1       9.312  50.455   5.632  1.00  0.00    -0.316 OA
BRANCH  34  35
HETATM   35  C2  UNL     1       9.277  50.560   6.994  1.00  0.00     0.255 C
HETATM   36  C1  UNL     1       8.328  49.768   7.841  1.00  0.00     0.126 C
HETATM   37  O1  UNL     1      10.057  51.343   7.579  1.00  0.00    -0.266 OA
ENDBRANCH  34  35
ENDBRANCH  33  34
ENDBRANCH  29  33
ENDBRANCH  26  27
ENDBRANCH  23  26
ENDBRANCH  22  23
ENDBRANCH  21  22
ENDBRANCH  20  21
ENDBRANCH  19  20
BRANCH  19  38
HETATM   38  C20 UNL     1       7.571  47.343  -3.316  1.00  0.00     0.197 C
HETATM   39  O5  UNL     1       7.548  48.368  -4.031  1.00  0.00    -0.646 OA
HETATM   40  O6  UNL     1       6.382  46.751  -2.949  1.00  0.00    -0.646 OA
ENDBRANCH  19  38
ENDBRANCH  17  19
ENDBRANCH   1  17
BRANCH  16  41
HETATM   41  O4  UNL     1      11.014  45.725  -7.621  1.00  0.00    -0.369 OA
ATOM     42  H4  UNL     1      10.876  46.421  -8.252  1.00  0.00     0.212 HD
ENDBRANCH  16  41
BRANCH  15  43
HETATM   43  N11 UNL     1      10.656  44.199 -10.081  1.00  0.00    -0.275 N
ATOM     44  H11 UNL     1      11.610  43.859 -10.210  1.00  0.00     0.189 HD
BRANCH  43  45
HETATM   45  C15 UNL     1      10.090  44.867 -11.170  1.00  0.00     0.174 A
HETATM   46  C16 UNL     1      10.352  46.234 -11.311  1.00  0.00     0.161 A
HETATM   47  N12 UNL     1      11.142  46.962 -10.382  1.00  0.00    -0.092 NA
HETATM   48  C17 UNL     1       9.839  46.938 -12.379  1.00  0.00     0.275 A
HETATM   49  O3  UNL     1      10.068  48.171 -12.517  1.00  0.00    -0.266 OA
HETATM   50  N13 UNL     1       9.076  46.255 -13.280  1.00  0.00    -0.297 N
HETATM   51  C18 UNL     1       8.839  44.942 -13.119  1.00  0.00     0.201 A
ATOM     52  H13 UNL     1       8.681  46.745 -14.082  1.00  0.00     0.171 HD
HETATM   53  S1  UNL     1       7.916  44.177 -14.237  1.00  0.00    -0.038 SA
HETATM   54  N14 UNL     1       9.328  44.225 -12.082  1.00  0.00    -0.216 N
BRANCH  54  55
HETATM   55  N15 UNL     1       9.042  42.860 -11.985  1.00  0.00    -0.335 N
ATOM     56 2H15 UNL     1       9.075  42.398 -11.076  1.00  0.00     0.177 HD
ATOM     57 1H15 UNL     1       8.795  42.298 -12.799  1.00  0.00     0.177 HD
ENDBRANCH  54  55
ENDBRANCH  43  45
ENDBRANCH  15  43
TORSDOF 16
ENDMDL