MODEL 2
REMARK VINA RESULT: -8.280871010      1.245      1.867
REMARK  19 active torsions:
REMARK  status: ('A' for Active; 'I' for Inactive)
REMARK    1  A    between atoms: O1_2  and  C2_3
REMARK    2  A    between atoms: C2_3  and  O2_4
REMARK    3  A    between atoms: C2_3  and  C3_6
REMARK    4  A    between atoms: C3_6  and  C4_7
REMARK    5  A    between atoms: C4_7  and  C5_8
REMARK    6  A    between atoms: C4_7  and  N14_53
REMARK    7  A    between atoms: C5_8  and  C6_9
REMARK    8  A    between atoms: C6_9  and  O3_10
REMARK    9  A    between atoms: C6_9  and  C7_12
REMARK   10  A    between atoms: N3_16  and  C8_17
REMARK   11  A    between atoms: C10_24  and  N7_25
REMARK   12  A    between atoms: C12_27  and  C13_28
REMARK   13  A    between atoms: C13_28  and  O4_29
REMARK   14  A    between atoms: O4_29  and  C14_30
REMARK   15  A    between atoms: C18_35  and  N8_36
REMARK   16  A    between atoms: C19_41  and  N10_42
REMARK   17  A    between atoms: N10_42  and  N11_44
REMARK   18  A    between atoms: N11_44  and  N12_45
REMARK   19  A    between atoms: C20_50  and  O6_51
REMARK       I    between atoms: N14_53  and  C21_55
ROOT
HETATM    1  C8  UNL     1       9.593  46.995  -3.094  1.00  0.00     0.251 C
HETATM    2  N4  UNL     1       8.216  47.478  -3.293  1.00  0.00    -0.339 N
ATOM      3  H4  UNL     1       7.959  48.371  -3.713  1.00  0.00     0.164 HD
HETATM    4  C9  UNL     1       7.370  46.573  -2.844  1.00  0.00     0.187 C
HETATM    5  N5  UNL     1       5.982  46.771  -2.899  1.00  0.00    -0.064 NA
HETATM    6  N6  UNL     1       8.103  45.460  -2.377  1.00  0.00    -0.340 N
ATOM      7  H6  UNL     1       7.785  44.751  -1.716  1.00  0.00     0.164 HD
HETATM    8  C10 UNL     1       9.420  45.527  -3.037  1.00  0.00     0.235 C
ENDROOT
BRANCH   8   9
HETATM    9  N7  UNL     1       9.456  44.774  -4.246  1.00  0.00    -0.325 N
HETATM   10  C11 UNL     1       9.618  45.321  -5.503  1.00  0.00     0.105 A
HETATM   11  C12 UNL     1       9.564  44.336  -6.459  1.00  0.00     0.013 A
HETATM   12  C16 UNL     1       9.369  43.139  -5.714  1.00  0.00     0.105 A
HETATM   13  C17 UNL     1       9.306  43.428  -4.372  1.00  0.00     0.110 A
HETATM   14  N13 UNL     1       9.421  41.867  -6.166  1.00  0.00    -0.104 N
HETATM   15  C18 UNL     1       9.275  42.372  -3.483  1.00  0.00     0.144 A
HETATM   16  N9  UNL     1       9.332  41.125  -3.953  1.00  0.00    -0.173 N
HETATM   17  C19 UNL     1       9.410  40.855  -5.251  1.00  0.00     0.710 A
ATOM     18  H9  UNL     1       9.314  40.350  -3.291  1.00  0.00     0.186 HD
HETATM   19  S1  UNL     1       9.544  41.499  -7.876  1.00  0.00     0.067 SA
BRANCH  11  20
HETATM   20  C13 UNL     1       9.348  44.354  -7.911  1.00  0.00     0.221 C
BRANCH  20  21
HETATM   21  O4  UNL     1      10.414  44.632  -8.779  1.00  0.00    -0.317 OA
BRANCH  21  22
HETATM   22  C14 UNL     1      10.227  45.895  -9.476  1.00  0.00     0.255 C
HETATM   23  C15 UNL     1       9.383  46.000 -10.654  1.00  0.00     0.126 C
HETATM   24  O5  UNL     1      10.817  46.883  -9.001  1.00  0.00    -0.266 OA
ENDBRANCH  21  22
ENDBRANCH  20  21
ENDBRANCH  11  20
BRANCH  15  25
HETATM   25  N8  UNL     1       9.106  42.573  -2.216  1.00  0.00    -0.383 N
ATOM     26  H82 UNL     1       9.608  41.997  -1.540  1.00  0.00     0.157 HD
ATOM     27  H81 UNL     1       8.426  43.255  -1.879  1.00  0.00     0.157 HD
ENDBRANCH  15  25
BRANCH  17  28
HETATM   28  N10 UNL     1       9.704  39.724  -5.753  1.00  0.00    -0.115 N
ATOM     29  H10 UNL     1      10.560  39.710  -6.308  1.00  0.00     0.203 HD
BRANCH  28  30
HETATM   30  N11 UNL     1       9.054  38.524  -5.667  1.00  0.00    -0.015 NA
BRANCH  30  31
HETATM   31  N12 UNL     1       7.656  38.702  -5.827  1.00  0.00    -0.328 N
ATOM     32 2H12 UNL     1       6.958  38.338  -5.178  1.00  0.00     0.174 HD
ATOM     33 1H12 UNL     1       7.458  39.238  -6.671  1.00  0.00     0.174 HD
ENDBRANCH  30  31
ENDBRANCH  28  30
ENDBRANCH  17  28
ENDBRANCH   8   9
BRANCH   1  34
HETATM   34  N3  UNL     1       9.858  47.345  -1.649  1.00  0.00    -0.226 N
HETATM   35  N2  UNL     1      10.238  46.500  -0.686  1.00  0.00    -0.016 NA
HETATM   36  N1  UNL     1      10.362  47.206   0.445  1.00  0.00    -0.281 N
HETATM   37  C7  UNL     1      10.067  48.461   0.225  1.00  0.00     0.104 A
ATOM     38  H1  UNL     1      10.645  46.822   1.346  1.00  0.00     0.184 HD
HETATM   39  C20 UNL     1       9.744  48.534  -1.138  1.00  0.00     0.184 A
BRANCH  37  40
HETATM   40  C6  UNL     1       9.966  49.597   1.155  1.00  0.00     0.175 C
BRANCH  40  41
HETATM   41  C5  UNL     1       9.344  49.164   2.422  1.00  0.00     0.063 C
BRANCH  41  42
HETATM   42  C4  UNL     1      10.112  48.783   3.618  1.00  0.00     0.091 C
BRANCH  42  43
HETATM   43  C3  UNL     1      11.568  49.124   3.300  1.00  0.00     0.085 C
BRANCH  43  44
HETATM   44  C2  UNL     1      11.929  50.519   3.145  1.00  0.00     0.258 C
BRANCH  44  45
HETATM   45  O1  UNL     1      11.399  51.374   4.162  1.00  0.00    -0.366 OA
HETATM   46  C1  UNL     1      10.734  52.414   3.452  1.00  0.00     0.204 C
ENDBRANCH  44  45
BRANCH  44  47
HETATM   47  O2  UNL     1      13.345  50.558   3.707  1.00  0.00    -0.371 OA
ATOM     48  H2  UNL     1      13.754  50.462   2.854  1.00  0.00     0.212 HD
ENDBRANCH  44  47
ENDBRANCH  43  44
ENDBRANCH  42  43
BRANCH  42  49
HETATM   49  N14 UNL     1       9.715  49.200   4.892  1.00  0.00    -0.357 N
HETATM   50  C21 UNL     1       9.119  48.539   5.965  1.00  0.00     0.213 C
HETATM   51  C22 UNL     1       8.822  49.270   7.232  1.00  0.00     0.117 C
HETATM   52  O7  UNL     1       8.817  47.328   5.905  1.00  0.00    -0.274 OA
ATOM     53  H14 UNL     1       9.897  50.188   5.073  1.00  0.00     0.162 HD
ENDBRANCH  42  49
ENDBRANCH  41  42
ENDBRANCH  40  41
BRANCH  40  54
HETATM   54  O3  UNL     1       9.477  50.752   0.568  1.00  0.00    -0.389 OA
ATOM     55  H3  UNL     1       9.888  51.040  -0.238  1.00  0.00     0.210 HD
ENDBRANCH  40  54
ENDBRANCH  37  40
BRANCH  39  56
HETATM   56  O6  UNL     1       9.377  49.733  -1.751  1.00  0.00    -0.344 OA
ATOM     57  H6  UNL     1       9.531  49.896  -2.674  1.00  0.00     0.219 HD
ENDBRANCH  39  56
ENDBRANCH   1  34
TORSDOF 19
ENDMDL