MODEL 5
REMARK VINA RESULT: -6.523464061      2.282      5.643
REMARK  19 active torsions:
REMARK  status: ('A' for Active; 'I' for Inactive)
REMARK    1  A    between atoms: C2_2  and  N1_3
REMARK    2  A    between atoms: C2_2  and  C3_7
REMARK    3  A    between atoms: C3_7  and  N2_8
REMARK    4  A    between atoms: C3_7  and  C19_58
REMARK    5  A    between atoms: N2_8  and  N3_10
REMARK    6  A    between atoms: C4_13  and  C5_14
REMARK    7  A    between atoms: C5_14  and  N5_15
REMARK    8  A    between atoms: C5_14  and  N7_24
REMARK    9  A    between atoms: N5_15  and  C6_17
REMARK   10  A    between atoms: C6_17  and  C7_18
REMARK   11  A    between atoms: C7_18  and  C8_20
REMARK   12  A    between atoms: C8_20  and  N6_21
REMARK   13  A    between atoms: C11_25  and  C12_26
REMARK   14  A    between atoms: C13_32  and  N10_33
REMARK   15  A    between atoms: N10_33  and  N11_35
REMARK   16  A    between atoms: C14_41  and  N14_42
REMARK   17  A    between atoms: C15_47  and  N16_48
REMARK   18  A    between atoms: C18_55  and  O3_56
REMARK   19  A    between atoms: C21_61  and  N18_62
ROOT
HETATM    1  C5  UNL     1       9.444  43.903  -6.959  1.00  0.00     0.261 C
ENDROOT
BRANCH   1   2
HETATM    2  C4  UNL     1       9.828  44.657  -8.209  1.00  0.00     0.075 A
HETATM    3  N4  UNL     1       9.516  44.419  -9.482  1.00  0.00    -0.278 N
HETATM    4  N3  UNL     1      10.048  45.312 -10.309  1.00  0.00    -0.176 N
ATOM      5  H4  UNL     1       8.934  43.639  -9.788  1.00  0.00     0.189 HD
HETATM    6  C18 UNL     1      10.735  46.166  -9.552  1.00  0.00     0.180 A
HETATM    7  C17 UNL     1      10.617  45.783  -8.227  1.00  0.00     0.090 A
BRANCH   4   8
HETATM    8  N2  UNL     1       9.910  45.292 -11.677  1.00  0.00    -0.300 N
ATOM      9  H2  UNL     1      10.456  44.587 -12.172  1.00  0.00     0.183 HD
BRANCH   8  10
HETATM   10  C3  UNL     1       9.100  46.134 -12.486  1.00  0.00     0.181 C
BRANCH  10  11
HETATM   11  C2  UNL     1       9.993  46.984 -13.419  1.00  0.00     0.209 C
HETATM   12  C1  UNL     1       9.118  47.688 -14.443  1.00  0.00     0.042 C
BRANCH  11  13
HETATM   13  N1  UNL     1      10.652  48.008 -12.634  1.00  0.00    -0.073 N
ATOM     14  H13 UNL     1      10.101  48.861 -12.548  1.00  0.00     0.274 HD
ATOM     15  H12 UNL     1      10.699  47.779 -11.640  1.00  0.00     0.274 HD
ATOM     16  H11 UNL     1      11.571  48.167 -13.049  1.00  0.00     0.274 HD
ENDBRANCH  11  13
ENDBRANCH  10  11
BRANCH  10  17
HETATM   17  C19 UNL     1       8.228  45.274 -13.416  1.00  0.00     0.044 A
HETATM   18  C20 UNL     1       8.796  44.281 -14.167  1.00  0.00     0.080 A
HETATM   19  S1  UNL     1       7.454  43.641 -14.999  1.00  0.00    -0.064 SA
HETATM   20  C21 UNL     1       6.251  44.659 -14.354  1.00  0.00     0.142 A
HETATM   21  N19 UNL     1       6.930  45.448 -13.528  1.00  0.00    -0.338 N
ATOM     22  H19 UNL     1       6.453  46.173 -12.993  1.00  0.00     0.168 HD
BRANCH  20  23
HETATM   23  N18 UNL     1       4.955  44.689 -14.592  1.00  0.00    -0.380 N
ATOM     24 2H18 UNL     1       4.305  43.905 -14.543  1.00  0.00     0.158 HD
ATOM     25 1H18 UNL     1       4.358  45.472 -14.862  1.00  0.00     0.158 HD
ENDBRANCH  20  23
ENDBRANCH  10  17
ENDBRANCH   8  10
ENDBRANCH   4   8
BRANCH   6  26
HETATM   26  O3  UNL     1      11.481  47.284  -9.934  1.00  0.00    -0.344 OA
ATOM     27  H3  UNL     1      12.335  47.570  -9.632  1.00  0.00     0.219 HD
ENDBRANCH   6  26
ENDBRANCH   1   2
BRANCH   1  28
HETATM   28  N5  UNL     1       9.821  44.727  -5.855  1.00  0.00    -0.369 N
ATOM     29  H5  UNL     1      10.690  45.260  -5.884  1.00  0.00     0.161 HD
BRANCH  28  30
HETATM   30  C6  UNL     1       8.987  44.796  -4.734  1.00  0.00     0.137 C
BRANCH  30  31
HETATM   31  C7  UNL     1       9.549  45.303  -3.494  1.00  0.00     0.192 C
HETATM   32  O1  UNL     1      10.620  44.922  -3.086  1.00  0.00    -0.290 OA
BRANCH  31  33
HETATM   33  C8  UNL     1       8.804  46.311  -2.706  1.00  0.00     0.355 C
BRANCH  33  34
HETATM   34  N6  UNL     1       9.261  47.663  -2.910  1.00  0.00     0.087 N
HETATM   35  C9  UNL     1       9.150  48.480  -1.718  1.00  0.00     0.309 C
HETATM   36  C10 UNL     1       8.405  48.240  -3.939  1.00  0.00     0.309 C
ENDBRANCH  33  34
ENDBRANCH  31  33
ENDBRANCH  30  31
ENDBRANCH  28  30
ENDBRANCH   1  28
BRANCH   1  37
HETATM   37  N7  UNL     1      10.248  42.683  -6.883  1.00  0.00    -0.134 N
HETATM   38  C11 UNL     1       9.973  41.505  -7.435  1.00  0.00     0.175 A
HETATM   39  N12 UNL     1      11.014  40.707  -7.083  1.00  0.00    -0.246 N
HETATM   40  N13 UNL     1      11.881  41.360  -6.356  1.00  0.00     0.093 N
ATOM     41  H12 UNL     1      11.107  39.727  -7.351  1.00  0.00     0.190 HD
HETATM   42  C14 UNL     1      13.055  41.018  -5.778  1.00  0.00     0.727 A
HETATM   43  C16 UNL     1      11.439  42.599  -6.208  1.00  0.00     0.739 A
HETATM   44  N15 UNL     1      13.720  41.958  -5.078  1.00  0.00    -0.020 N
HETATM   45  C15 UNL     1      13.263  43.214  -4.932  1.00  0.00     0.705 A
ATOM     46  H15 UNL     1      14.606  41.706  -4.641  1.00  0.00     0.203 HD
HETATM   47  N17 UNL     1      12.101  43.541  -5.509  1.00  0.00    -0.019 N
ATOM     48  H17 UNL     1      11.724  44.485  -5.421  1.00  0.00     0.203 HD
BRANCH  38  49
HETATM   49  C12 UNL     1       8.841  41.128  -8.233  1.00  0.00     0.149 A
HETATM   50  N8  UNL     1       8.511  41.321  -9.505  1.00  0.00    -0.234 N
HETATM   51  O2  UNL     1       7.373  40.775  -9.760  1.00  0.00    -0.155 OA
ATOM     52  H8  UNL     1       9.078  41.830 -10.184  1.00  0.00     0.197 HD
HETATM   53  N9  UNL     1       6.888  40.205  -8.718  1.00  0.00    -0.222 N
HETATM   54  C13 UNL     1       7.759  40.392  -7.734  1.00  0.00     0.174 A
ATOM     55  H9  UNL     1       6.002  39.704  -8.656  1.00  0.00     0.198 HD
BRANCH  54  56
HETATM   56  N10 UNL     1       7.635  39.965  -6.505  1.00  0.00    -0.289 N
ATOM     57  H10 UNL     1       8.173  40.423  -5.769  1.00  0.00     0.188 HD
BRANCH  56  58
HETATM   58  N11 UNL     1       6.804  38.921  -6.166  1.00  0.00    -0.344 N
ATOM     59 2H11 UNL     1       7.233  38.015  -5.975  1.00  0.00     0.176 HD
ATOM     60 1H11 UNL     1       5.791  39.027  -6.103  1.00  0.00     0.176 HD
ENDBRANCH  56  58
ENDBRANCH  54  56
ENDBRANCH  38  49
BRANCH  42  61
HETATM   61  N14 UNL     1      13.495  39.825  -5.914  1.00  0.00    -0.232 N
ATOM     62 2H14 UNL     1      13.151  39.048  -5.350  1.00  0.00     0.174 HD
ATOM     63 1H14 UNL     1      14.218  39.636  -6.608  1.00  0.00     0.174 HD
ENDBRANCH  42  61
BRANCH  45  64
HETATM   64  N16 UNL     1      13.953  44.092  -4.237  1.00  0.00    -0.234 N
ATOM     65 2H16 UNL     1      14.369  43.848  -3.338  1.00  0.00     0.174 HD
ATOM     66 1H16 UNL     1      14.083  45.040  -4.592  1.00  0.00     0.174 HD
ENDBRANCH  45  64
ENDBRANCH   1  37
TORSDOF 19
ENDMDL