MODEL 5
REMARK VINA RESULT: -4.878130082      2.125      3.179
REMARK  3 active torsions:
REMARK  status: ('A' for Active; 'I' for Inactive)
REMARK    1  A    between atoms: N1_2  and  C2_4
REMARK    2  A    between atoms: C3_7  and  N3_8
REMARK    3  A    between atoms: C5_13  and  N5_14
ROOT
HETATM    1  C2  UNL     1      42.846  24.524 100.634  1.00  0.00     0.683 A
HETATM    2  N2  UNL     1      42.746  23.275 100.157  1.00  0.00    -0.169 N
ATOM      3  H2  UNL     1      42.283  23.127  99.260  1.00  0.00     0.186 HD
HETATM    4  C3  UNL     1      43.234  22.212 100.819  1.00  0.00     0.216 A
HETATM    5  C4  UNL     1      43.854  22.445 102.028  1.00  0.00     0.141 A
HETATM    6  N4  UNL     1      44.393  21.375 102.782  1.00  0.00    -0.094 NA
HETATM    7  C5  UNL     1      43.971  23.721 102.541  1.00  0.00     0.145 A
HETATM    8  N6  UNL     1      43.452  24.740 101.811  1.00  0.00    -0.171 N
HETATM    9  C6  UNL     1      43.546  26.086 102.299  1.00  0.00     0.177 C
ENDROOT
BRANCH   1  10
HETATM   10  N1  UNL     1      42.374  25.524  99.987  1.00  0.00    -0.230 N
HETATM   11  C1  UNL     1      42.697  25.645  98.580  1.00  0.00     0.165 C
ATOM     12  H1  UNL     1      41.786  26.217 100.450  1.00  0.00     0.177 HD
ENDBRANCH   1  10
BRANCH   4  13
HETATM   13  N3  UNL     1      43.114  20.879 100.288  1.00  0.00    -0.095 N
HETATM   14  O1  UNL     1      43.610  20.651  99.170  1.00  0.00    -0.530 OA
HETATM   15  O2  UNL     1      42.489  19.878 100.957  1.00  0.00    -0.530 OA
ENDBRANCH   4  13
BRANCH   7  16
HETATM   16  N5  UNL     1      44.552  23.969 103.679  1.00  0.00    -0.383 N
ATOM     17  H52 UNL     1      44.375  23.365 104.482  1.00  0.00     0.157 HD
ATOM     18  H51 UNL     1      45.190  24.753 103.811  1.00  0.00     0.157 HD
ENDBRANCH   7  16
TORSDOF 3
ENDMDL