MODEL 4
REMARK VINA RESULT: -5.893003480      2.316      3.377
REMARK  3 active torsions:
REMARK  status: ('A' for Active; 'I' for Inactive)
REMARK    1  A    between atoms: C4_8  and  S1_9
REMARK    2  A    between atoms: S1_9  and  N4_10
REMARK    3  A    between atoms: C5_17  and  N6_18
ROOT
HETATM    1  N1  UNL     1      43.947  24.767  94.482  1.00  0.00    -0.191 NA
HETATM    2  C1  UNL     1      43.771  24.714  95.639  1.00  0.00     0.106 C
HETATM    3  C2  UNL     1      43.581  24.652  97.062  1.00  0.00     0.129 A
HETATM    4  C3  UNL     1      42.953  25.675  97.762  1.00  0.00     0.143 A
HETATM    5  N2  UNL     1      42.505  26.797  97.002  1.00  0.00    -0.081 NA
HETATM    6  N3  UNL     1      42.768  25.631  99.091  1.00  0.00    -0.319 N
ATOM      7  H3  UNL     1      42.303  26.404  99.569  1.00  0.00     0.169 HD
HETATM    8  C4  UNL     1      43.192  24.578  99.781  1.00  0.00     0.226 A
HETATM    9  N5  UNL     1      43.802  23.572  99.135  1.00  0.00    -0.317 N
ATOM     10  H5  UNL     1      44.124  22.769  99.676  1.00  0.00     0.169 HD
HETATM   11  C5  UNL     1      44.007  23.575  97.814  1.00  0.00     0.125 A
ENDROOT
BRANCH  11  12
HETATM   12  N6  UNL     1      44.602  22.576  97.242  1.00  0.00    -0.384 N
ATOM     13  H62 UNL     1      44.056  21.823  96.823  1.00  0.00     0.157 HD
ATOM     14  H61 UNL     1      45.621  22.539  97.208  1.00  0.00     0.157 HD
ENDBRANCH  11  12
BRANCH   8  15
HETATM   15  S1  UNL     1      43.005  24.411 101.510  1.00  0.00     0.289 S
HETATM   16  O1  UNL     1      44.230  23.755 102.085  1.00  0.00    -0.198 OA
HETATM   17  O2  UNL     1      42.745  25.756 102.134  1.00  0.00    -0.198 OA
BRANCH  15  18
HETATM   18  N4  UNL     1      41.649  23.410 101.836  1.00  0.00    -0.322 N
ATOM     19  H42 UNL     1      41.458  22.967 102.734  1.00  0.00     0.169 HD
ATOM     20  H41 UNL     1      41.078  23.335 100.994  1.00  0.00     0.169 HD
ENDBRANCH  15  18
ENDBRANCH   8  15
TORSDOF 3
ENDMDL