MODEL 2
REMARK VINA RESULT: -5.301522945      1.044      1.280
REMARK  3 active torsions:
REMARK  status: ('A' for Active; 'I' for Inactive)
REMARK    1  A    between atoms: N1_1  and  C1_4
REMARK    2  A    between atoms: C3_9  and  S1_10
REMARK    3  A    between atoms: S1_10  and  N4_11
ROOT
HETATM    1  C1  UNL     1      43.903  25.292  99.175  1.00  0.00     0.144 A
HETATM    2  N2  UNL     1      43.764  25.525 100.476  1.00  0.00    -0.324 N
ATOM      3  H2  UNL     1      43.862  26.470 100.847  1.00  0.00     0.169 HD
HETATM    4  C2  UNL     1      43.502  24.526 101.265  1.00  0.00     0.148 A
HETATM    5  N3  UNL     1      43.331  24.681 102.710  1.00  0.00    -0.080 NA
HETATM    6  C3  UNL     1      43.382  23.279 100.710  1.00  0.00     0.164 A
HETATM    7  S2  UNL     1      43.656  23.610  99.057  1.00  0.00    -0.037 SA
ENDROOT
BRANCH   6   8
HETATM    8  S1  UNL     1      43.033  21.753 101.518  1.00  0.00     0.266 S
HETATM    9  O1  UNL     1      43.661  20.606 100.793  1.00  0.00    -0.200 OA
HETATM   10  O2  UNL     1      41.550  21.627 101.642  1.00  0.00    -0.200 OA
BRANCH   8  11
HETATM   11  N4  UNL     1      43.735  21.849 103.092  1.00  0.00    -0.324 N
ATOM     12  H42 UNL     1      44.681  21.563 103.342  1.00  0.00     0.169 HD
ATOM     13  H41 UNL     1      43.025  22.243 103.708  1.00  0.00     0.169 HD
ENDBRANCH   8  11
ENDBRANCH   6   8
BRANCH   1  14
HETATM   14  N1  UNL     1      44.166  26.155  98.217  1.00  0.00    -0.380 N
ATOM     15  H12 UNL     1      44.888  26.875  98.187  1.00  0.00     0.158 HD
ATOM     16  H11 UNL     1      43.694  26.265  97.319  1.00  0.00     0.158 HD
ENDBRANCH   1  14
TORSDOF 3
ENDMDL