MODEL 5
REMARK VINA RESULT: -5.604438535      2.652      4.090
REMARK  2 active torsions:
REMARK  status: ('A' for Active; 'I' for Inactive)
REMARK    1  A    between atoms: O1_2  and  C2_3
REMARK    2  A    between atoms: C6_9  and  N2_10
ROOT
HETATM    1  C2  UNL     1      43.973  23.093  98.595  1.00  0.00     0.301 C
HETATM    2  C3  UNL     1      44.736  23.316  99.901  1.00  0.00     0.112 C
HETATM    3  C4  UNL     1      44.022  22.539 100.936  1.00  0.00     0.069 A
HETATM    4  C5  UNL     1      43.279  21.434 100.576  1.00  0.00     0.204 A
HETATM    5  N1  UNL     1      42.610  20.695 101.492  1.00  0.00    -0.167 N
ATOM      6  H1  UNL     1      42.069  19.882 101.198  1.00  0.00     0.186 HD
HETATM    7  C6  UNL     1      42.665  21.038 102.788  1.00  0.00     0.680 A
HETATM    8  N3  UNL     1      43.390  22.114 103.131  1.00  0.00    -0.156 N
ATOM      9  H3  UNL     1      43.425  22.367 104.118  1.00  0.00     0.187 HD
HETATM   10  C7  UNL     1      44.072  22.882 102.266  1.00  0.00     0.270 A
HETATM   11  O2  UNL     1      44.744  23.887 102.616  1.00  0.00    -0.267 OA
HETATM   12  O3  UNL     1      43.230  21.089  99.233  1.00  0.00    -0.175 OA
HETATM   13  O4  UNL     1      44.021  21.725  98.345  1.00  0.00    -0.201 OA
ENDROOT
BRANCH   7  14
HETATM   14  N2  UNL     1      42.028  20.339 103.682  1.00  0.00    -0.234 N
ATOM     15  H22 UNL     1      42.274  19.367 103.869  1.00  0.00     0.174 HD
ATOM     16  H21 UNL     1      41.265  20.755 104.216  1.00  0.00     0.174 HD
ENDBRANCH   7  14
BRANCH   1  17
HETATM   17  O1  UNL     1      44.460  23.858  97.570  1.00  0.00    -0.363 OA
HETATM   18  C1  UNL     1      43.513  24.833  97.264  1.00  0.00     0.204 C
ENDBRANCH   1  17
TORSDOF 2
ENDMDL