MODEL 5
REMARK VINA RESULT: -5.601107188      1.617      5.429
REMARK  3 active torsions:
REMARK  status: ('A' for Active; 'I' for Inactive)
REMARK    1  A    between atoms: C5_11  and  N4_12
REMARK    2  A    between atoms: C6_15  and  C7_16
REMARK       I    between atoms: C7_16  and  N5_18
REMARK    3  A    between atoms: N5_18  and  N6_20
ROOT
HETATM    1  C1  UNL     1      44.159  20.551  99.744  1.00  0.00     0.069 C
HETATM    2  C2  UNL     1      43.653  21.970  99.788  1.00  0.00     0.029 A
HETATM    3  N1  UNL     1      43.742  22.669  98.612  1.00  0.00    -0.324 N
ATOM      4  H1  UNL     1      44.099  22.232  97.761  1.00  0.00     0.169 HD
HETATM    5  C3  UNL     1      43.350  23.932  98.621  1.00  0.00     0.239 A
HETATM    6  N2  UNL     1      43.414  24.637  97.533  1.00  0.00    -0.258 N
ATOM      7  H2  UNL     1      43.771  24.194  96.686  1.00  0.00     0.181 HD
HETATM    8  C4  UNL     1      43.020  25.968  97.470  1.00  0.00     0.185 C
HETATM    9  N3  UNL     1      42.691  27.089  97.430  1.00  0.00    -0.172 NA
HETATM   10  O1  UNL     1      42.890  24.513  99.700  1.00  0.00    -0.261 OA
HETATM   11  C5  UNL     1      42.790  23.889 100.824  1.00  0.00     0.163 A
HETATM   12  C6  UNL     1      43.174  22.552 100.927  1.00  0.00     0.106 A
ENDROOT
BRANCH  11  13
HETATM   13  N4  UNL     1      42.325  24.529 101.849  1.00  0.00    -0.379 N
ATOM     14  H42 UNL     1      41.957  25.475 101.754  1.00  0.00     0.158 HD
ATOM     15  H41 UNL     1      42.335  24.066 102.759  1.00  0.00     0.158 HD
ENDBRANCH  11  13
BRANCH  12  16
HETATM   16  C7  UNL     1      42.984  21.888 102.190  1.00  0.00     0.275 C
HETATM   17  O2  UNL     1      43.853  22.228 103.093  1.00  0.00    -0.266 OA
HETATM   18  N5  UNL     1      42.021  20.954 102.590  1.00  0.00    -0.272 N
ATOM     19  H5  UNL     1      41.302  20.650 101.933  1.00  0.00     0.189 HD
BRANCH  18  20
HETATM   20  N6  UNL     1      42.046  20.429 103.907  1.00  0.00    -0.342 N
ATOM     21  H62 UNL     1      42.903  19.999 104.252  1.00  0.00     0.176 HD
ATOM     22  H61 UNL     1      41.213  20.486 104.494  1.00  0.00     0.176 HD
ENDBRANCH  18  20
ENDBRANCH  12  16
TORSDOF 3
ENDMDL