MODEL 4
REMARK VINA RESULT: -6.152426238      1.388      2.351
REMARK  1 active torsions:
REMARK  status: ('A' for Active; 'I' for Inactive)
REMARK    1  A    between atoms: C1_2  and  C2_4
ROOT
HETATM    1  C2  UNL     1      43.449  24.306  99.610  1.00  0.00     0.138 A
HETATM    2  N2  UNL     1      43.634  23.043  99.148  1.00  0.00    -0.293 N
ATOM      3  H2  UNL     1      43.481  22.857  98.157  1.00  0.00     0.187 HD
HETATM    4  N3  UNL     1      44.007  22.044  99.932  1.00  0.00    -0.283 N
ATOM      5  H3  UNL     1      44.129  21.119  99.521  1.00  0.00     0.188 HD
HETATM    6  C3  UNL     1      44.229  22.203 101.247  1.00  0.00     0.152 A
HETATM    7  N4  UNL     1      44.607  21.382 102.263  1.00  0.00    -0.281 N
ATOM      8  H4  UNL     1      44.807  20.387 102.166  1.00  0.00     0.188 HD
HETATM    9  N5  UNL     1      44.679  22.056 103.388  1.00  0.00    -0.264 N
ATOM     10  H5  UNL     1      44.940  21.678 104.299  1.00  0.00     0.190 HD
HETATM   11  C4  UNL     1      44.347  23.338 103.124  1.00  0.00     0.276 A
HETATM   12  O2  UNL     1      44.295  24.289 103.928  1.00  0.00    -0.266 OA
HETATM   13  C5  UNL     1      44.058  23.462 101.783  1.00  0.00     0.106 A
HETATM   14  C6  UNL     1      43.670  24.496 100.959  1.00  0.00     0.099 A
HETATM   15  N6  UNL     1      43.497  25.790 101.529  1.00  0.00    -0.099 NA
ENDROOT
BRANCH   1  16
HETATM   16  C1  UNL     1      43.042  25.365  98.720  1.00  0.00     0.284 C
HETATM   17  N1  UNL     1      43.918  25.809  97.707  1.00  0.00    -0.056 NA
HETATM   18  O1  UNL     1      41.920  25.896  98.836  1.00  0.00    -0.269 OA
ENDBRANCH   1  16
TORSDOF 1
ENDMDL