MODEL 5
REMARK VINA RESULT: -4.867417094      2.453      4.303
REMARK  3 active torsions:
REMARK  status: ('A' for Active; 'I' for Inactive)
REMARK    1  A    between atoms: N1_2  and  C2_4
REMARK    2  A    between atoms: C4_9  and  N4_10
REMARK    3  A    between atoms: N5_14  and  N6_16
ROOT
HETATM    1  C2  UNL     1      42.888  21.535 102.318  1.00  0.00     0.680 A
HETATM    2  N2  UNL     1      43.055  20.842 101.156  1.00  0.00    -0.176 N
ATOM      3  H2  UNL     1      42.900  19.834 101.119  1.00  0.00     0.185 HD
HETATM    4  C3  UNL     1      43.433  21.532 100.054  1.00  0.00     0.168 A
HETATM    5  N3  UNL     1      43.617  20.835  98.816  1.00  0.00    -0.079 NA
HETATM    6  C4  UNL     1      43.646  22.888 100.083  1.00  0.00     0.190 A
HETATM    7  C5  UNL     1      43.474  23.571 101.252  1.00  0.00     0.172 A
HETATM    8  N5  UNL     1      43.603  24.819 101.450  1.00  0.00    -0.289 N
ATOM      9  H5  UNL     1      43.433  25.160 102.396  1.00  0.00     0.188 HD
HETATM   10  N7  UNL     1      43.090  22.836 102.354  1.00  0.00    -0.173 N
ATOM     11  H7  UNL     1      42.957  23.324 103.240  1.00  0.00     0.186 HD
ENDROOT
BRANCH   6  12
HETATM   12  N4  UNL     1      44.057  23.561  98.916  1.00  0.00    -0.108 N
HETATM   13  O1  UNL     1      43.227  24.158  98.165  1.00  0.00    -0.532 OA
HETATM   14  O2  UNL     1      45.364  23.622  98.512  1.00  0.00    -0.532 OA
ENDBRANCH   6  12
BRANCH   8  15
HETATM   15  N6  UNL     1      43.951  25.748 100.503  1.00  0.00    -0.344 N
ATOM     16  H62 UNL     1      44.885  26.149 100.592  1.00  0.00     0.176 HD
ATOM     17  H61 UNL     1      43.362  26.063  99.733  1.00  0.00     0.176 HD
ENDBRANCH   8  15
BRANCH   1  18
HETATM   18  N1  UNL     1      42.526  20.814 103.326  1.00  0.00    -0.230 N
HETATM   19  C1  UNL     1      41.273  20.105 103.328  1.00  0.00     0.165 C
ATOM     20  H1  UNL     1      43.140  20.746 104.138  1.00  0.00     0.177 HD
ENDBRANCH   1  18
TORSDOF 3
ENDMDL