MODEL 4
REMARK VINA RESULT: -5.719875558      1.882      4.646
REMARK  2 active torsions:
REMARK  status: ('A' for Active; 'I' for Inactive)
REMARK    1  A    between atoms: C3_3  and  N1_4
REMARK    2  A    between atoms: C5_11  and  N3_12
ROOT
HETATM    1  C1  UNL     1      44.286  22.984  98.001  1.00  0.00     0.057 C
HETATM    2  C2  UNL     1      43.712  22.880  99.349  1.00  0.00     0.045 C
HETATM    3  C3  UNL     1      43.505  24.068  99.989  1.00  0.00     0.182 C
HETATM    4  C4  UNL     1      43.535  24.247 101.362  1.00  0.00     0.293 C
HETATM    5  O3  UNL     1      43.606  25.420 101.757  1.00  0.00    -0.265 OA
HETATM    6  N2  UNL     1      43.496  23.315 102.359  1.00  0.00    -0.154 N
ATOM      7  H2  UNL     1      43.640  23.658 103.308  1.00  0.00     0.187 HD
HETATM    8  C5  UNL     1      43.290  21.999 102.224  1.00  0.00     0.681 C
HETATM    9  N4  UNL     1      43.172  21.227 101.123  1.00  0.00    -0.156 N
ATOM     10  H4  UNL     1      42.850  20.270 101.267  1.00  0.00     0.187 HD
HETATM   11  C6  UNL     1      43.438  21.596  99.846  1.00  0.00     0.268 C
HETATM   12  O4  UNL     1      43.446  20.693  98.972  1.00  0.00    -0.267 OA
ENDROOT
BRANCH   3  13
HETATM   13  N1  UNL     1      43.242  25.175  99.193  1.00  0.00    -0.109 N
HETATM   14  O1  UNL     1      43.999  25.802  98.476  1.00  0.00    -0.532 OA
HETATM   15  O2  UNL     1      41.930  25.668  99.184  1.00  0.00    -0.532 OA
ENDBRANCH   3  13
BRANCH   8  16
HETATM   16  N3  UNL     1      43.179  21.323 103.327  1.00  0.00    -0.234 N
ATOM     17  H32 UNL     1      43.857  21.606 104.035  1.00  0.00     0.174 HD
ATOM     18  H31 UNL     1      42.447  20.612 103.346  1.00  0.00     0.174 HD
ENDBRANCH   8  16
TORSDOF 2
ENDMDL