MODEL 5
REMARK VINA RESULT: -5.665445176      1.904      2.814
REMARK  2 active torsions:
REMARK  status: ('A' for Active; 'I' for Inactive)
REMARK    1  A    between atoms: C1_2  and  C2_4
REMARK    2  A    between atoms: N5_12  and  O2_13
ROOT
HETATM    1  C2  UNL     1      43.375  24.223  99.356  1.00  0.00     0.136 A
HETATM    2  N2  UNL     1      43.418  22.985  98.844  1.00  0.00    -0.337 N
ATOM      3  H2  UNL     1      43.265  22.744  97.864  1.00  0.00     0.167 HD
HETATM    4  C3  UNL     1      43.698  22.102  99.836  1.00  0.00     0.133 A
HETATM    5  N3  UNL     1      43.838  20.704  99.760  1.00  0.00    -0.082 NA
HETATM    6  C4  UNL     1      43.840  22.800 101.031  1.00  0.00     0.089 A
HETATM    7  C5  UNL     1      44.097  22.721 102.387  1.00  0.00     0.186 A
HETATM    8  N4  UNL     1      44.361  21.521 103.103  1.00  0.00    -0.077 NA
HETATM    9  N5  UNL     1      44.038  23.992 102.823  1.00  0.00    -0.106 N
HETATM   10  O3  UNL     1      43.766  24.800 101.832  1.00  0.00    -0.205 OA
HETATM   11  C6  UNL     1      43.635  24.121 100.708  1.00  0.00     0.150 A
ENDROOT
BRANCH   1  12
HETATM   12  C1  UNL     1      43.105  25.449  98.616  1.00  0.00     0.284 C
HETATM   13  N1  UNL     1      44.067  26.004  97.738  1.00  0.00    -0.056 NA
HETATM   14  O1  UNL     1      42.007  26.037  98.747  1.00  0.00    -0.269 OA
ENDBRANCH   1  12
BRANCH   9  15
HETATM   15  O2  UNL     1      44.242  24.333 104.144  1.00  0.00    -0.261 OA
ATOM     16  H2  UNL     1      44.125  23.715 104.855  1.00  0.00     0.247 HD
ENDBRANCH   9  15
TORSDOF 2
ENDMDL