MODEL 4
REMARK VINA RESULT: -5.202710130      2.026      3.533
REMARK  4 active torsions:
REMARK  status: ('A' for Active; 'I' for Inactive)
REMARK    1  A    between atoms: N1_2  and  N2_3
REMARK    2  A    between atoms: N1_2  and  C2_6
REMARK    3  A    between atoms: C3_9  and  N4_10
REMARK    4  A    between atoms: C5_17  and  N6_18
ROOT
HETATM    1  C2  UNL     1      44.163  24.016 100.703  1.00  0.00     0.176 A
HETATM    2  N3  UNL     1      44.591  24.863 101.664  1.00  0.00    -0.173 N
ATOM      3  H3  UNL     1      44.889  25.801 101.392  1.00  0.00     0.186 HD
HETATM    4  C3  UNL     1      44.642  24.522 102.966  1.00  0.00     0.680 A
HETATM    5  N5  UNL     1      44.266  23.303 103.395  1.00  0.00    -0.154 N
ATOM      6  H5  UNL     1      44.310  23.058 104.384  1.00  0.00     0.187 HD
HETATM    7  C4  UNL     1      43.832  22.417 102.482  1.00  0.00     0.296 A
HETATM    8  O1  UNL     1      43.475  21.270 102.883  1.00  0.00    -0.265 OA
HETATM    9  C5  UNL     1      43.778  22.765 101.137  1.00  0.00     0.216 A
ENDROOT
BRANCH   1  10
HETATM   10  N1  UNL     1      44.107  24.369  99.331  1.00  0.00    -0.285 N
HETATM   11  C1  UNL     1      42.908  25.081  98.880  1.00  0.00     0.179 C
BRANCH  10  12
HETATM   12  N2  UNL     1      45.127  24.057  98.442  1.00  0.00    -0.342 N
ATOM     13  H22 UNL     1      45.120  24.371  97.471  1.00  0.00     0.177 HD
ATOM     14  H21 UNL     1      45.928  23.501  98.739  1.00  0.00     0.177 HD
ENDBRANCH  10  12
ENDBRANCH   1  10
BRANCH   9  15
HETATM   15  N6  UNL     1      43.319  21.789 100.221  1.00  0.00    -0.106 N
HETATM   16  O2  UNL     1      43.960  21.381  99.237  1.00  0.00    -0.531 OA
HETATM   17  O3  UNL     1      42.062  21.227 100.408  1.00  0.00    -0.531 OA
ENDBRANCH   9  15
BRANCH   4  18
HETATM   18  N4  UNL     1      45.056  25.352 103.853  1.00  0.00    -0.234 N
ATOM     19  H42 UNL     1      45.941  25.825 103.670  1.00  0.00     0.174 HD
ATOM     20  H41 UNL     1      44.518  25.528 104.702  1.00  0.00     0.174 HD
ENDBRANCH   4  18
TORSDOF 4
ENDMDL