MODEL 3
REMARK VINA RESULT: -9.624083064      2.724      6.253
REMARK  5 active torsions:
REMARK  status: ('A' for Active; 'I' for Inactive)
REMARK    1  A    between atoms: O1_2  and  C2_3
REMARK    2  A    between atoms: C10_11  and  C11_12
REMARK    3  A    between atoms: C11_12  and  N1_13
REMARK    4  A    between atoms: C21_25  and  S1_26
REMARK    5  A    between atoms: S1_26  and  N2_27
ROOT
HETATM    1  C2  UNL     1       5.187  25.922  -3.818  1.00  0.00     0.079 A
HETATM    2  C3  UNL     1       5.161  26.393  -2.504  1.00  0.00     0.037 A
HETATM    3  C4  UNL     1       4.317  27.423  -2.213  1.00  0.00     0.004 A
HETATM    4  C5  UNL     1       3.499  27.992  -3.191  1.00  0.00     0.013 A
HETATM    5  C6  UNL     1       3.516  27.521  -4.475  1.00  0.00    -0.011 A
HETATM    6  C7  UNL     1       4.398  26.468  -4.769  1.00  0.00     0.016 A
HETATM    7  C8  UNL     1       4.619  26.107  -6.087  1.00  0.00    -0.028 A
HETATM    8  C9  UNL     1       5.555  25.037  -6.467  1.00  0.00     0.050 C
HETATM    9  C10 UNL     1       3.957  26.809  -7.088  1.00  0.00     0.045 A
HETATM   10  C12 UNL     1       3.115  27.824  -6.847  1.00  0.00     0.007 A
HETATM   11  C13 UNL     1       2.520  28.508  -7.849  1.00  0.00    -0.011 A
HETATM   12  C14 UNL     1       2.874  28.305  -9.150  1.00  0.00     0.016 A
HETATM   13  C15 UNL     1       2.353  29.085 -10.167  1.00  0.00     0.038 A
HETATM   14  C16 UNL     1       1.475  30.105  -9.898  1.00  0.00     0.081 A
HETATM   15  C17 UNL     1       1.118  30.341  -8.560  1.00  0.00     0.009 A
HETATM   16  C18 UNL     1       1.599  29.566  -7.558  1.00  0.00    -0.001 A
HETATM   17  C19 UNL     1       1.290  29.837  -6.247  1.00  0.00    -0.011 A
HETATM   18  C20 UNL     1       0.113  30.515  -6.034  1.00  0.00     0.038 A
HETATM   19  C21 UNL     1      -0.453  30.541  -4.764  1.00  0.00     0.080 A
HETATM   20  C22 UNL     1       0.153  29.884  -3.739  1.00  0.00     0.026 A
HETATM   21  C23 UNL     1       1.337  29.182  -3.940  1.00  0.00     0.015 A
HETATM   22  C24 UNL     1       1.924  29.153  -5.186  1.00  0.00    -0.013 A
HETATM   23  C25 UNL     1       2.860  28.185  -5.466  1.00  0.00    -0.001 A
HETATM   24  C26 UNL     1       0.612  31.692  -8.278  1.00  0.00     0.014 C
HETATM   25  C27 UNL     1       0.504  32.568  -9.270  1.00  0.00     0.012 C
HETATM   26  C28 UNL     1       0.850  32.304 -10.665  1.00  0.00     0.078 C
HETATM   27  C29 UNL     1      -0.198  32.896 -11.602  1.00  0.00     0.051 C
HETATM   28  C30 UNL     1       2.202  32.877 -11.021  1.00  0.00     0.051 C
HETATM   29  O4  UNL     1       0.939  30.890 -10.884  1.00  0.00    -0.336 OA
ENDROOT
BRANCH  19  30
HETATM   30  S1  UNL     1      -1.939  31.426  -4.498  1.00  0.00     0.256 S
HETATM   31  O2  UNL     1      -2.357  31.259  -3.066  1.00  0.00    -0.201 OA
HETATM   32  O3  UNL     1      -3.009  30.817  -5.358  1.00  0.00    -0.201 OA
BRANCH  30  33
HETATM   33  N2  UNL     1      -1.760  33.097  -4.879  1.00  0.00    -0.324 N
ATOM     34  H22 UNL     1      -1.915  33.846  -4.205  1.00  0.00     0.169 HD
ATOM     35  H21 UNL     1      -1.484  33.233  -5.852  1.00  0.00     0.169 HD
ENDBRANCH  30  33
ENDBRANCH  19  30
BRANCH   9  36
HETATM   36  C11 UNL     1       3.928  26.068  -8.365  1.00  0.00    -0.036 C
BRANCH  36  37
HETATM   37  N1  UNL     1       3.925  25.386  -9.360  1.00  0.00    -0.365 N
ATOM     38  H12 UNL     1       2.933  25.434  -9.126  1.00  0.00     0.165 HD
ATOM     39  H11 UNL     1       4.000  24.817 -10.203  1.00  0.00     0.165 HD
ENDBRANCH  36  37
ENDBRANCH   9  36
BRANCH   1  40
HETATM   40  O1  UNL     1       6.044  24.869  -4.144  1.00  0.00    -0.355 OA
HETATM   41  C1  UNL     1       6.165  23.805  -3.226  1.00  0.00     0.210 C
ENDBRANCH   1  40
TORSDOF 5
ENDMDL