MODEL 1
REMARK VINA RESULT: -11.076862457      0.000      0.000
REMARK  1 active torsions:
REMARK  status: ('A' for Active; 'I' for Inactive)
REMARK       I    between atoms: N3_28  and  C24_29
REMARK    1  A    between atoms: C24_29  and  C25_31
ROOT
HETATM    1  C1  UNL     1       4.336  23.793  -5.546  1.00  0.00     0.039 C
HETATM    2  C2  UNL     1       3.975  25.168  -5.055  1.00  0.00     0.047 C
HETATM    3  C3  UNL     1       5.235  26.035  -5.056  1.00  0.00     0.039 C
HETATM    4  C4  UNL     1       6.414  25.188  -4.624  1.00  0.00     0.080 C
HETATM    5  C5  UNL     1       5.918  24.432  -3.447  1.00  0.00     0.127 C
HETATM    6  O1  UNL     1       6.491  23.454  -3.079  1.00  0.00    -0.298 OA
HETATM    7  C6  UNL     1       4.694  24.888  -2.708  1.00  0.00     0.090 C
HETATM    8  C7  UNL     1       3.503  25.010  -3.639  1.00  0.00     0.056 C
HETATM    9  C8  UNL     1       2.567  25.950  -3.065  1.00  0.00    -0.022 A
HETATM   10  C9  UNL     1       2.839  26.228  -1.743  1.00  0.00     0.040 A
HETATM   11  C10 UNL     1       2.080  27.122  -0.973  1.00  0.00     0.044 A
HETATM   12  N1  UNL     1       2.183  27.517   0.301  1.00  0.00    -0.355 N
ATOM     13  H1  UNL     1       2.891  27.200   0.965  1.00  0.00     0.166 HD
HETATM   14  C11 UNL     1       1.203  28.398   0.565  1.00  0.00     0.043 A
HETATM   15  C12 UNL     1       0.827  29.117   1.681  1.00  0.00     0.030 A
HETATM   16  C13 UNL     1      -0.260  29.983   1.677  1.00  0.00     0.002 A
HETATM   17  C14 UNL     1      -0.976  30.118   0.512  1.00  0.00     0.001 A
HETATM   18  C15 UNL     1      -0.634  29.423  -0.617  1.00  0.00     0.014 A
HETATM   19  C16 UNL     1       0.446  28.565  -0.603  1.00  0.00     0.003 A
HETATM   20  C17 UNL     1       1.012  27.745  -1.582  1.00  0.00     0.005 A
HETATM   21  C18 UNL     1       0.683  27.514  -2.897  1.00  0.00     0.045 A
HETATM   22  C19 UNL     1       1.468  26.632  -3.581  1.00  0.00     0.048 A
HETATM   23  N2  UNL     1       0.984  26.428  -4.897  1.00  0.00    -0.308 N
HETATM   24  C20 UNL     1      -0.312  26.572  -5.242  1.00  0.00     0.099 A
HETATM   25  C21 UNL     1      -0.437  26.244  -6.592  1.00  0.00     0.021 A
HETATM   26  C22 UNL     1       0.802  25.895  -7.071  1.00  0.00     0.051 A
HETATM   27  C23 UNL     1       1.669  26.025  -5.973  1.00  0.00     0.117 A
HETATM   28  N3  UNL     1       3.069  25.723  -6.018  1.00  0.00    -0.287 N
HETATM   29  C24 UNL     1       3.651  26.104  -7.260  1.00  0.00     0.278 C
HETATM   30  O2  UNL     1       4.561  25.291  -7.673  1.00  0.00    -0.265 OA
ENDROOT
BRANCH  29  31
HETATM   31  C25 UNL     1       3.364  27.247  -8.069  1.00  0.00     0.117 A
HETATM   32  C26 UNL     1       3.922  27.308  -9.357  1.00  0.00     0.123 A
HETATM   33  N4  UNL     1       3.698  28.349 -10.182  1.00  0.00    -0.362 N
HETATM   34  C27 UNL     1       2.934  29.391  -9.833  1.00  0.00     0.059 A
ATOM     35  H4  UNL     1       4.128  28.342 -11.107  1.00  0.00     0.165 HD
HETATM   36  C28 UNL     1       2.693  30.463 -10.657  1.00  0.00     0.032 A
HETATM   37  C32 UNL     1       2.375  29.355  -8.574  1.00  0.00     0.059 A
HETATM   38  C29 UNL     1       1.903  31.536 -10.291  1.00  0.00     0.002 A
HETATM   39  C30 UNL     1       1.346  31.496  -9.030  1.00  0.00     0.002 A
HETATM   40  C31 UNL     1       1.581  30.420  -8.190  1.00  0.00     0.032 A
HETATM   41  N5  UNL     1       2.611  28.311  -7.774  1.00  0.00    -0.349 N
ATOM     42  H5  UNL     1       2.176  28.327  -6.852  1.00  0.00     0.166 HD
ENDBRANCH  29  31
TORSDOF 1
ENDMDL