MODEL 3
REMARK VINA RESULT: -12.416734489      1.553      2.006
REMARK  1 active torsions:
REMARK  status: ('A' for Active; 'I' for Inactive)
REMARK    1  A    between atoms: N3_25  and  C21_26
ROOT
HETATM    1  C1  UNL     1       4.067  29.207  -2.266  1.00  0.00     0.043 C
HETATM    2  C2  UNL     1       3.540  28.089  -1.876  1.00  0.00     0.026 C
HETATM    3  C3  UNL     1       2.878  27.767  -0.589  1.00  0.00     0.040 C
HETATM    4  C4  UNL     1       2.502  26.523  -0.557  1.00  0.00    -0.001 C
HETATM    5  C5  UNL     1       1.879  25.352   0.040  1.00  0.00     0.001 A
HETATM    6  C6  UNL     1       1.373  25.145   1.287  1.00  0.00     0.014 A
HETATM    7  C7  UNL     1       0.769  23.941   1.573  1.00  0.00     0.001 A
HETATM    8  C8  UNL     1       0.704  22.981   0.564  1.00  0.00     0.002 A
HETATM    9  C9  UNL     1       1.218  23.182  -0.710  1.00  0.00     0.030 A
HETATM   10  C10 UNL     1       1.811  24.380  -0.971  1.00  0.00     0.048 A
HETATM   11  N1  UNL     1       2.440  24.902  -2.147  1.00  0.00    -0.319 N
HETATM   12  C11 UNL     1       2.598  24.955  -3.553  1.00  0.00     0.064 C
HETATM   13  C12 UNL     1       2.008  24.081  -4.356  1.00  0.00     0.043 C
HETATM   14  C13 UNL     1       3.489  26.118  -3.867  1.00  0.00     0.242 C
HETATM   15  C14 UNL     1       4.881  25.625  -4.095  1.00  0.00     0.279 C
HETATM   16  O1  UNL     1       5.710  25.571  -3.167  1.00  0.00    -0.268 OA
HETATM   17  N2  UNL     1       5.276  25.214  -5.377  1.00  0.00    -0.321 N
ATOM     18  H2  UNL     1       6.117  24.648  -5.490  1.00  0.00     0.169 HD
HETATM   19  C15 UNL     1       4.507  25.584  -6.526  1.00  0.00     0.062 A
HETATM   20  C16 UNL     1       4.901  25.150  -7.763  1.00  0.00     0.032 A
HETATM   21  C17 UNL     1       4.130  25.504  -8.838  1.00  0.00     0.002 A
HETATM   22  C18 UNL     1       2.994  26.265  -8.715  1.00  0.00     0.002 A
HETATM   23  C19 UNL     1       2.627  26.686  -7.443  1.00  0.00     0.032 A
HETATM   24  C20 UNL     1       3.368  26.365  -6.300  1.00  0.00     0.065 A
HETATM   25  N3  UNL     1       2.964  26.798  -5.003  1.00  0.00    -0.304 N
HETATM   26  N4  UNL     1       3.488  26.859  -2.629  1.00  0.00    -0.315 N
HETATM   27  C33 UNL     1       3.366  25.863  -1.633  1.00  0.00     0.230 C
ENDROOT
BRANCH  25  28
HETATM   28  C21 UNL     1       2.042  27.891  -4.921  1.00  0.00     0.041 A
HETATM   29  C22 UNL     1       2.306  29.139  -5.443  1.00  0.00     0.031 A
HETATM   30  C23 UNL     1       1.391  30.160  -5.381  1.00  0.00     0.017 A
HETATM   31  C24 UNL     1       0.161  29.953  -4.782  1.00  0.00     0.011 A
HETATM   32  C25 UNL     1      -0.143  28.723  -4.248  1.00  0.00     0.089 A
HETATM   33  C32 UNL     1      -0.936  30.788  -4.580  1.00  0.00     0.011 A
HETATM   34  C26 UNL     1       0.808  27.719  -4.330  1.00  0.00     0.067 A
HETATM   35  O2  UNL     1      -1.351  28.806  -3.751  1.00  0.00    -0.309 OA
HETATM   36  C27 UNL     1      -1.854  30.000  -3.925  1.00  0.00     0.087 A
HETATM   37  C28 UNL     1      -3.075  30.582  -3.587  1.00  0.00     0.038 A
HETATM   38  C29 UNL     1      -3.342  31.900  -3.902  1.00  0.00     0.003 A
HETATM   39  C30 UNL     1      -2.420  32.695  -4.561  1.00  0.00     0.001 A
HETATM   40  C31 UNL     1      -1.202  32.085  -4.888  1.00  0.00     0.015 A
ENDBRANCH  25  28
TORSDOF 1
ENDMDL