MODEL 5
REMARK VINA RESULT: -9.922364239      1.054      1.261
REMARK  2 active torsions:
REMARK  status: ('A' for Active; 'I' for Inactive)
REMARK    1  A    between atoms: C2_2  and  C3_3
REMARK    2  A    between atoms: C5_6  and  C6_7
ROOT
HETATM    1  C3  UNL     1       0.999  24.890   0.885  1.00  0.00    -0.060 A
HETATM    2  C4  UNL     1       1.570  25.122  -0.247  1.00  0.00     0.165 A
HETATM    3  N1  UNL     1       1.595  26.585  -0.475  1.00  0.00    -0.327 N
HETATM    4  C5  UNL     1       2.258  26.984  -1.532  1.00  0.00     0.138 C
HETATM    5  N3  UNL     1       2.042  28.288  -2.157  1.00  0.00    -0.338 N
ATOM      6  H3  UNL     1       2.810  28.957  -2.196  1.00  0.00     0.167 HD
HETATM    7  C9  UNL     1       0.760  28.647  -2.721  1.00  0.00     0.064 C
HETATM    8  C10 UNL     1      -0.497  28.280  -2.241  1.00  0.00     0.062 C
HETATM    9  C11 UNL     1      -1.174  29.432  -1.734  1.00  0.00     0.047 C
HETATM   10  C12 UNL     1      -1.722  30.371  -2.683  1.00  0.00     0.018 A
HETATM   11  C13 UNL     1      -2.923  30.854  -2.216  1.00  0.00     0.017 A
HETATM   12  C14 UNL     1      -3.552  31.784  -3.015  1.00  0.00     0.018 A
HETATM   13  C15 UNL     1      -3.016  32.217  -4.224  1.00  0.00     0.088 A
HETATM   14  N4  UNL     1      -1.833  31.720  -4.648  1.00  0.00    -0.364 N
ATOM     15  H4  UNL     1      -1.429  32.029  -5.532  1.00  0.00     0.165 HD
HETATM   16  C16 UNL     1      -1.210  30.831  -3.902  1.00  0.00     0.058 A
HETATM   17  C17 UNL     1       0.028  30.505  -4.443  1.00  0.00     0.036 A
HETATM   18  C18 UNL     1       1.001  30.690  -5.372  1.00  0.00     0.104 A
HETATM   19  N5  UNL     1       1.824  29.749  -4.816  1.00  0.00    -0.362 N
ATOM     20  H5  UNL     1       2.750  29.387  -5.041  1.00  0.00     0.165 HD
HETATM   21  C19 UNL     1       0.923  29.493  -3.856  1.00  0.00     0.073 A
HETATM   22  N6  UNL     1      -1.274  29.923  -0.519  1.00  0.00    -0.349 N
ATOM     23  H6  UNL     1      -2.066  30.560  -0.591  1.00  0.00     0.166 HD
HETATM   24  C20 UNL     1      -0.922  30.036   0.694  1.00  0.00     0.086 A
HETATM   25  S1  UNL     1      -1.773  31.138   1.763  1.00  0.00    -0.071 SA
HETATM   26  C21 UNL     1      -0.684  31.123   3.039  1.00  0.00     0.018 A
HETATM   27  C22 UNL     1      -0.695  31.823   4.282  1.00  0.00     0.020 A
HETATM   28  C23 UNL     1       0.321  31.684   5.169  1.00  0.00     0.001 A
HETATM   29  C24 UNL     1       1.336  30.855   4.820  1.00  0.00     0.001 A
HETATM   30  C25 UNL     1       1.320  30.206   3.646  1.00  0.00     0.014 A
HETATM   31  C26 UNL     1       0.290  30.308   2.681  1.00  0.00    -0.006 A
HETATM   32  C27 UNL     1       0.188  29.656   1.365  1.00  0.00     0.011 A
HETATM   33  C28 UNL     1       0.836  28.493   1.210  1.00  0.00     0.044 C
HETATM   34  C29 UNL     1       1.003  27.196   0.623  1.00  0.00     0.037 A
HETATM   35  C30 UNL     1       0.629  26.098   1.470  1.00  0.00     0.034 A
ENDROOT
BRANCH   4  36
HETATM   36  C6  UNL     1       3.016  26.071  -2.463  1.00  0.00     0.101 A
HETATM   37  C7  UNL     1       4.285  25.639  -2.477  1.00  0.00     0.176 A
HETATM   38  O1  UNL     1       4.479  24.862  -3.507  1.00  0.00    -0.316 OA
HETATM   39  C8  UNL     1       3.354  24.781  -4.164  1.00  0.00     0.233 A
HETATM   40  N2  UNL     1       2.408  25.512  -3.562  1.00  0.00    -0.342 N
ATOM     41  H2  UNL     1       1.439  25.631  -3.857  1.00  0.00     0.167 HD
ENDBRANCH   4  36
BRANCH   1  42
HETATM   42  C2  UNL     1       0.773  23.523   1.484  1.00  0.00     0.031 C
HETATM   43  C1  UNL     1       0.746  22.539   0.351  1.00  0.00     0.010 C
ENDBRANCH   1  42
TORSDOF 2
ENDMDL