MODEL 4
REMARK VINA RESULT: -7.533103410      1.524      2.039
REMARK  1 active torsions:
REMARK  status: ('A' for Active; 'I' for Inactive)
REMARK       I    between atoms: N1_4  and  C4_5
REMARK       I    between atoms: C4_5  and  N2_7
REMARK    1  A    between atoms: N3_24  and  C20_25
ROOT
HETATM    1  C1  UNL     1       1.576  28.997   0.665  1.00  0.00     0.070 C
HETATM    2  C2  UNL     1       2.145  28.237  -0.486  1.00  0.00     0.023 A
HETATM    3  C3  UNL     1       1.829  28.538  -1.731  1.00  0.00     0.125 A
HETATM    4  N1  UNL     1       2.357  27.829  -2.876  1.00  0.00    -0.282 N
HETATM    5  C4  UNL     1       1.926  28.199  -4.136  1.00  0.00     0.334 C
HETATM    6  O1  UNL     1       0.981  29.092  -4.156  1.00  0.00    -0.246 OA
HETATM    7  N2  UNL     1       2.332  27.776  -5.390  1.00  0.00    -0.276 N
HETATM    8  C5  UNL     1       3.338  27.058  -6.051  1.00  0.00     0.050 A
HETATM    9  C6  UNL     1       4.546  26.347  -6.096  1.00  0.00     0.030 A
HETATM   10  C7  UNL     1       5.069  25.806  -7.245  1.00  0.00     0.002 A
HETATM   11  C8  UNL     1       4.399  25.950  -8.437  1.00  0.00     0.001 A
HETATM   12  C9  UNL     1       3.215  26.643  -8.414  1.00  0.00     0.012 A
HETATM   13  C10 UNL     1       2.695  27.189  -7.237  1.00  0.00     0.006 A
HETATM   14  C11 UNL     1       1.604  27.975  -6.686  1.00  0.00     0.146 A
HETATM   15  C12 UNL     1       0.291  27.310  -6.707  1.00  0.00     0.117 A
HETATM   16  O2  UNL     1       0.073  26.023  -6.548  1.00  0.00    -0.309 OA
HETATM   17  C13 UNL     1      -1.186  25.769  -6.621  1.00  0.00     0.088 A
HETATM   18  C14 UNL     1      -1.839  24.553  -6.510  1.00  0.00     0.038 A
HETATM   19  C15 UNL     1      -3.211  24.529  -6.625  1.00  0.00     0.003 A
HETATM   20  C16 UNL     1      -3.889  25.712  -6.849  1.00  0.00     0.001 A
HETATM   21  C17 UNL     1      -3.244  26.933  -6.962  1.00  0.00     0.017 A
HETATM   22  C18 UNL     1      -1.884  26.954  -6.846  1.00  0.00     0.028 A
HETATM   23  C19 UNL     1      -0.926  27.936  -6.900  1.00  0.00     0.087 A
HETATM   24  N3  UNL     1      -0.986  29.330  -7.099  1.00  0.00    -0.297 N
HETATM   25  C26 UNL     1       0.275  30.038  -7.088  1.00  0.00     0.103 C
HETATM   26  N4  UNL     1       0.199  31.326  -7.065  1.00  0.00    -0.387 N
ATOM     27  H41 UNL     1       1.089  31.825  -7.058  1.00  0.00     0.157 HD
ATOM     28  H42 UNL     1      -0.713  31.781  -7.056  1.00  0.00     0.157 HD
HETATM   29  C27 UNL     1       1.583  29.385  -7.101  1.00  0.00     0.200 C
HETATM   30  C28 UNL     1       2.201  29.596  -8.419  1.00  0.00     0.075 C
HETATM   31  N5  UNL     1       2.691  29.784  -9.467  1.00  0.00    -0.196 NA
HETATM   32  C29 UNL     1       3.242  26.780  -2.587  1.00  0.00     0.118 A
HETATM   33  C30 UNL     1       3.558  26.481  -1.311  1.00  0.00     0.108 A
HETATM   34  N6  UNL     1       3.035  27.183  -0.210  1.00  0.00    -0.362 N
HETATM   35  C31 UNL     1       3.417  26.810   1.129  1.00  0.00     0.155 C
ENDROOT
BRANCH  24  36
HETATM   36  C20 UNL     1      -2.198  30.038  -7.299  1.00  0.00     0.041 A
HETATM   37  C21 UNL     1      -2.720  30.347  -8.536  1.00  0.00     0.030 A
HETATM   38  C22 UNL     1      -3.888  31.069  -8.629  1.00  0.00     0.002 A
HETATM   39  C23 UNL     1      -4.549  31.489  -7.495  1.00  0.00     0.000 A
HETATM   40  C24 UNL     1      -4.052  31.196  -6.244  1.00  0.00     0.002 A
HETATM   41  C25 UNL     1      -2.886  30.475  -6.186  1.00  0.00     0.030 A
ENDBRANCH  24  36
TORSDOF 1
ENDMDL