MODEL 1
REMARK VINA RESULT: -10.475803203      0.000      0.000
REMARK  1 active torsions:
REMARK  status: ('A' for Active; 'I' for Inactive)
REMARK    1  A    between atoms: O1_2  and  C2_3
ROOT
HETATM    1  C2  UNL     1       0.559  30.218  -5.962  1.00  0.00     0.102 A
HETATM    2  C3  UNL     1       0.438  30.638  -7.269  1.00  0.00     0.040 A
HETATM    3  C4  UNL     1       0.383  29.649  -8.197  1.00  0.00     0.014 A
HETATM    4  C5  UNL     1       0.435  28.250  -7.911  1.00  0.00    -0.033 A
HETATM    5  C6  UNL     1       0.549  27.879  -6.592  1.00  0.00     0.051 A
HETATM    6  C7  UNL     1       0.616  28.866  -5.641  1.00  0.00     0.110 A
HETATM    7  O2  UNL     1       0.773  28.719  -4.223  1.00  0.00    -0.308 OA
HETATM    8  C8  UNL     1       1.873  27.881  -3.724  1.00  0.00     0.076 A
HETATM    9  C9  UNL     1       1.679  26.550  -3.500  1.00  0.00     0.040 A
HETATM   10  C10 UNL     1       2.795  25.743  -3.082  1.00  0.00     0.040 A
HETATM   11  C11 UNL     1       3.986  26.348  -2.935  1.00  0.00     0.076 A
HETATM   12  C12 UNL     1       4.199  27.647  -3.122  1.00  0.00     0.040 A
HETATM   13  C13 UNL     1       3.073  28.461  -3.543  1.00  0.00     0.040 A
HETATM   14  O3  UNL     1       5.145  25.453  -2.599  1.00  0.00    -0.311 OA
HETATM   15  C14 UNL     1       5.595  25.006  -4.001  1.00  0.00     0.076 A
HETATM   16  C15 UNL     1       6.577  25.663  -4.633  1.00  0.00     0.038 A
HETATM   17  C16 UNL     1       6.865  25.237  -5.978  1.00  0.00     0.015 A
HETATM   18  C17 UNL     1       6.189  24.215  -6.607  1.00  0.00    -0.020 A
HETATM   19  C18 UNL     1       5.210  23.539  -5.928  1.00  0.00     0.015 A
HETATM   20  C19 UNL     1       4.940  23.985  -4.584  1.00  0.00     0.038 A
HETATM   21  C20 UNL     1       6.278  24.025  -8.083  1.00  0.00     0.108 C
HETATM   22  N1  UNL     1       6.847  24.972  -9.002  1.00  0.00    -0.329 N
HETATM   23  C21 UNL     1       8.039  24.551  -9.513  1.00  0.00     0.097 A
HETATM   24  C22 UNL     1       8.790  25.220 -10.436  1.00  0.00     0.019 A
HETATM   25  C23 UNL     1       8.327  26.413 -10.899  1.00  0.00     0.017 A
HETATM   26  C24 UNL     1       7.106  26.873 -10.392  1.00  0.00     0.019 A
HETATM   27  C25 UNL     1       6.766  28.107 -10.921  1.00  0.00     0.074 A
HETATM   28  N2  UNL     1       7.536  28.808 -11.881  1.00  0.00    -0.100 NA
HETATM   29  C26 UNL     1       5.600  28.669 -10.469  1.00  0.00     0.115 A
HETATM   30  N3  UNL     1       4.893  28.018  -9.584  1.00  0.00    -0.362 N
ATOM     31  H3  UNL     1       4.033  28.471  -9.275  1.00  0.00     0.165 HD
HETATM   32  C27 UNL     1       5.171  26.783  -9.013  1.00  0.00     0.060 A
HETATM   33  C28 UNL     1       6.347  26.165  -9.439  1.00  0.00     0.077 A
HETATM   34  C29 UNL     1       4.178  26.429  -8.055  1.00  0.00     0.032 C
HETATM   35  C30 UNL     1       2.962  25.945  -7.961  1.00  0.00     0.002 C
HETATM   36  C31 UNL     1       1.969  25.520  -8.907  1.00  0.00     0.000 C
HETATM   37  C32 UNL     1       0.915  26.174  -9.405  1.00  0.00     0.001 C
HETATM   38  C33 UNL     1       0.401  27.507  -9.181  1.00  0.00     0.011 C
ENDROOT
BRANCH   1  39
HETATM   39  O1  UNL     1       0.614  31.250  -5.009  1.00  0.00    -0.353 OA
HETATM   40  C1  UNL     1      -0.388  32.199  -4.909  1.00  0.00     0.210 C
ENDBRANCH   1  39
TORSDOF 1
ENDMDL