MODEL 3
REMARK VINA RESULT: -8.331179230      2.949      7.254
REMARK  4 active torsions:
REMARK  status: ('A' for Active; 'I' for Inactive)
REMARK    1  A    between atoms: N2_22  and  C18_23
REMARK    2  A    between atoms: C18_23  and  N3_25
REMARK    3  A    between atoms: N3_25  and  C19_27
REMARK    4  A    between atoms: C22_33  and  C23_34
ROOT
HETATM    1  C1  UNL     1       2.333  28.429  -0.282  1.00  0.00     0.068 C
HETATM    2  C2  UNL     1       1.862  28.347  -1.691  1.00  0.00     0.007 A
HETATM    3  C3  UNL     1       0.798  29.109  -2.082  1.00  0.00     0.025 A
HETATM    4  C4  UNL     1       0.327  29.064  -3.377  1.00  0.00     0.016 A
HETATM    5  C5  UNL     1       0.910  28.245  -4.338  1.00  0.00     0.021 A
HETATM    6  C6  UNL     1       1.993  27.489  -3.883  1.00  0.00     0.157 A
HETATM    7  N1  UNL     1       2.432  27.552  -2.613  1.00  0.00    -0.340 N
ATOM      8  H1  UNL     1       3.227  26.975  -2.339  1.00  0.00     0.167 HD
HETATM    9  O1  UNL     1       2.821  26.564  -4.550  1.00  0.00    -0.291 OA
HETATM   10  C7  UNL     1       3.272  26.456  -5.858  1.00  0.00     0.104 A
HETATM   11  C8  UNL     1       2.990  27.133  -7.035  1.00  0.00     0.067 A
HETATM   12  C9  UNL     1       3.640  26.754  -8.190  1.00  0.00     0.021 A
HETATM   13  C10 UNL     1       4.564  25.735  -8.254  1.00  0.00     0.013 A
HETATM   14  C11 UNL     1       4.839  25.065  -7.069  1.00  0.00    -0.023 A
HETATM   15  C12 UNL     1       5.747  24.050  -7.087  1.00  0.00     0.012 A
HETATM   16  C13 UNL     1       6.030  23.377  -5.924  1.00  0.00     0.001 A
HETATM   17  C14 UNL     1       5.391  23.740  -4.759  1.00  0.00     0.001 A
HETATM   18  C15 UNL     1       4.468  24.762  -4.707  1.00  0.00     0.015 A
HETATM   19  C16 UNL     1       4.203  25.423  -5.900  1.00  0.00     0.009 A
HETATM   20  C17 UNL     1       2.104  28.229  -7.365  1.00  0.00     0.263 C
HETATM   21  O2  UNL     1       2.409  28.733  -8.464  1.00  0.00    -0.267 OA
HETATM   22  N2  UNL     1       0.973  28.843  -6.707  1.00  0.00    -0.276 N
HETATM   23  C22 UNL     1       0.151  28.461  -5.578  1.00  0.00     0.166 C
ENDROOT
BRANCH  22  24
HETATM   24  C18 UNL     1       0.641  30.058  -7.330  1.00  0.00     0.183 C
HETATM   25  S1  UNL     1       1.072  31.464  -6.658  1.00  0.00    -0.040 SA
BRANCH  24  26
HETATM   26  N3  UNL     1      -0.068  30.035  -8.544  1.00  0.00    -0.313 N
ATOM     27  H3  UNL     1      -0.772  29.313  -8.698  1.00  0.00     0.170 HD
BRANCH  26  28
HETATM   28  C19 UNL     1       0.156  30.929  -9.489  1.00  0.00     0.150 A
HETATM   29  N4  UNL     1       1.226  31.019 -10.282  1.00  0.00    -0.346 N
HETATM   30  C20 UNL     1       1.269  31.975 -11.162  1.00  0.00     0.097 A
ATOM     31  H4  UNL     1       1.992  30.352 -10.200  1.00  0.00     0.167 HD
HETATM   32  C21 UNL     1       0.211  32.840 -11.224  1.00  0.00     0.070 A
HETATM   33  S2  UNL     1      -0.814  32.234 -10.001  1.00  0.00    -0.064 SA
ENDBRANCH  26  28
ENDBRANCH  24  26
ENDBRANCH  22  24
BRANCH  23  34
HETATM   34  C23 UNL     1      -0.686  27.260  -5.929  1.00  0.00    -0.030 A
HETATM   35  C24 UNL     1      -0.338  25.996  -5.570  1.00  0.00     0.009 A
HETATM   36  C25 UNL     1      -1.145  24.921  -5.919  1.00  0.00     0.001 A
HETATM   37  C26 UNL     1      -2.318  25.116  -6.639  1.00  0.00     0.000 A
HETATM   38  C27 UNL     1      -2.672  26.394  -7.004  1.00  0.00     0.001 A
HETATM   39  C28 UNL     1      -1.848  27.467  -6.644  1.00  0.00     0.009 A
ENDBRANCH  23  34
TORSDOF 4
ENDMDL