MODEL 3
REMARK VINA RESULT: -5.760891077      2.263      4.536
REMARK  0 active torsions:
REMARK  status: ('A' for Active; 'I' for Inactive)
ROOT
HETATM    1  O1  UNL     1      52.334  41.463  68.088  1.00  0.00    -0.262 OA
HETATM    2  C1  UNL     1      51.519  41.781  68.990  1.00  0.00     0.315 A
HETATM    3  N1  UNL     1      51.257  40.958  70.016  1.00  0.00    -0.302 N
ATOM      4  H1  UNL     1      51.735  40.058  70.054  1.00  0.00     0.171 HD
HETATM    5  C2  UNL     1      50.370  41.274  71.023  1.00  0.00     0.146 A
HETATM    6  N2  UNL     1      50.093  40.475  72.052  1.00  0.00    -0.307 N
ATOM      7  H2  UNL     1      50.476  39.549  72.245  1.00  0.00     0.176 HD
HETATM    8  S1  UNL     1      48.970  41.333  72.959  1.00  0.00     0.033 SA
HETATM    9  C3  UNL     1      48.861  42.735  71.998  1.00  0.00     0.259 A
HETATM   10  O2  UNL     1      48.144  43.791  72.174  1.00  0.00    -0.276 OA
HETATM   11  C4  UNL     1      49.735  42.467  70.973  1.00  0.00     0.139 A
HETATM   12  N3  UNL     1      49.985  43.334  69.929  1.00  0.00    -0.312 N
ATOM     13  H3  UNL     1      49.510  44.235  69.885  1.00  0.00     0.169 HD
HETATM   14  C5  UNL     1      50.856  42.984  68.972  1.00  0.00     0.314 A
HETATM   15  O3  UNL     1      51.116  43.753  67.990  1.00  0.00    -0.262 OA
ENDROOT
TORSDOF 0
ENDMDL