MODEL 1
REMARK VINA RESULT: -7.670535778      0.000      0.000
REMARK  0 active torsions:
REMARK  status: ('A' for Active; 'I' for Inactive)
ROOT
HETATM    1  O1  UNL     1      51.916  40.251  69.673  1.00  0.00    -0.264 OA
HETATM    2  C1  UNL     1      51.039  40.707  70.470  1.00  0.00     0.287 A
HETATM    3  N1  UNL     1      50.582  40.014  71.518  1.00  0.00    -0.262 N
ATOM      4  H1  UNL     1      50.962  39.081  71.673  1.00  0.00     0.190 HD
HETATM    5  N2  UNL     1      49.673  40.455  72.366  1.00  0.00    -0.263 N
ATOM      6  H2  UNL     1      49.366  39.876  73.148  1.00  0.00     0.190 HD
HETATM    7  C2  UNL     1      49.160  41.683  72.177  1.00  0.00     0.278 A
HETATM    8  O2  UNL     1      48.286  42.145  72.965  1.00  0.00    -0.266 OA
HETATM    9  C3  UNL     1      49.583  42.454  71.119  1.00  0.00     0.133 A
HETATM   10  C4  UNL     1      49.053  43.714  70.930  1.00  0.00     0.264 A
HETATM   11  O3  UNL     1      48.183  44.151  71.729  1.00  0.00    -0.267 OA
HETATM   12  N3  UNL     1      49.474  44.458  69.891  1.00  0.00    -0.319 N
ATOM     13  H3  UNL     1      49.094  45.391  69.734  1.00  0.00     0.169 HD
HETATM   14  C5  UNL     1      50.406  43.953  69.060  1.00  0.00     0.184 A
HETATM   15  N4  UNL     1      50.945  42.726  69.213  1.00  0.00    -0.347 N
ATOM     16  H4  UNL     1      51.648  42.384  68.558  1.00  0.00     0.167 HD
HETATM   17  C6  UNL     1      50.541  41.963  70.243  1.00  0.00     0.124 A
ENDROOT
TORSDOF 0
ENDMDL