MODEL 2
REMARK VINA RESULT: -6.480380861      1.483      2.671
REMARK  0 active torsions:
REMARK  status: ('A' for Active; 'I' for Inactive)
ROOT
HETATM    1  N1  UNL     1      49.873  44.284  69.142  1.00  0.00    -0.385 N
ATOM      2  H11 UNL     1      50.501  44.216  68.342  1.00  0.00     0.157 HD
ATOM      3  H12 UNL     1      49.083  44.924  69.063  1.00  0.00     0.157 HD
HETATM    4  C1  UNL     1      50.138  43.556  70.176  1.00  0.00     0.136 C
HETATM    5  N2  UNL     1      49.259  43.651  71.296  1.00  0.00    -0.295 N
ATOM      6  H2  UNL     1      48.719  44.506  71.435  1.00  0.00     0.172 HD
HETATM    7  C2  UNL     1      49.119  42.580  72.225  1.00  0.00     0.328 C
HETATM    8  O1  UNL     1      48.340  42.654  73.226  1.00  0.00    -0.247 OA
HETATM    9  N3  UNL     1      49.903  41.420  71.967  1.00  0.00    -0.275 N
ATOM     10  H3  UNL     1      49.841  40.623  72.601  1.00  0.00     0.173 HD
HETATM   11  C3  UNL     1      50.771  41.353  70.841  1.00  0.00     0.281 C
HETATM   12  O2  UNL     1      51.115  40.263  70.316  1.00  0.00    -0.268 OA
HETATM   13  C4  UNL     1      51.271  42.637  70.289  1.00  0.00     0.307 A
HETATM   14  O3  UNL     1      52.115  42.535  69.208  1.00  0.00    -0.238 OA
HETATM   15  N4  UNL     1      53.115  43.062  69.980  1.00  0.00    -0.229 N
ATOM     16  H4  UNL     1      54.085  43.299  69.773  1.00  0.00     0.197 HD
HETATM   17  C5  UNL     1      52.346  43.166  71.163  1.00  0.00     0.296 A
HETATM   18  O4  UNL     1      52.547  43.536  72.341  1.00  0.00    -0.267 OA
ENDROOT
TORSDOF 0
ENDMDL