MODEL 5
REMARK VINA RESULT: -5.937930396      1.772      4.309
REMARK  2 active torsions:
REMARK  status: ('A' for Active; 'I' for Inactive)
REMARK    1  A    between atoms: N1_1  and  C1_4
REMARK    2  A    between atoms: N3_10  and  O1_11
ROOT
HETATM    1  C1  UNL     1      54.132  41.687  70.929  1.00  0.00     0.704 A
HETATM    2  N2  UNL     1      52.975  41.032  70.757  1.00  0.00    -0.164 N
ATOM      3  H2  UNL     1      52.956  40.084  70.380  1.00  0.00     0.186 HD
HETATM    4  C2  UNL     1      51.840  41.666  71.099  1.00  0.00     0.213 A
HETATM    5  C3  UNL     1      51.872  42.952  71.611  1.00  0.00     0.109 A
HETATM    6  C4  UNL     1      53.074  43.608  71.781  1.00  0.00     0.176 A
HETATM    7  N3  UNL     1      54.192  42.948  71.430  1.00  0.00    -0.062 N
HETATM    8  N4  UNL     1      50.667  43.625  71.974  1.00  0.00    -0.302 N
ATOM      9  H4  UNL     1      50.683  44.571  72.353  1.00  0.00     0.171 HD
HETATM   10  C5  UNL     1      49.434  42.918  71.787  1.00  0.00     0.345 A
HETATM   11  O2  UNL     1      48.371  43.472  72.091  1.00  0.00    -0.245 OA
HETATM   12  N5  UNL     1      49.430  41.597  71.259  1.00  0.00    -0.208 N
ATOM     13  H5  UNL     1      48.549  41.100  71.128  1.00  0.00     0.200 HD
HETATM   14  O3  UNL     1      50.616  40.995  70.925  1.00  0.00    -0.213 OA
ENDROOT
BRANCH   1  15
HETATM   15  N1  UNL     1      55.286  41.167  70.632  1.00  0.00    -0.232 N
ATOM     16  H12 UNL     1      55.347  40.158  70.772  1.00  0.00     0.174 HD
ATOM     17  H11 UNL     1      56.069  41.721  70.285  1.00  0.00     0.174 HD
ENDBRANCH   1  15
BRANCH   7  18
HETATM   18  O1  UNL     1      55.411  43.600  71.596  1.00  0.00    -0.270 OA
ATOM     19  H1  UNL     1      55.503  44.324  72.203  1.00  0.00     0.245 HD
ENDBRANCH   7  18
TORSDOF 2
ENDMDL