MODEL 2
REMARK VINA RESULT: -7.065211854      1.427      3.685
REMARK  0 active torsions:
REMARK  status: ('A' for Active; 'I' for Inactive)
ROOT
HETATM    1  O1  UNL     1      48.368  42.425  73.569  1.00  0.00    -0.247 OA
HETATM    2  C1  UNL     1      49.016  42.436  72.491  1.00  0.00     0.328 A
HETATM    3  N1  UNL     1      48.908  43.477  71.663  1.00  0.00    -0.275 N
ATOM      4  H1  UNL     1      48.297  44.251  71.922  1.00  0.00     0.173 HD
HETATM    5  C2  UNL     1      49.573  43.539  70.510  1.00  0.00     0.269 A
HETATM    6  O2  UNL     1      49.483  44.513  69.717  1.00  0.00    -0.267 OA
HETATM    7  C3  UNL     1      50.404  42.515  70.134  1.00  0.00     0.144 A
HETATM    8  C4  UNL     1      51.098  42.571  68.938  1.00  0.00     0.265 A
HETATM    9  O3  UNL     1      50.976  43.567  68.177  1.00  0.00    -0.267 OA
HETATM   10  N2  UNL     1      51.896  41.535  68.627  1.00  0.00    -0.319 N
ATOM     11  H2  UNL     1      52.425  41.540  67.755  1.00  0.00     0.169 HD
HETATM   12  C5  UNL     1      51.997  40.485  69.477  1.00  0.00     0.184 A
HETATM   13  N3  UNL     1      51.323  40.429  70.640  1.00  0.00    -0.337 N
ATOM     14  H3  UNL     1      51.427  39.620  71.252  1.00  0.00     0.168 HD
HETATM   15  C6  UNL     1      50.511  41.444  70.995  1.00  0.00     0.131 A
HETATM   16  N4  UNL     1      49.822  41.421  72.149  1.00  0.00    -0.293 N
ATOM     17  H4  UNL     1      49.914  40.620  72.773  1.00  0.00     0.172 HD
ENDROOT
TORSDOF 0
ENDMDL