MODEL 5
REMARK VINA RESULT: -6.185824989      2.167      4.282
REMARK  1 active torsions:
REMARK  status: ('A' for Active; 'I' for Inactive)
REMARK    1  A    between atoms: N1_1  and  C1_4
ROOT
HETATM    1  C1  UNL     1      49.265  41.856  72.566  1.00  0.00     0.680 A
HETATM    2  N2  UNL     1      50.039  40.880  72.056  1.00  0.00    -0.155 N
ATOM      3  H2  UNL     1      50.141  40.008  72.576  1.00  0.00     0.187 HD
HETATM    4  C2  UNL     1      50.681  41.020  70.881  1.00  0.00     0.279 A
HETATM    5  O1  UNL     1      51.402  40.105  70.408  1.00  0.00    -0.266 OA
HETATM    6  C3  UNL     1      50.563  42.193  70.147  1.00  0.00     0.145 A
HETATM    7  C4  UNL     1      51.204  42.374  68.940  1.00  0.00     0.265 A
HETATM    8  O2  UNL     1      51.927  41.463  68.462  1.00  0.00    -0.267 OA
HETATM    9  N3  UNL     1      51.018  43.559  68.310  1.00  0.00    -0.319 N
ATOM     10  H3  UNL     1      51.482  43.716  67.415  1.00  0.00     0.169 HD
HETATM   11  C5  UNL     1      50.247  44.533  68.817  1.00  0.00     0.184 A
HETATM   12  N4  UNL     1      49.638  44.319  69.997  1.00  0.00    -0.337 N
ATOM     13  H4  UNL     1      49.053  45.061  70.380  1.00  0.00     0.168 HD
HETATM   14  C6  UNL     1      49.761  43.169  70.704  1.00  0.00     0.143 A
HETATM   15  N5  UNL     1      49.134  42.997  71.881  1.00  0.00    -0.176 N
ATOM     16  H5  UNL     1      48.550  43.745  72.256  1.00  0.00     0.186 HD
ENDROOT
BRANCH   1  17
HETATM   17  N1  UNL     1      48.652  41.691  73.715  1.00  0.00    -0.234 N
ATOM     18  H12 UNL     1      48.067  40.871  73.879  1.00  0.00     0.174 HD
ATOM     19  H11 UNL     1      48.751  42.380  74.460  1.00  0.00     0.174 HD
ENDBRANCH   1  17
TORSDOF 1
ENDMDL