MODEL 5
REMARK VINA RESULT: -5.999031490      2.295      3.956
REMARK  0 active torsions:
REMARK  status: ('A' for Active; 'I' for Inactive)
ROOT
HETATM    1  O1  UNL     1      48.505  43.123  70.770  1.00  0.00    -0.247 OA
HETATM    2  C1  UNL     1      49.723  42.804  70.836  1.00  0.00     0.327 A
HETATM    3  N1  UNL     1      50.502  43.495  71.705  1.00  0.00    -0.274 N
ATOM      4  H1  UNL     1      50.117  44.242  72.282  1.00  0.00     0.173 HD
HETATM    5  C2  UNL     1      51.797  43.157  71.776  1.00  0.00     0.278 A
HETATM    6  O2  UNL     1      52.538  43.785  72.576  1.00  0.00    -0.265 OA
HETATM    7  C3  UNL     1      52.364  42.155  71.015  1.00  0.00     0.134 A
HETATM    8  N2  UNL     1      53.664  41.816  71.087  1.00  0.00    -0.346 N
ATOM      9  H2  UNL     1      54.261  42.327  71.738  1.00  0.00     0.167 HD
HETATM   10  C4  UNL     1      54.217  40.842  70.348  1.00  0.00     0.184 A
HETATM   11  N3  UNL     1      53.410  40.182  69.498  1.00  0.00    -0.318 N
ATOM     12  H3  UNL     1      53.801  39.437  68.923  1.00  0.00     0.169 HD
HETATM   13  C5  UNL     1      52.102  40.476  69.385  1.00  0.00     0.275 A
HETATM   14  O3  UNL     1      51.328  39.868  68.592  1.00  0.00    -0.266 OA
HETATM   15  C6  UNL     1      51.530  41.485  70.149  1.00  0.00     0.137 A
HETATM   16  N4  UNL     1      50.239  41.820  70.077  1.00  0.00    -0.302 N
ATOM     17  H4  UNL     1      49.629  41.317  69.432  1.00  0.00     0.171 HD
ENDROOT
TORSDOF 0
ENDMDL