MODEL 5
REMARK VINA RESULT: -6.078742163      2.290      3.709
REMARK  0 active torsions:
REMARK  status: ('A' for Active; 'I' for Inactive)
ROOT
HETATM    1  O1  UNL     1      50.681  44.534  68.084  1.00  0.00    -0.262 OA
HETATM    2  C1  UNL     1      50.310  43.914  69.107  1.00  0.00     0.311 A
HETATM    3  N1  UNL     1      49.455  44.501  69.956  1.00  0.00    -0.262 N
ATOM      4  H1  UNL     1      49.110  45.442  69.771  1.00  0.00     0.190 HD
HETATM    5  N2  UNL     1      49.062  43.846  71.038  1.00  0.00    -0.282 N
ATOM      6  H2  UNL     1      48.411  44.319  71.665  1.00  0.00     0.188 HD
HETATM    7  C2  UNL     1      49.456  42.611  71.370  1.00  0.00     0.141 A
HETATM    8  N3  UNL     1      49.035  41.974  72.483  1.00  0.00    -0.337 N
ATOM      9  H3  UNL     1      48.384  42.464  73.098  1.00  0.00     0.168 HD
HETATM   10  C3  UNL     1      49.420  40.736  72.831  1.00  0.00     0.185 A
HETATM   11  N4  UNL     1      50.277  40.100  72.015  1.00  0.00    -0.319 N
ATOM     12  H4  UNL     1      50.590  39.159  72.251  1.00  0.00     0.169 HD
HETATM   13  C4  UNL     1      50.738  40.695  70.874  1.00  0.00     0.264 A
HETATM   14  O2  UNL     1      51.540  40.110  70.103  1.00  0.00    -0.267 OA
HETATM   15  C5  UNL     1      50.339  41.958  70.529  1.00  0.00     0.133 A
HETATM   16  C6  UNL     1      50.745  42.645  69.402  1.00  0.00     0.260 A
HETATM   17  O3  UNL     1      51.548  42.066  68.626  1.00  0.00    -0.281 OA
ENDROOT
TORSDOF 0
ENDMDL