MODEL 4
REMARK VINA RESULT: -6.550033613      1.226      4.563
REMARK  1 active torsions:
REMARK  status: ('A' for Active; 'I' for Inactive)
REMARK    1  A    between atoms: N1_1  and  C1_4
ROOT
HETATM    1  C1  UNL     1      49.743  40.933  71.942  1.00  0.00     0.134 A
HETATM    2  N2  UNL     1      48.909  41.946  72.254  1.00  0.00    -0.293 N
ATOM      3  H2  UNL     1      48.272  41.826  73.041  1.00  0.00     0.172 HD
HETATM    4  C2  UNL     1      48.876  43.108  71.577  1.00  0.00     0.327 A
HETATM    5  O1  UNL     1      48.066  44.026  71.919  1.00  0.00    -0.247 OA
HETATM    6  N3  UNL     1      49.722  43.249  70.547  1.00  0.00    -0.292 N
ATOM      7  H3  UNL     1      49.720  44.121  70.017  1.00  0.00     0.172 HD
HETATM    8  C3  UNL     1      50.578  42.267  70.191  1.00  0.00     0.140 A
HETATM    9  N4  UNL     1      51.414  42.455  69.143  1.00  0.00    -0.345 N
ATOM     10  H4  UNL     1      51.386  43.338  68.633  1.00  0.00     0.167 HD
HETATM   11  C4  UNL     1      52.278  41.504  68.762  1.00  0.00     0.164 A
HETATM   12  C5  UNL     1      52.294  40.320  69.468  1.00  0.00     0.261 A
HETATM   13  O2  UNL     1      53.099  39.382  69.144  1.00  0.00    -0.267 OA
HETATM   14  N5  UNL     1      51.470  40.117  70.513  1.00  0.00    -0.316 N
ATOM     15  H5  UNL     1      51.502  39.232  71.019  1.00  0.00     0.169 HD
HETATM   16  C6  UNL     1      50.598  41.081  70.896  1.00  0.00     0.124 A
ENDROOT
BRANCH   1  17
HETATM   17  N1  UNL     1      49.697  39.883  72.638  1.00  0.00    -0.383 N
ATOM     18  H12 UNL     1      48.819  39.425  72.883  1.00  0.00     0.157 HD
ATOM     19  H11 UNL     1      50.574  39.478  72.964  1.00  0.00     0.157 HD
ENDBRANCH   1  17
TORSDOF 1
ENDMDL