MODEL 1
REMARK VINA RESULT: -7.317032270      0.000      0.000
REMARK  1 active torsions:
REMARK  status: ('A' for Active; 'I' for Inactive)
REMARK    1  A    between atoms: N1_1  and  C1_4
ROOT
HETATM    1  C1  UNL     1      52.405  40.561  68.900  1.00  0.00     0.680 A
HETATM    2  N2  UNL     1      52.025  41.758  68.421  1.00  0.00    -0.155 N
ATOM      3  H2  UNL     1      52.458  42.093  67.560  1.00  0.00     0.187 HD
HETATM    4  C2  UNL     1      51.104  42.538  69.015  1.00  0.00     0.273 A
HETATM    5  O1  UNL     1      50.765  43.653  68.552  1.00  0.00    -0.267 OA
HETATM    6  C3  UNL     1      50.510  42.094  70.185  1.00  0.00     0.084 A
HETATM    7  C4  UNL     1      49.559  42.869  70.825  1.00  0.00     0.096 A
HETATM    8  C5  UNL     1      49.016  42.348  71.987  1.00  0.00     0.260 A
HETATM    9  O2  UNL     1      48.142  43.001  72.625  1.00  0.00    -0.267 OA
HETATM   10  N3  UNL     1      49.425  41.141  72.435  1.00  0.00    -0.265 N
ATOM     11  H3  UNL     1      49.018  40.768  73.292  1.00  0.00     0.190 HD
HETATM   12  N4  UNL     1      50.338  40.428  71.794  1.00  0.00    -0.281 N
ATOM     13  H4  UNL     1      50.612  39.522  72.173  1.00  0.00     0.188 HD
HETATM   14  C6  UNL     1      50.913  40.860  70.662  1.00  0.00     0.151 A
HETATM   15  N5  UNL     1      51.839  40.108  70.036  1.00  0.00    -0.174 N
ATOM     16  H5  UNL     1      52.109  39.201  70.418  1.00  0.00     0.186 HD
ENDROOT
BRANCH   1  17
HETATM   17  N1  UNL     1      53.305  39.829  68.290  1.00  0.00    -0.234 N
ATOM     18  H12 UNL     1      53.918  40.260  67.597  1.00  0.00     0.174 HD
ATOM     19  H11 UNL     1      53.414  38.835  68.490  1.00  0.00     0.174 HD
ENDBRANCH   1  17
TORSDOF 1
ENDMDL