MODEL 4
REMARK VINA RESULT: -5.936571804      1.953      2.980
REMARK  3 active torsions:
REMARK  status: ('A' for Active; 'I' for Inactive)
REMARK    1  A    between atoms: C2_5  and  N3_6
REMARK    2  A    between atoms: C2_5  and  C4_11
REMARK    3  A    between atoms: N7_13  and  N8_15
ROOT
HETATM    1  N1  UNL     1      48.784  43.754  70.839  1.00  0.00    -0.172 NA
HETATM    2  C1  UNL     1      49.948  43.618  70.722  1.00  0.00     0.183 C
HETATM    3  N2  UNL     1      51.303  43.499  70.585  1.00  0.00    -0.276 N
ATOM      4  H2  UNL     1      51.831  44.362  70.463  1.00  0.00     0.179 HD
HETATM    5  C2  UNL     1      51.959  42.429  70.593  1.00  0.00     0.159 C
ENDROOT
BRANCH   5   6
HETATM    6  N3  UNL     1      53.405  42.452  70.434  1.00  0.00    -0.316 N
HETATM    7  C3  UNL     1      54.158  42.958  71.328  1.00  0.00     0.202 C
HETATM    8  N4  UNL     1      55.560  42.963  71.140  1.00  0.00    -0.066 NA
HETATM    9  N5  UNL     1      53.581  43.508  72.497  1.00  0.00    -0.066 NA
ATOM     10  H3  UNL     1      53.824  42.055  69.592  1.00  0.00     0.169 HD
ENDBRANCH   5   6
BRANCH   5  11
HETATM   11  C4  UNL     1      51.371  41.112  70.755  1.00  0.00     0.177 C
HETATM   12  N6  UNL     1      51.385  40.180  69.695  1.00  0.00    -0.077 NA
HETATM   13  N7  UNL     1      50.838  40.839  71.902  1.00  0.00    -0.271 N
ATOM     14  H7  UNL     1      50.869  41.567  72.616  1.00  0.00     0.190 HD
BRANCH  13  15
HETATM   15  N8  UNL     1      50.237  39.655  72.238  1.00  0.00    -0.248 N
HETATM   16  N9  UNL     1      49.461  39.490  73.248  1.00  0.00    -0.331 N
ATOM     17  H92 UNL     1      49.291  40.310  73.831  1.00  0.00     0.178 HD
ATOM     18  H91 UNL     1      49.014  38.609  73.498  1.00  0.00     0.178 HD
ATOM     19  H8  UNL     1      50.419  38.846  71.644  1.00  0.00     0.207 HD
ENDBRANCH  13  15
ENDBRANCH   5  11
TORSDOF 3
ENDMDL