MODEL 5
REMARK VINA RESULT: -6.451399990      4.431      5.890
REMARK  1 active torsions:
REMARK  status: ('A' for Active; 'I' for Inactive)
REMARK       I    between atoms: N2_4  and  C1_6
REMARK       I    between atoms: C1_6  and  N3_8
REMARK    1  A    between atoms: N3_8  and  C2_10
ROOT
HETATM    1  C2  UNL     1      53.756  39.063  69.519  1.00  0.00     0.704 A
HETATM    2  N4  UNL     1      53.340  38.536  68.350  1.00  0.00    -0.129 N
ATOM      3  H4  UNL     1      52.625  39.033  67.820  1.00  0.00     0.205 HD
HETATM    4  N5  UNL     1      53.814  37.409  67.861  1.00  0.00    -0.247 N
ATOM      5  H5  UNL     1      53.473  37.042  66.972  1.00  0.00     0.191 HD
HETATM    6  C3  UNL     1      54.766  36.747  68.565  1.00  0.00     0.329 A
HETATM    7  O2  UNL     1      55.244  35.659  68.124  1.00  0.00    -0.261 OA
HETATM    8  C4  UNL     1      55.220  37.251  69.767  1.00  0.00     0.329 A
HETATM    9  O3  UNL     1      56.114  36.638  70.439  1.00  0.00    -0.261 OA
HETATM   10  N6  UNL     1      54.684  38.414  70.204  1.00  0.00    -0.150 N
ATOM     11  H6  UNL     1      55.007  38.805  71.089  1.00  0.00     0.188 HD
ENDROOT
BRANCH   1  12
HETATM   12  N3  UNL     1      53.253  40.145  69.918  1.00  0.00    -0.139 N
HETATM   13  C1  UNL     1      51.979  40.659  69.717  1.00  0.00     0.352 C
HETATM   14  N2  UNL     1      50.793  40.270  70.362  1.00  0.00    -0.258 N
HETATM   15  O1  UNL     1      51.860  41.590  68.854  1.00  0.00    -0.245 OA
HETATM   16  N1  UNL     1      50.685  39.855  71.531  1.00  0.00    -0.341 N
ATOM     17  H2  UNL     1      49.933  40.334  69.817  1.00  0.00     0.191 HD
ATOM     18  H12 UNL     1      51.556  39.797  72.060  1.00  0.00     0.177 HD
ATOM     19  H11 UNL     1      49.825  39.572  71.999  1.00  0.00     0.177 HD
ATOM     20  H3  UNL     1      53.875  40.732  70.473  1.00  0.00     0.189 HD
ENDBRANCH   1  12
TORSDOF 1
ENDMDL