MODEL 4
REMARK VINA RESULT: -5.550506703      1.757      5.521
REMARK  0 active torsions:
REMARK  status: ('A' for Active; 'I' for Inactive)
REMARK       I    between atoms: N3_4  and  C2_6
REMARK       I    between atoms: C2_6  and  N4_8
REMARK       I    between atoms: C3_10  and  N6_12
REMARK       I    between atoms: N6_12  and  C4_14
ROOT
HETATM    1  N1  UNL     1      50.498  43.235  72.436  1.00  0.00    -0.066 NA
HETATM    2  C1  UNL     1      49.792  42.797  71.301  1.00  0.00     0.204 C
HETATM    3  N2  UNL     1      48.957  43.672  70.575  1.00  0.00    -0.066 NA
HETATM    4  N3  UNL     1      49.909  41.580  70.921  1.00  0.00    -0.285 N
ATOM      5  H3  UNL     1      49.389  41.282  70.096  1.00  0.00     0.172 HD
HETATM    6  C2  UNL     1      50.721  40.623  71.581  1.00  0.00     0.328 C
HETATM    7  O1  UNL     1      50.227  39.904  72.484  1.00  0.00    -0.247 OA
HETATM    8  N4  UNL     1      52.091  40.433  71.267  1.00  0.00    -0.282 N
ATOM      9  H4  UNL     1      52.766  40.482  72.030  1.00  0.00     0.173 HD
HETATM   10  C3  UNL     1      52.534  40.206  70.094  1.00  0.00     0.201 C
HETATM   11  N5  UNL     1      51.677  40.123  68.989  1.00  0.00    -0.063 NA
HETATM   12  N6  UNL     1      53.957  40.036  69.938  1.00  0.00    -0.275 N
ATOM     13  H6  UNL     1      54.573  40.099  70.749  1.00  0.00     0.174 HD
HETATM   14  C4  UNL     1      54.496  39.781  68.656  1.00  0.00     0.290 C
HETATM   15  O2  UNL     1      53.769  39.695  67.617  1.00  0.00    -0.629 OA
HETATM   16  O3  UNL     1      55.856  39.615  68.489  1.00  0.00    -0.629 OA
ENDROOT
TORSDOF 0
ENDMDL