MODEL 2
REMARK VINA RESULT: -5.114912237      2.763      3.478
REMARK  4 active torsions:
REMARK  status: ('A' for Active; 'I' for Inactive)
REMARK    1  A    between atoms: C1_2  and  C2_4
REMARK       I    between atoms: C2_4  and  N2_6
REMARK    2  A    between atoms: N2_6  and  N3_8
REMARK    3  A    between atoms: N3_8  and  C3_10
REMARK    4  A    between atoms: C3_10  and  N4_12
ROOT
HETATM    1  N3  UNL     1      53.160  43.554  72.153  1.00  0.00    -0.273 N
ATOM      2  H3  UNL     1      53.691  43.447  73.017  1.00  0.00     0.189 HD
ENDROOT
BRANCH   1   3
HETATM    3  N2  UNL     1      51.782  43.575  72.260  1.00  0.00    -0.260 N
HETATM    4  C2  UNL     1      50.974  42.409  72.271  1.00  0.00     0.325 C
HETATM    5  O2  UNL     1      51.534  41.289  72.184  1.00  0.00    -0.261 OA
ATOM      6  H2  UNL     1      51.319  44.481  72.335  1.00  0.00     0.190 HD
BRANCH   4   7
HETATM    7  C1  UNL     1      49.522  42.457  72.380  1.00  0.00     0.324 C
HETATM    8  N1  UNL     1      48.843  42.402  73.612  1.00  0.00    -0.053 NA
HETATM    9  O1  UNL     1      48.798  42.555  71.329  1.00  0.00    -0.266 OA
ENDBRANCH   4   7
ENDBRANCH   1   3
BRANCH   1  10
HETATM   10  C3  UNL     1      53.901  43.668  70.954  1.00  0.00     0.192 C
HETATM   11  S1  UNL     1      54.504  42.317  70.272  1.00  0.00    -0.039 SA
BRANCH  10  12
HETATM   12  N4  UNL     1      54.133  44.922  70.331  1.00  0.00    -0.309 N
HETATM   13  C4  UNL     1      55.023  45.731  70.789  1.00  0.00     0.203 C
HETATM   14  N5  UNL     1      55.256  46.981  70.168  1.00  0.00    -0.066 NA
HETATM   15  N6  UNL     1      55.755  45.317  71.940  1.00  0.00    -0.066 NA
ATOM     16  H4  UNL     1      53.589  45.185  69.510  1.00  0.00     0.170 HD
ENDBRANCH  10  12
ENDBRANCH   1  10
TORSDOF 4
ENDMDL