MODEL 3
REMARK VINA RESULT: -4.801260181      0.685      1.045
REMARK  4 active torsions:
REMARK  status: ('A' for Active; 'I' for Inactive)
REMARK    1  A    between atoms: N3_4  and  N4_6
REMARK    2  A    between atoms: N4_6  and  C2_8
REMARK    3  A    between atoms: C2_8  and  N5_10
REMARK    4  A    between atoms: C3_12  and  O1_14
ROOT
HETATM    1  C2  UNL     1      51.687  40.791  70.447  1.00  0.00     0.193 C
HETATM    2  S1  UNL     1      52.204  40.163  69.030  1.00  0.00    -0.039 SA
ENDROOT
BRANCH   1   3
HETATM    3  N4  UNL     1      50.301  40.802  70.708  1.00  0.00    -0.274 N
ATOM      4  H4  UNL     1      49.802  39.912  70.699  1.00  0.00     0.189 HD
BRANCH   3   5
HETATM    5  N3  UNL     1      49.582  41.953  70.975  1.00  0.00    -0.274 N
HETATM    6  C1  UNL     1      49.280  42.275  72.172  1.00  0.00     0.215 C
HETATM    7  N1  UNL     1      49.691  41.436  73.230  1.00  0.00    -0.065 NA
HETATM    8  N2  UNL     1      48.543  43.462  72.395  1.00  0.00    -0.065 NA
ATOM      9  H3  UNL     1      49.289  42.553  70.204  1.00  0.00     0.189 HD
ENDBRANCH   3   5
ENDBRANCH   1   3
BRANCH   1  10
HETATM   10  N5  UNL     1      52.601  41.312  71.397  1.00  0.00    -0.300 N
HETATM   11  C3  UNL     1      52.833  42.600  71.413  1.00  0.00     0.231 C
HETATM   12  N6  UNL     1      53.755  43.075  72.381  1.00  0.00    -0.056 NA
ATOM     13  H5  UNL     1      53.072  40.693  72.058  1.00  0.00     0.171 HD
BRANCH  11  14
HETATM   14  O1  UNL     1      52.192  43.440  70.514  1.00  0.00    -0.335 OA
ATOM     15  H1  UNL     1      52.228  44.382  70.626  1.00  0.00     0.220 HD
ENDBRANCH  11  14
ENDBRANCH   1  10
TORSDOF 4
ENDMDL