MODEL 2
REMARK VINA RESULT: -6.828661061      1.827      2.244
REMARK  1 active torsions:
REMARK  status: ('A' for Active; 'I' for Inactive)
REMARK       I    between atoms: C3_3  and  N1_5
REMARK       I    between atoms: N1_5  and  C4_7
REMARK       I    between atoms: C4_7  and  N3_11
REMARK       I    between atoms: C5_13  and  N5_15
REMARK    1  A    between atoms: N5_15  and  N6_17
ROOT
HETATM    1  C1  UNL     1      52.813  39.480  66.372  1.00  0.00     0.022 C
HETATM    2  C2  UNL     1      52.671  39.804  67.526  1.00  0.00    -0.016 C
HETATM    3  C3  UNL     1      52.525  40.192  68.889  1.00  0.00     0.313 C
HETATM    4  O1  UNL     1      51.403  40.138  69.440  1.00  0.00    -0.257 OA
HETATM    5  N1  UNL     1      53.632  40.643  69.643  1.00  0.00    -0.149 N
ATOM      6  H1  UNL     1      54.543  40.683  69.188  1.00  0.00     0.188 HD
HETATM    7  C4  UNL     1      53.541  41.041  71.001  1.00  0.00     0.681 C
HETATM    8  N2  UNL     1      54.599  41.437  71.609  1.00  0.00    -0.234 N
ATOM      9  H21 UNL     1      54.534  41.724  72.586  1.00  0.00     0.174 HD
ATOM     10  H22 UNL     1      55.515  41.482  71.162  1.00  0.00     0.174 HD
HETATM   11  N3  UNL     1      52.268  40.979  71.623  1.00  0.00    -0.162 N
ATOM     12  H3  UNL     1      51.731  40.112  71.608  1.00  0.00     0.187 HD
HETATM   13  C5  UNL     1      51.802  42.016  72.201  1.00  0.00     0.222 C
HETATM   14  N4  UNL     1      52.563  43.210  72.213  1.00  0.00    -0.061 NA
HETATM   15  N5  UNL     1      50.535  42.014  72.840  1.00  0.00    -0.259 N
ATOM     16  H5  UNL     1      50.407  42.590  73.672  1.00  0.00     0.191 HD
ENDROOT
BRANCH  15  17
HETATM   17  N6  UNL     1      49.457  41.258  72.380  1.00  0.00    -0.247 N
HETATM   18  N7  UNL     1      48.775  40.488  73.114  1.00  0.00    -0.331 N
ATOM     19  H72 UNL     1      49.040  40.427  74.096  1.00  0.00     0.178 HD
ATOM     20  H71 UNL     1      47.986  39.935  72.777  1.00  0.00     0.178 HD
ATOM     21  H6  UNL     1      49.205  41.331  71.394  1.00  0.00     0.207 HD
ENDBRANCH  15  17
TORSDOF 1
ENDMDL