MODEL 5
REMARK VINA RESULT: -5.647985175      2.176      2.931
REMARK  3 active torsions:
REMARK  status: ('A' for Active; 'I' for Inactive)
REMARK    1  A    between atoms: C1_4  and  N2_5
REMARK    2  A    between atoms: C1_4  and  C3_10
REMARK    3  A    between atoms: C3_10  and  N5_11
ROOT
HETATM    1  C3  UNL     1      51.085  41.864  70.712  1.00  0.00     0.335 A
HETATM    2  N6  UNL     1      51.126  42.623  69.479  1.00  0.00    -0.340 N
ATOM      3  H6  UNL     1      51.580  42.304  68.624  1.00  0.00     0.163 HD
HETATM    4  C4  UNL     1      50.519  43.750  69.597  1.00  0.00     0.181 A
HETATM    5  N7  UNL     1      49.995  43.910  70.896  1.00  0.00    -0.319 N
ATOM      6  H7  UNL     1      49.473  44.713  71.247  1.00  0.00     0.169 HD
HETATM    7  C5  UNL     1      50.334  42.742  71.618  1.00  0.00     0.287 A
HETATM    8  O1  UNL     1      50.026  42.523  72.839  1.00  0.00    -0.268 OA
ENDROOT
BRANCH   1   9
HETATM    9  C1  UNL     1      52.437  41.656  71.275  1.00  0.00     0.144 C
HETATM   10  N1  UNL     1      53.100  40.625  70.929  1.00  0.00    -0.385 N
ATOM     11  H12 UNL     1      54.032  40.482  71.317  1.00  0.00     0.157 HD
ATOM     12  H11 UNL     1      52.709  39.948  70.273  1.00  0.00     0.157 HD
BRANCH   9  13
HETATM   13  N2  UNL     1      52.975  42.589  72.178  1.00  0.00    -0.319 N
HETATM   14  C2  UNL     1      53.763  43.548  71.881  1.00  0.00     0.202 C
HETATM   15  N3  UNL     1      54.228  44.410  72.898  1.00  0.00    -0.066 NA
HETATM   16  N4  UNL     1      54.154  43.723  70.536  1.00  0.00    -0.066 NA
ATOM     17  H2  UNL     1      52.713  42.490  73.159  1.00  0.00     0.169 HD
ENDBRANCH   9  13
ENDBRANCH   1   9
BRANCH   1  18
HETATM   18  N5  UNL     1      50.402  40.601  70.476  1.00  0.00    -0.036 N
ATOM     19  H53 UNL     1      50.947  39.812  70.821  1.00  0.00     0.278 HD
ATOM     20  H52 UNL     1      49.583  40.504  71.077  1.00  0.00     0.278 HD
ATOM     21  H51 UNL     1      50.158  40.482  69.493  1.00  0.00     0.278 HD
ENDBRANCH   1  18
TORSDOF 3
ENDMDL