MODEL 3
REMARK VINA RESULT: -5.976843616      2.518      2.978
REMARK  4 active torsions:
REMARK  status: ('A' for Active; 'I' for Inactive)
REMARK       I    between atoms: C2_2  and  N1_4
REMARK    1  A    between atoms: N1_4  and  C3_6
REMARK    2  A    between atoms: C4_11  and  C5_12
REMARK    3  A    between atoms: C5_12  and  O2_16
REMARK    4  A    between atoms: N5_18  and  N6_19
ROOT
HETATM    1  C3  UNL     1      51.499  42.938  70.782  1.00  0.00     0.722 A
HETATM    2  N2  UNL     1      50.519  43.859  70.830  1.00  0.00    -0.128 N
ATOM      3  H2  UNL     1      50.501  44.712  70.270  1.00  0.00     0.205 HD
HETATM    4  N3  UNL     1      49.583  43.514  71.698  1.00  0.00    -0.266 N
ATOM      5  H3  UNL     1      48.738  44.043  71.916  1.00  0.00     0.189 HD
HETATM    6  C4  UNL     1      49.951  42.327  72.244  1.00  0.00     0.210 A
HETATM    7  N5  UNL     1      51.127  41.987  71.673  1.00  0.00    -0.069 N
ENDROOT
BRANCH   6   8
HETATM    8  C5  UNL     1      49.198  41.591  73.251  1.00  0.00     0.182 C
HETATM    9  N4  UNL     1      49.012  40.334  73.089  1.00  0.00    -0.377 N
ATOM     10  H42 UNL     1      49.393  39.871  72.264  1.00  0.00     0.158 HD
ATOM     11  H41 UNL     1      48.485  39.818  73.793  1.00  0.00     0.158 HD
BRANCH   8  12
HETATM   12  O2  UNL     1      48.682  42.218  74.369  1.00  0.00    -0.344 OA
ATOM     13  H2  UNL     1      49.205  42.344  75.153  1.00  0.00     0.219 HD
ENDBRANCH   8  12
ENDBRANCH   6   8
BRANCH   7  14
HETATM   14  N6  UNL     1      51.850  40.830  71.958  1.00  0.00    -0.322 N
ATOM     15  H62 UNL     1      51.981  40.436  72.890  1.00  0.00     0.178 HD
ATOM     16  H61 UNL     1      52.327  40.251  71.267  1.00  0.00     0.178 HD
ENDBRANCH   7  14
BRANCH   1  17
HETATM   17  N1  UNL     1      52.552  42.985  70.034  1.00  0.00    -0.157 N
HETATM   18  C2  UNL     1      53.801  43.430  70.480  1.00  0.00     0.232 C
HETATM   19  C1  UNL     1      54.764  42.490  71.104  1.00  0.00     0.118 C
HETATM   20  O1  UNL     1      54.111  44.648  70.350  1.00  0.00    -0.273 OA
ATOM     21  H1  UNL     1      52.468  42.680  69.064  1.00  0.00     0.187 HD
ENDBRANCH   1  17
TORSDOF 4
ENDMDL