MODEL 1
REMARK VINA RESULT: -5.880135020      0.000      0.000
REMARK  2 active torsions:
REMARK  status: ('A' for Active; 'I' for Inactive)
REMARK    1  A    between atoms: C1_2  and  C2_4
REMARK       I    between atoms: C2_4  and  N2_6
REMARK    2  A    between atoms: N2_6  and  N3_8
REMARK       I    between atoms: N3_8  and  C3_10
REMARK       I    between atoms: C3_10  and  N4_12
ROOT
HETATM    1  N3  UNL     1      51.445  39.960  71.105  1.00  0.00    -0.248 N
ATOM      2  H3  UNL     1      51.745  39.214  71.733  1.00  0.00     0.192 HD
HETATM    3  C3  UNL     1      52.168  40.162  69.927  1.00  0.00     0.341 C
HETATM    4  O3  UNL     1      51.855  41.041  69.109  1.00  0.00    -0.245 OA
HETATM    5  N4  UNL     1      53.292  39.346  69.658  1.00  0.00    -0.284 N
ATOM      6  H4  UNL     1      53.173  38.334  69.616  1.00  0.00     0.172 HD
HETATM    7  C4  UNL     1      54.468  39.856  69.464  1.00  0.00     0.204 C
HETATM    8  N5  UNL     1      55.536  38.980  69.203  1.00  0.00    -0.066 NA
HETATM    9  N6  UNL     1      54.631  41.259  69.512  1.00  0.00    -0.066 NA
ENDROOT
BRANCH   1  10
HETATM   10  N2  UNL     1      50.325  40.728  71.473  1.00  0.00    -0.258 N
HETATM   11  C2  UNL     1      50.475  41.914  72.235  1.00  0.00     0.325 C
HETATM   12  O2  UNL     1      51.626  42.257  72.571  1.00  0.00    -0.261 OA
ATOM     13  H2  UNL     1      49.393  40.428  71.187  1.00  0.00     0.190 HD
BRANCH  11  14
HETATM   14  C1  UNL     1      49.310  42.685  72.600  1.00  0.00     0.324 C
HETATM   15  N1  UNL     1      48.741  43.640  71.671  1.00  0.00    -0.053 NA
HETATM   16  O1  UNL     1      48.732  42.583  73.709  1.00  0.00    -0.266 OA
ENDBRANCH  11  14
ENDBRANCH   1  10
TORSDOF 2
ENDMDL