MODEL 3
REMARK VINA RESULT: -4.483156926      1.978      3.427
REMARK  2 active torsions:
REMARK  status: ('A' for Active; 'I' for Inactive)
REMARK    1  A    between atoms: N3_4  and  S1_6
REMARK    2  A    between atoms: S1_6  and  N4_9
ROOT
HETATM    1  S1  UNL     1      51.292  43.492  70.050  1.00  0.00     0.327 S
HETATM    2  O1  UNL     1      50.353  44.421  69.317  1.00  0.00    -0.182 OA
HETATM    3  O2  UNL     1      52.701  44.003  70.001  1.00  0.00    -0.182 OA
ENDROOT
BRANCH   1   4
HETATM    4  N3  UNL     1      50.761  43.409  71.676  1.00  0.00    -0.243 N
HETATM    5  C1  UNL     1      49.632  42.909  72.031  1.00  0.00     0.211 C
HETATM    6  N1  UNL     1      49.262  42.876  73.402  1.00  0.00    -0.066 NA
HETATM    7  N2  UNL     1      48.744  42.382  71.047  1.00  0.00    -0.066 NA
ATOM      8  H3  UNL     1      51.375  43.777  72.403  1.00  0.00     0.182 HD
ENDBRANCH   1   4
BRANCH   1   9
HETATM    9  N4  UNL     1      51.268  41.952  69.281  1.00  0.00    -0.243 N
HETATM   10  C2  UNL     1      51.835  40.906  69.766  1.00  0.00     0.211 C
HETATM   11  N5  UNL     1      51.737  39.699  69.027  1.00  0.00    -0.066 NA
HETATM   12  N6  UNL     1      52.550  40.876  70.988  1.00  0.00    -0.066 NA
ATOM     13  H4  UNL     1      50.776  41.865  68.393  1.00  0.00     0.182 HD
ENDBRANCH   1   9
TORSDOF 2
ENDMDL