MODEL 2
REMARK VINA RESULT: -6.695999168      0.107      1.085
REMARK  5 active torsions:
REMARK  status: ('A' for Active; 'I' for Inactive)
REMARK    1  A    between atoms: C2_2  and  O2_4
REMARK    2  A    between atoms: O2_4  and  C3_5
REMARK    3  A    between atoms: C5_7  and  O3_8
REMARK    4  A    between atoms: C6_10  and  O4_11
REMARK    5  A    between atoms: O4_11  and  S1_12
ROOT
HETATM    1  C3  UNL     1      32.284  42.211  21.900  1.00  0.00     0.271 C
HETATM    2  C4  UNL     1      31.719  43.556  21.487  1.00  0.00     0.095 C
HETATM    3  C5  UNL     1      32.852  44.321  20.831  1.00  0.00     0.155 C
HETATM    4  C6  UNL     1      33.927  44.442  21.908  1.00  0.00     0.197 C
HETATM    5  C7  UNL     1      34.406  43.043  22.199  1.00  0.00     0.207 C
HETATM    6  O8  UNL     1      33.314  42.387  22.814  1.00  0.00    -0.358 OA
ENDROOT
BRANCH   4   7
HETATM    7  O4  UNL     1      34.886  45.344  21.622  1.00  0.00    -0.247 OA
BRANCH   7   8
HETATM    8  S1  UNL     1      34.558  46.925  21.989  1.00  0.00     0.252 S
HETATM    9  O5  UNL     1      33.775  46.935  23.275  1.00  0.00    -0.572 OA
HETATM   10  O6  UNL     1      33.756  47.638  20.972  1.00  0.00    -0.572 OA
HETATM   11  O7  UNL     1      35.967  47.814  22.277  1.00  0.00    -0.572 OA
ENDBRANCH   7   8
ENDBRANCH   4   7
BRANCH   3  12
HETATM   12  O3  UNL     1      33.297  43.516  19.769  1.00  0.00    -0.393 OA
ATOM     13  H3  UNL     1      34.235  43.423  19.888  1.00  0.00     0.210 HD
ENDBRANCH   3  12
BRANCH   1  14
HETATM   14  O2  UNL     1      31.300  41.385  22.441  1.00  0.00    -0.290 OA
BRANCH  14  15
HETATM   15  C2  UNL     1      30.007  41.761  22.732  1.00  0.00     0.257 C
HETATM   16  C1  UNL     1      28.917  41.510  21.736  1.00  0.00     0.126 C
HETATM   17  O1  UNL     1      29.777  42.305  23.828  1.00  0.00    -0.266 OA
ENDBRANCH  14  15
ENDBRANCH   1  14
TORSDOF 5
ENDMDL