MODEL 3
REMARK VINA RESULT: -6.754137134      2.367      3.872
REMARK  5 active torsions:
REMARK  status: ('A' for Active; 'I' for Inactive)
REMARK    1  A    between atoms: N1_2  and  N2_3
REMARK       I    between atoms: N1_2  and  C2_7
REMARK    2  A    between atoms: N2_3  and  O1_5
REMARK       I    between atoms: C2_7  and  N3_9
REMARK    3  A    between atoms: N3_9  and  C3_11
REMARK    4  A    between atoms: C6_16  and  O5_17
REMARK    5  A    between atoms: O5_17  and  C7_18
ROOT
HETATM    1  C3  UNL     1      32.157  42.607  21.559  1.00  0.00     0.123 C
HETATM    2  C4  UNL     1      31.097  43.068  22.545  1.00  0.00     0.196 C
HETATM    3  O3  UNL     1      30.160  43.781  21.817  1.00  0.00    -0.358 OA
HETATM    4  C5  UNL     1      30.140  43.261  20.545  1.00  0.00     0.273 C
HETATM    5  O4  UNL     1      29.714  41.939  20.528  1.00  0.00    -0.330 OA
HETATM    6  C6  UNL     1      30.820  41.564  19.754  1.00  0.00     0.284 C
HETATM    7  C8  UNL     1      31.518  42.792  20.210  1.00  0.00     0.122 C
ENDROOT
BRANCH   1   8
HETATM    8  N3  UNL     1      33.384  43.295  21.732  1.00  0.00    -0.334 N
HETATM    9  C2  UNL     1      34.565  42.567  22.033  1.00  0.00     0.338 C
HETATM   10  N1  UNL     1      35.822  43.193  22.219  1.00  0.00    -0.228 N
HETATM   11  O2  UNL     1      34.549  41.296  22.152  1.00  0.00    -0.245 OA
HETATM   12  C1  UNL     1      37.005  42.420  22.524  1.00  0.00     0.185 C
ATOM     13  H3  UNL     1      33.417  44.310  21.641  1.00  0.00     0.164 HD
BRANCH  10  14
HETATM   14  N2  UNL     1      35.869  44.597  22.093  1.00  0.00    -0.204 N
ATOM     15  H2  UNL     1      36.320  45.148  22.823  1.00  0.00     0.216 HD
BRANCH  14  16
HETATM   16  O1  UNL     1      35.375  45.175  21.116  1.00  0.00    -0.274 OA
ATOM     17  H1  UNL     1      35.876  45.325  20.323  1.00  0.00     0.246 HD
ENDBRANCH  14  16
ENDBRANCH  10  14
ENDBRANCH   1   8
BRANCH   6  18
HETATM   18  O5  UNL     1      30.444  41.508  18.400  1.00  0.00    -0.274 OA
BRANCH  18  19
HETATM   19  C7  UNL     1      31.155  40.879  17.407  1.00  0.00     0.375 C
HETATM   20  N4  UNL     1      32.314  41.413  16.791  1.00  0.00    -0.032 NA
HETATM   21  O6  UNL     1      30.736  39.741  17.025  1.00  0.00    -0.242 OA
ENDBRANCH  18  19
ENDBRANCH   6  18
TORSDOF 5
ENDMDL