MODEL 1
REMARK VINA RESULT: -7.053555587      0.000      0.000
REMARK  5 active torsions:
REMARK  status: ('A' for Active; 'I' for Inactive)
REMARK    1  A    between atoms: C4_5  and  N2_6
REMARK    2  A    between atoms: C5_10  and  O1_11
REMARK    3  A    between atoms: C6_13  and  C7_14
REMARK    4  A    between atoms: C7_14  and  O2_15
REMARK    5  A    between atoms: O2_15  and  N3_16
ROOT
HETATM    1  N1  UNL     1      28.989  42.435  21.510  1.00  0.00    -0.196 NA
HETATM    2  C1  UNL     1      30.133  42.409  21.329  1.00  0.00     0.079 C
HETATM    3  C2  UNL     1      31.593  42.361  21.119  1.00  0.00     0.217 C
HETATM    4  C3  UNL     1      31.896  42.830  19.723  1.00  0.00     0.070 C
HETATM    5  C4  UNL     1      31.920  44.328  19.590  1.00  0.00     0.215 C
HETATM    6  C5  UNL     1      33.103  44.958  20.285  1.00  0.00     0.169 C
HETATM    7  C6  UNL     1      32.804  44.954  21.767  1.00  0.00     0.166 C
HETATM    8  S1  UNL     1      32.425  43.324  22.351  1.00  0.00     0.170 S
HETATM    9  O5  UNL     1      33.661  42.606  22.809  1.00  0.00    -0.226 OA
HETATM   10  O6  UNL     1      31.508  43.463  23.530  1.00  0.00    -0.226 OA
ENDROOT
BRANCH   5  11
HETATM   11  N2  UNL     1      32.040  44.624  18.164  1.00  0.00    -0.072 N
ATOM     12  H23 UNL     1      32.905  45.109  17.926  1.00  0.00     0.274 HD
ATOM     13  H22 UNL     1      32.197  43.794  17.593  1.00  0.00     0.274 HD
ATOM     14  H21 UNL     1      31.202  45.142  17.899  1.00  0.00     0.274 HD
ENDBRANCH   5  11
BRANCH   7  15
HETATM   15  C7  UNL     1      33.927  45.547  22.579  1.00  0.00     0.230 C
BRANCH  15  16
HETATM   16  O2  UNL     1      33.863  46.955  22.648  1.00  0.00    -0.220 OA
BRANCH  16  17
HETATM   17  N3  UNL     1      34.886  47.668  22.105  1.00  0.00     0.004 N
HETATM   18  O3  UNL     1      36.049  47.351  22.360  1.00  0.00    -0.511 OA
HETATM   19  O4  UNL     1      34.630  48.722  21.287  1.00  0.00    -0.511 OA
ENDBRANCH  16  17
ENDBRANCH  15  16
ENDBRANCH   7  15
BRANCH   6  20
HETATM   20  O1  UNL     1      33.140  46.298  19.884  1.00  0.00    -0.392 OA
ATOM     21  H1  UNL     1      33.521  46.314  19.014  1.00  0.00     0.210 HD
ENDBRANCH   6  20
TORSDOF 5
ENDMDL