MODEL 5
REMARK VINA RESULT: -6.585555529      1.165      1.819
REMARK  5 active torsions:
REMARK  status: ('A' for Active; 'I' for Inactive)
REMARK    1  A    between atoms: O1_2  and  C2_3
REMARK    2  A    between atoms: C2_3  and  C3_5
REMARK    3  A    between atoms: C3_5  and  O3_6
REMARK    4  A    between atoms: C3_5  and  C4_8
REMARK    5  A    between atoms: C3_5  and  C6_11
ROOT
HETATM    1  C4  UNL     1      32.789  45.114  21.641  1.00  0.00     0.175 C
HETATM    2  C5  UNL     1      33.504  46.144  22.327  1.00  0.00     0.062 C
HETATM    3  N1  UNL     1      34.065  47.002  22.873  1.00  0.00    -0.197 NA
ENDROOT
BRANCH   1   4
HETATM    4  C3  UNL     1      32.722  43.815  22.354  1.00  0.00     0.185 C
BRANCH   4   5
HETATM    5  C2  UNL     1      33.973  43.023  22.295  1.00  0.00     0.297 C
HETATM    6  O2  UNL     1      34.013  41.933  22.920  1.00  0.00    -0.262 OA
BRANCH   5   7
HETATM    7  O1  UNL     1      35.096  43.407  21.595  1.00  0.00    -0.324 OA
HETATM    8  C1  UNL     1      36.369  43.592  22.145  1.00  0.00     0.213 C
ENDBRANCH   5   7
ENDBRANCH   4   5
BRANCH   4   9
HETATM    9  O3  UNL     1      32.619  44.206  23.751  1.00  0.00    -0.376 OA
ATOM     10  H3  UNL     1      31.703  44.065  23.962  1.00  0.00     0.211 HD
ENDBRANCH   4   9
BRANCH   4  11
HETATM   11  C6  UNL     1      31.548  42.952  22.139  1.00  0.00     0.198 C
HETATM   12  O4  UNL     1      30.824  42.646  23.290  1.00  0.00    -0.377 OA
HETATM   13  C7  UNL     1      29.871  41.752  22.750  1.00  0.00     0.203 C
HETATM   14  C8  UNL     1      29.307  42.554  21.607  1.00  0.00     0.179 C
HETATM   15  O5  UNL     1      28.915  41.778  20.545  1.00  0.00    -0.357 OA
HETATM   16  C10 UNL     1      30.546  43.322  21.121  1.00  0.00     0.187 C
HETATM   17  C9  UNL     1      30.066  41.581  19.788  1.00  0.00     0.339 C
HETATM   18  O6  UNL     1      30.819  42.723  19.882  1.00  0.00    -0.356 OA
ENDBRANCH   4  11
ENDBRANCH   1   4
TORSDOF 5
ENDMDL