MODEL 1
REMARK VINA RESULT: -7.489833729      0.000      0.000
REMARK  6 active torsions:
REMARK  status: ('A' for Active; 'I' for Inactive)
REMARK    1  A    between atoms: C2_2  and  O2_4
REMARK    2  A    between atoms: O2_4  and  C3_5
REMARK    3  A    between atoms: C5_9  and  O5_10
REMARK    4  A    between atoms: O5_10  and  S1_11
REMARK    5  A    between atoms: S1_11  and  N1_12
REMARK    6  A    between atoms: C6_17  and  O8_18
ROOT
HETATM    1  C3  UNL     1      34.288  43.752  21.362  1.00  0.00     0.192 C
HETATM    2  C4  UNL     1      33.734  44.377  20.102  1.00  0.00     0.245 C
HETATM    3  O3  UNL     1      32.910  43.471  19.459  1.00  0.00    -0.236 OA
HETATM    4  O4  UNL     1      32.759  42.347  20.149  1.00  0.00    -0.204 OA
HETATM    5  C5  UNL     1      32.113  42.689  21.332  1.00  0.00     0.348 C
HETATM    6  C6  UNL     1      33.166  43.284  22.246  1.00  0.00     0.209 C
ENDROOT
BRANCH   5   7
HETATM    7  O5  UNL     1      31.448  41.632  21.911  1.00  0.00    -0.221 OA
BRANCH   7   8
HETATM    8  S1  UNL     1      30.064  42.043  22.717  1.00  0.00     0.358 S
HETATM    9  O6  UNL     1      29.354  40.845  23.301  1.00  0.00    -0.176 OA
HETATM   10  O7  UNL     1      30.426  42.957  23.873  1.00  0.00    -0.176 OA
BRANCH   8  11
HETATM   11  N1  UNL     1      29.020  42.883  21.628  1.00  0.00    -0.306 N
ATOM     12  H12 UNL     1      29.295  43.236  20.712  1.00  0.00     0.171 HD
ATOM     13  H11 UNL     1      28.098  42.963  22.056  1.00  0.00     0.171 HD
ENDBRANCH   8  11
ENDBRANCH   7   8
ENDBRANCH   5   7
BRANCH   6  14
HETATM   14  O8  UNL     1      33.649  42.308  23.138  1.00  0.00    -0.388 OA
ATOM     15  H8  UNL     1      32.938  42.009  23.693  1.00  0.00     0.210 HD
ENDBRANCH   6  14
BRANCH   1  16
HETATM   16  O2  UNL     1      35.236  44.543  22.002  1.00  0.00    -0.311 OA
BRANCH  16  17
HETATM   17  C2  UNL     1      36.577  44.206  22.138  1.00  0.00     0.255 C
HETATM   18  C1  UNL     1      37.071  42.828  22.259  1.00  0.00     0.126 C
HETATM   19  O1  UNL     1      37.380  45.176  22.155  1.00  0.00    -0.266 OA
ENDBRANCH  16  17
ENDBRANCH   1  16
TORSDOF 6
ENDMDL