MODEL 4
REMARK VINA RESULT: -6.637582863      3.380      5.719
REMARK  5 active torsions:
REMARK  status: ('A' for Active; 'I' for Inactive)
REMARK    1  A    between atoms: C2_10  and  N5_11
REMARK    2  A    between atoms: N5_11  and  N6_13
REMARK    3  A    between atoms: N7_15  and  O1_17
REMARK    4  A    between atoms: O1_17  and  C3_18
REMARK    5  A    between atoms: C5_20  and  O2_21
ROOT
HETATM    1  N5  UNL     1      33.343  43.962  21.361  1.00  0.00    -0.099 N
ATOM      2  H5  UNL     1      33.339  42.962  21.558  1.00  0.00     0.208 HD
ENDROOT
BRANCH   1   3
HETATM    3  C2  UNL     1      33.557  44.407  20.024  1.00  0.00     0.735 A
HETATM    4  N2  UNL     1      32.546  44.867  19.133  1.00  0.00    -0.084 N
HETATM    5  N1  UNL     1      31.290  44.961  19.370  1.00  0.00    -0.323 N
HETATM    6  C1  UNL     1      33.177  45.218  17.897  1.00  0.00     0.241 A
ATOM      7  H12 UNL     1      30.566  45.290  18.731  1.00  0.00     0.178 HD
ATOM      8  H11 UNL     1      30.840  44.711  20.251  1.00  0.00     0.178 HD
HETATM    9  N3  UNL     1      34.428  44.974  18.087  1.00  0.00    -0.279 N
HETATM   10  N4  UNL     1      34.660  44.487  19.364  1.00  0.00    -0.128 N
ATOM     11  H3  UNL     1      35.156  45.121  17.387  1.00  0.00     0.188 HD
ATOM     12  H4  UNL     1      35.576  44.227  19.729  1.00  0.00     0.205 HD
ENDBRANCH   1   3
BRANCH   1  13
HETATM   13  N6  UNL     1      33.138  44.863  22.404  1.00  0.00    -0.121 N
HETATM   14  S1  UNL     1      33.995  46.416  22.432  1.00  0.00     0.091 SA
HETATM   15  N7  UNL     1      32.345  44.607  23.353  1.00  0.00    -0.176 N
ATOM     16  H7  UNL     1      32.202  45.274  24.111  1.00  0.00     0.218 HD
BRANCH  15  17
HETATM   17  O1  UNL     1      31.682  43.406  23.335  1.00  0.00    -0.230 OA
BRANCH  17  18
HETATM   18  C3  UNL     1      30.341  43.261  22.913  1.00  0.00     0.292 C
HETATM   19  C4  UNL     1      29.835  41.935  23.387  1.00  0.00     0.097 C
HETATM   20  C5  UNL     1      29.623  41.125  22.149  1.00  0.00     0.146 C
HETATM   21  C6  UNL     1      30.351  41.952  21.104  1.00  0.00     0.203 C
HETATM   22  O3  UNL     1      30.269  43.270  21.529  1.00  0.00    -0.356 OA
BRANCH  20  23
HETATM   23  O2  UNL     1      28.284  41.089  21.801  1.00  0.00    -0.393 OA
ATOM     24  H2  UNL     1      28.175  41.158  20.860  1.00  0.00     0.210 HD
ENDBRANCH  20  23
ENDBRANCH  17  18
ENDBRANCH  15  17
ENDBRANCH   1  13
TORSDOF 5
ENDMDL