MODEL 2
REMARK VINA RESULT: -7.163707091      0.078      1.103
REMARK  4 active torsions:
REMARK  status: ('A' for Active; 'I' for Inactive)
REMARK       I    between atoms: C1_2  and  N1_3
REMARK       I    between atoms: C1_2  and  N3_13
REMARK    1  A    between atoms: N1_3  and  C2_5
REMARK    2  A    between atoms: C4_8  and  O3_9
REMARK    3  A    between atoms: O3_9  and  N2_10
REMARK    4  A    between atoms: N3_13  and  S1_15
ROOT
HETATM    1  O1  UNL     1      32.753  44.660  21.226  1.00  0.00    -0.246 OA
HETATM    2  C1  UNL     1      32.690  45.027  22.417  1.00  0.00     0.332 C
HETATM    3  N1  UNL     1      33.492  46.106  22.836  1.00  0.00    -0.328 N
ATOM      4  H1  UNL     1      33.433  46.399  23.812  1.00  0.00     0.165 HD
HETATM    5  N3  UNL     1      31.823  44.361  23.306  1.00  0.00    -0.217 N
ATOM      6  H3  UNL     1      31.771  44.662  24.279  1.00  0.00     0.186 HD
ENDROOT
BRANCH   3   7
HETATM    7  C2  UNL     1      34.398  46.825  21.964  1.00  0.00     0.198 A
HETATM    8  C3  UNL     1      35.832  46.714  22.249  1.00  0.00     0.186 A
HETATM    9  O2  UNL     1      36.956  46.213  22.334  1.00  0.00    -0.293 OA
HETATM   10  C4  UNL     1      35.057  48.008  22.505  1.00  0.00     0.260 A
BRANCH  10  11
HETATM   11  O3  UNL     1      35.540  49.056  21.729  1.00  0.00    -0.205 OA
BRANCH  11  12
HETATM   12  N2  UNL     1      35.346  50.346  22.126  1.00  0.00     0.005 N
HETATM   13  O4  UNL     1      35.151  51.241  21.294  1.00  0.00    -0.511 OA
HETATM   14  O5  UNL     1      35.371  50.647  23.459  1.00  0.00    -0.511 OA
ENDBRANCH  11  12
ENDBRANCH  10  11
ENDBRANCH   3   7
BRANCH   5  15
HETATM   15  S1  UNL     1      30.845  43.037  22.766  1.00  0.00     0.212 S
HETATM   16  O6  UNL     1      29.908  43.529  21.695  1.00  0.00    -0.578 OA
HETATM   17  O7  UNL     1      29.976  42.515  23.895  1.00  0.00    -0.578 OA
HETATM   18  O8  UNL     1      31.824  41.790  22.211  1.00  0.00    -0.578 OA
ENDBRANCH   5  15
TORSDOF 4
ENDMDL