MODEL 1
REMARK VINA RESULT: -6.528865609      0.000      0.000
REMARK  3 active torsions:
REMARK  status: ('A' for Active; 'I' for Inactive)
REMARK    1  A    between atoms: O1_2  and  C2_3
REMARK    2  A    between atoms: C3_5  and  O3_6
REMARK    3  A    between atoms: O3_6  and  S1_7
ROOT
HETATM    1  C2  UNL     1      35.055  43.566  21.095  1.00  0.00     0.293 C
HETATM    2  O2  UNL     1      33.887  42.929  20.708  1.00  0.00    -0.326 OA
HETATM    3  C3  UNL     1      32.873  43.768  21.220  1.00  0.00     0.309 C
HETATM    4  C4  UNL     1      33.337  45.112  20.669  1.00  0.00     0.197 C
HETATM    5  N1  UNL     1      32.752  46.224  21.354  1.00  0.00    -0.086 NA
HETATM    6  O7  UNL     1      33.636  47.271  21.263  1.00  0.00    -0.260 OA
HETATM    7  C5  UNL     1      34.715  47.014  22.105  1.00  0.00     0.365 C
HETATM    8  O8  UNL     1      34.936  45.653  22.290  1.00  0.00    -0.353 OA
HETATM    9  C6  UNL     1      34.808  45.047  21.032  1.00  0.00     0.205 C
ENDROOT
BRANCH   3  10
HETATM   10  O3  UNL     1      31.624  43.414  20.802  1.00  0.00    -0.222 OA
BRANCH  10  11
HETATM   11  S1  UNL     1      30.661  42.844  22.076  1.00  0.00     0.254 S
HETATM   12  O4  UNL     1      30.807  43.713  23.287  1.00  0.00    -0.572 OA
HETATM   13  O5  UNL     1      31.078  41.428  22.380  1.00  0.00    -0.572 OA
HETATM   14  O6  UNL     1      29.078  42.807  21.512  1.00  0.00    -0.572 OA
ENDBRANCH  10  11
ENDBRANCH   3  10
BRANCH   1  15
HETATM   15  O1  UNL     1      35.376  43.123  22.366  1.00  0.00    -0.363 OA
HETATM   16  C1  UNL     1      36.702  42.693  22.344  1.00  0.00     0.204 C
ENDBRANCH   1  15
TORSDOF 3
ENDMDL