MODEL 3
REMARK VINA RESULT: -5.282897589      0.117      1.085
REMARK  3 active torsions:
REMARK  status: ('A' for Active; 'I' for Inactive)
REMARK    1  A    between atoms: C4_4  and  C5_5
REMARK    2  A    between atoms: C11_11  and  N1_12
REMARK    3  A    between atoms: N1_12  and  C12_14
ROOT
HETATM    1  C1  UNL     1       0.488   7.818   6.907  1.00  0.00     0.012 C
HETATM    2  C2  UNL     1      -0.284   6.625   6.382  1.00  0.00     0.004 C
HETATM    3  C3  UNL     1      -0.156   5.521   7.392  1.00  0.00     0.011 C
HETATM    4  C4  UNL     1      -0.987   4.321   7.063  1.00  0.00    -0.007 C
HETATM    5  C9  UNL     1      -1.974   4.578   5.958  1.00  0.00     0.007 C
HETATM    6  C10 UNL     1      -2.671   5.915   6.062  1.00  0.00     0.026 C
HETATM    7  C11 UNL     1      -1.702   7.061   6.144  1.00  0.00     0.087 C
ENDROOT
BRANCH   7   8
HETATM    8  N1  UNL     1      -2.135   8.024   7.131  1.00  0.00    -0.364 N
ATOM      9  H1  UNL     1      -1.447   8.339   7.816  1.00  0.00     0.162 HD
BRANCH   8  10
HETATM   10  C12 UNL     1      -3.440   8.563   7.218  1.00  0.00     0.181 C
HETATM   11  N2  UNL     1      -4.339   8.214   8.265  1.00  0.00    -0.070 NA
HETATM   12  S1  UNL     1      -3.909   9.623   6.065  1.00  0.00    -0.044 SA
ENDBRANCH   8  10
ENDBRANCH   7   8
BRANCH   4  13
HETATM   13  C5  UNL     1      -1.587   3.753   8.301  1.00  0.00    -0.048 C
HETATM   14  C6  UNL     1      -2.769   2.877   7.866  1.00  0.00     0.015 C
HETATM   15  C7  UNL     1      -0.702   2.911   9.149  1.00  0.00     0.015 C
HETATM   16  C8  UNL     1      -2.168   4.840   9.200  1.00  0.00     0.015 C
ENDBRANCH   4  13
TORSDOF 3
ENDMDL