MODEL 3
REMARK VINA RESULT: -6.156768931      1.039      1.301
REMARK  4 active torsions:
REMARK  status: ('A' for Active; 'I' for Inactive)
REMARK    1  A    between atoms: C5_5  and  N1_6
REMARK    2  A    between atoms: N1_6  and  C6_8
REMARK    3  A    between atoms: C6_8  and  N2_10
REMARK    4  A    between atoms: N2_10  and  C7_12
ROOT
HETATM    1  N1  UNL     1      -2.806   6.997   7.505  1.00  0.00    -0.363 N
ATOM      2  H1  UNL     1      -2.958   7.436   8.413  1.00  0.00     0.162 HD
ENDROOT
BRANCH   1   3
HETATM    3  C5  UNL     1      -1.943   7.635   6.536  1.00  0.00     0.084 C
HETATM    4  C4  UNL     1      -0.561   7.076   6.521  1.00  0.00     0.025 C
HETATM    5  C3  UNL     1       0.505   8.046   6.919  1.00  0.00     0.006 C
HETATM    6  C2  UNL     1       0.414   9.412   6.333  1.00  0.00    -0.015 C
HETATM    7  C1  UNL     1       1.531   9.706   5.352  1.00  0.00     0.010 C
HETATM    8  C12 UNL     1      -0.917   9.631   5.694  1.00  0.00    -0.013 C
HETATM    9  C11 UNL     1      -1.957   9.134   6.709  1.00  0.00     0.029 C
HETATM   10  C13 UNL     1      -1.206  11.070   5.373  1.00  0.00     0.010 C
ENDBRANCH   1   3
BRANCH   1  11
HETATM   11  C6  UNL     1      -3.442   5.767   7.205  1.00  0.00     0.168 C
HETATM   12  S1  UNL     1      -4.476   5.709   5.920  1.00  0.00    -0.041 SA
BRANCH  11  13
HETATM   13  N2  UNL     1      -3.210   4.625   7.975  1.00  0.00    -0.359 N
ATOM     14  H2  UNL     1      -3.933   4.377   8.650  1.00  0.00     0.162 HD
BRANCH  13  15
HETATM   15  C7  UNL     1      -2.065   3.765   7.919  1.00  0.00     0.021 C
HETATM   16  C8  UNL     1      -1.479   3.639   6.529  1.00  0.00     0.037 C
HETATM   17  C9  UNL     1      -1.019   4.283   8.880  1.00  0.00     0.037 C
HETATM   18  C10 UNL     1      -2.480   2.379   8.418  1.00  0.00     0.037 C
ENDBRANCH  13  15
ENDBRANCH  11  13
ENDBRANCH   1  11
TORSDOF 4
ENDMDL