MODEL 1
REMARK VINA RESULT: -6.944966014      0.000      0.000
REMARK  2 active torsions:
REMARK  status: ('A' for Active; 'I' for Inactive)
REMARK    1  A    between atoms: C2_2  and  C4_4
REMARK    2  A    between atoms: C12_12  and  O1_13
ROOT
HETATM    1  C4  UNL     1      -1.336   6.062   6.893  1.00  0.00    -0.006 C
HETATM    2  C5  UNL     1      -0.203   7.060   6.699  1.00  0.00     0.006 C
HETATM    3  C6  UNL     1      -0.842   8.404   6.439  1.00  0.00     0.006 C
HETATM    4  C7  UNL     1      -2.204   8.226   7.033  1.00  0.00    -0.005 C
HETATM    5  C8  UNL     1      -3.208   9.229   6.713  1.00  0.00    -0.004 C
HETATM    6  C9  UNL     1      -2.971  10.236   5.638  1.00  0.00     0.006 C
HETATM    7  C10 UNL     1      -4.508  10.211   5.486  1.00  0.00     0.008 C
HETATM    8  C11 UNL     1      -4.340   8.744   5.833  1.00  0.00     0.019 C
HETATM    9  C12 UNL     1      -5.429   8.066   6.547  1.00  0.00     0.123 C
HETATM   10  C13 UNL     1      -5.106   6.612   6.681  1.00  0.00     0.037 C
HETATM   11  C14 UNL     1      -3.799   6.314   7.339  1.00  0.00    -0.012 C
HETATM   12  C15 UNL     1      -3.776   6.666   8.811  1.00  0.00     0.010 C
HETATM   13  C16 UNL     1      -2.608   6.834   6.592  1.00  0.00    -0.002 C
ENDROOT
BRANCH   1  14
HETATM   14  C2  UNL     1      -1.201   4.946   5.860  1.00  0.00    -0.018 C
HETATM   15  C1  UNL     1      -2.226   5.062   4.776  1.00  0.00     0.010 C
HETATM   16  C3  UNL     1      -1.300   3.579   6.501  1.00  0.00     0.010 C
ENDBRANCH   1  14
BRANCH   9  17
HETATM   17  O1  UNL     1      -5.781   8.597   7.766  1.00  0.00    -0.395 OA
ATOM     18  H1  UNL     1      -5.738   8.008   8.509  1.00  0.00     0.210 HD
ENDBRANCH   9  17
TORSDOF 2
ENDMDL