MODEL 1
REMARK VINA RESULT: -5.994888961      0.000      0.000
REMARK  3 active torsions:
REMARK  status: ('A' for Active; 'I' for Inactive)
REMARK    1  A    between atoms: C1_2  and  N1_3
REMARK    2  A    between atoms: C1_2  and  N2_11
REMARK    3  A    between atoms: N2_11  and  C8_13
ROOT
HETATM    1  S1  UNL     1      -7.318   9.315   5.929  1.00  0.00    -0.041 SA
HETATM    2  C1  UNL     1      -5.715   9.059   5.809  1.00  0.00     0.173 C
ENDROOT
BRANCH   2   3
HETATM    3  N1  UNL     1      -5.172   7.820   5.389  1.00  0.00    -0.341 N
HETATM    4  C2  UNL     1      -4.845   6.956   6.289  1.00  0.00    -0.011 C
HETATM    5  C3  UNL     1      -4.274   5.661   5.769  1.00  0.00     0.052 C
HETATM    6  C7  UNL     1      -4.992   7.151   7.742  1.00  0.00     0.052 C
HETATM    7  C4  UNL     1      -3.479   5.086   6.945  1.00  0.00     0.006 C
HETATM    8  C5  UNL     1      -2.711   6.257   7.543  1.00  0.00     0.001 C
HETATM    9  C6  UNL     1      -3.687   6.970   8.482  1.00  0.00     0.006 C
ATOM     10  H1  UNL     1      -5.042   7.616   4.398  1.00  0.00     0.167 HD
ENDBRANCH   2   3
BRANCH   2  11
HETATM   11  N2  UNL     1      -4.831  10.109   6.141  1.00  0.00    -0.339 N
ATOM     12  H2  UNL     1      -5.131  10.801   6.828  1.00  0.00     0.164 HD
BRANCH  11  13
HETATM   13  C8  UNL     1      -3.535  10.243   5.557  1.00  0.00     0.286 C
HETATM   14  C9  UNL     1      -3.261  11.603   4.987  1.00  0.00     0.054 C
HETATM   15  C10 UNL     1      -1.805  12.011   5.184  1.00  0.00     0.005 C
HETATM   16  C11 UNL     1      -0.967  10.773   4.941  1.00  0.00     0.028 C
HETATM   17  C12 UNL     1      -1.291   9.685   5.933  1.00  0.00     0.235 C
HETATM   18  N3  UNL     1      -2.568   9.894   6.597  1.00  0.00    -0.054 N
ATOM     19  H32 UNL     1      -2.522  10.580   7.349  1.00  0.00     0.279 HD
ATOM     20  H31 UNL     1      -2.860   9.099   7.165  1.00  0.00     0.279 HD
ENDBRANCH  11  13
ENDBRANCH   2  11
TORSDOF 3
ENDMDL