MODEL 3
REMARK VINA RESULT: -6.244481469      0.921      1.097
REMARK  2 active torsions:
REMARK  status: ('A' for Active; 'I' for Inactive)
REMARK    1  A    between atoms: C2_2  and  N1_5
REMARK       I    between atoms: N1_5  and  C5_7
REMARK       I    between atoms: C5_7  and  N3_16
REMARK    2  A    between atoms: N2_8  and  C6_10
ROOT
HETATM    1  N1  UNL     1      -3.278   6.227   8.032  1.00  0.00    -0.218 N
ATOM      2  H1  UNL     1      -2.978   6.278   9.006  1.00  0.00     0.178 HD
HETATM    3  C5  UNL     1      -2.895   7.249   7.111  1.00  0.00     0.683 C
HETATM    4  N2  UNL     1      -3.397   8.448   7.182  1.00  0.00    -0.221 N
ATOM      5  H2  UNL     1      -4.078   8.679   7.904  1.00  0.00     0.178 HD
HETATM    6  N3  UNL     1      -1.943   6.895   6.116  1.00  0.00    -0.126 N
ATOM      7  H3  UNL     1      -2.261   6.763   5.156  1.00  0.00     0.197 HD
HETATM    8  C12 UNL     1      -0.573   6.721   6.410  1.00  0.00     0.196 C
HETATM    9  N4  UNL     1       0.556   6.567   6.648  1.00  0.00    -0.171 NA
ENDROOT
BRANCH   1  10
HETATM   10  C2  UNL     1      -4.083   5.131   7.587  1.00  0.00     0.036 C
HETATM   11  C1  UNL     1      -4.818   5.473   6.312  1.00  0.00     0.038 C
HETATM   12  C3  UNL     1      -3.275   3.875   7.432  1.00  0.00     0.038 C
HETATM   13  C4  UNL     1      -5.153   4.845   8.644  1.00  0.00     0.038 C
ENDBRANCH   1  10
BRANCH   4  14
HETATM   14  C6  UNL     1      -2.984   9.438   6.237  1.00  0.00     0.099 C
HETATM   15  C7  UNL     1      -4.081  10.396   5.852  1.00  0.00     0.026 C
HETATM   16  C8  UNL     1      -3.432  11.569   5.150  1.00  0.00     0.002 C
HETATM   17  C9  UNL     1      -2.136  11.172   4.470  1.00  0.00     0.000 C
HETATM   18  C10 UNL     1      -1.080  10.755   5.468  1.00  0.00     0.002 C
HETATM   19  C11 UNL     1      -1.811  10.262   6.718  1.00  0.00     0.026 C
ENDBRANCH   4  14
TORSDOF 2
ENDMDL