MODEL 1
REMARK VINA RESULT: -5.716443407      0.000      0.000
REMARK  3 active torsions:
REMARK  status: ('A' for Active; 'I' for Inactive)
REMARK    1  A    between atoms: C2_2  and  N1_5
REMARK    2  A    between atoms: N1_5  and  C5_7
REMARK    3  A    between atoms: C5_7  and  C6_11
ROOT
HETATM    1  C6  UNL     1      -3.665   5.214   6.199  1.00  0.00     0.061 C
HETATM    2  C7  UNL     1      -2.384   5.644   5.582  1.00  0.00    -0.002 C
HETATM    3  C8  UNL     1      -1.427   6.346   6.501  1.00  0.00     0.010 C
HETATM    4  C9  UNL     1      -1.145   5.511   7.728  1.00  0.00    -0.013 C
HETATM    5  C10 UNL     1      -0.479   4.237   7.305  1.00  0.00     0.009 C
HETATM    6  C11 UNL     1      -1.417   3.502   6.371  1.00  0.00    -0.013 C
HETATM    7  C12 UNL     1      -1.669   4.337   5.159  1.00  0.00     0.010 C
HETATM    8  C13 UNL     1      -2.679   3.199   7.124  1.00  0.00     0.010 C
HETATM    9  C14 UNL     1      -3.367   4.517   7.503  1.00  0.00    -0.002 C
HETATM   10  C15 UNL     1      -2.471   5.296   8.420  1.00  0.00     0.010 C
ENDROOT
BRANCH   1  11
HETATM   11  C5  UNL     1      -4.694   6.237   6.298  1.00  0.00     0.076 C
HETATM   12  N2  UNL     1      -5.809   5.962   6.857  1.00  0.00    -0.389 N
ATOM     13  H22 UNL     1      -6.532   6.679   6.927  1.00  0.00     0.157 HD
ATOM     14  H21 UNL     1      -5.960   5.023   7.224  1.00  0.00     0.157 HD
BRANCH  11  15
HETATM   15  N1  UNL     1      -4.480   7.568   5.779  1.00  0.00    -0.372 N
ATOM     16  H1  UNL     1      -4.420   7.686   4.767  1.00  0.00     0.161 HD
BRANCH  15  17
HETATM   17  C2  UNL     1      -4.348   8.722   6.597  1.00  0.00     0.020 C
HETATM   18  C1  UNL     1      -3.263   9.631   6.022  1.00  0.00     0.037 C
HETATM   19  C3  UNL     1      -5.630   9.529   6.552  1.00  0.00     0.037 C
HETATM   20  C4  UNL     1      -4.087   8.418   8.051  1.00  0.00     0.037 C
ENDBRANCH  15  17
ENDBRANCH  11  15
ENDBRANCH   1  11
TORSDOF 3
ENDMDL