MODEL 5
REMARK VINA RESULT: -5.766563480      3.666      4.839
REMARK  4 active torsions:
REMARK  status: ('A' for Active; 'I' for Inactive)
REMARK    1  A    between atoms: C5_5  and  N1_6
REMARK    2  A    between atoms: N1_6  and  C6_8
REMARK    3  A    between atoms: C6_8  and  N2_10
REMARK    4  A    between atoms: N2_10  and  C7_12
ROOT
HETATM    1  N1  UNL     1      -2.702   9.964   6.446  1.00  0.00    -0.363 N
ATOM      2  H1  UNL     1      -2.628  10.531   7.291  1.00  0.00     0.162 HD
ENDROOT
BRANCH   1   3
HETATM    3  C5  UNL     1      -1.537   9.223   5.992  1.00  0.00     0.083 C
HETATM    4  C4  UNL     1      -1.361   7.998   6.902  1.00  0.00     0.025 C
HETATM    5  C3  UNL     1      -0.196   7.253   6.277  1.00  0.00     0.006 C
HETATM    6  C2  UNL     1       1.033   8.022   6.654  1.00  0.00    -0.019 C
HETATM    7  C1  UNL     1       2.196   7.608   5.740  1.00  0.00     0.010 C
HETATM    8  C12 UNL     1       0.871   9.490   6.690  1.00  0.00     0.006 C
HETATM    9  C11 UNL     1      -0.293  10.054   5.948  1.00  0.00     0.025 C
ENDBRANCH   1   3
BRANCH   1  10
HETATM   10  C6  UNL     1      -3.938   9.924   5.751  1.00  0.00     0.168 C
HETATM   11  S1  UNL     1      -4.758  11.328   5.574  1.00  0.00    -0.041 SA
BRANCH  10  12
HETATM   12  N2  UNL     1      -4.442   8.701   5.223  1.00  0.00    -0.359 N
ATOM     13  H2  UNL     1      -4.271   8.465   4.245  1.00  0.00     0.162 HD
BRANCH  12  14
HETATM   14  C7  UNL     1      -5.198   7.786   6.063  1.00  0.00     0.021 C
HETATM   15  C8  UNL     1      -5.069   8.137   7.523  1.00  0.00     0.037 C
HETATM   16  C9  UNL     1      -4.656   6.389   5.837  1.00  0.00     0.037 C
HETATM   17  C10 UNL     1      -6.663   7.793   5.716  1.00  0.00     0.037 C
ENDBRANCH  12  14
ENDBRANCH  10  12
ENDBRANCH   1  10
TORSDOF 4
ENDMDL