MODEL 5
REMARK VINA RESULT: -6.147608422      2.251      2.858
REMARK  4 active torsions:
REMARK  status: ('A' for Active; 'I' for Inactive)
REMARK    1  A    between atoms: C1_2  and  N1_3
REMARK    2  A    between atoms: C1_2  and  N2_11
REMARK    3  A    between atoms: N1_3  and  C2_5
REMARK    4  A    between atoms: N2_11  and  C8_13
ROOT
HETATM    1  S1  UNL     1      -4.006   6.310   8.542  1.00  0.00    -0.041 SA
HETATM    2  C1  UNL     1      -3.422   7.136   7.278  1.00  0.00     0.168 C
ENDROOT
BRANCH   2   3
HETATM    3  N1  UNL     1      -3.163   8.540   7.386  1.00  0.00    -0.363 N
ATOM      4  H1  UNL     1      -3.216   8.976   8.307  1.00  0.00     0.162 HD
BRANCH   3   5
HETATM    5  C2  UNL     1      -2.835   9.355   6.265  1.00  0.00     0.083 C
HETATM    6  C3  UNL     1      -3.842  10.498   6.190  1.00  0.00     0.025 C
HETATM    7  C4  UNL     1      -3.599  11.382   5.002  1.00  0.00     0.002 C
HETATM    8  C5  UNL     1      -2.177  11.931   5.000  1.00  0.00     0.000 C
HETATM    9  C6  UNL     1      -1.240  10.752   5.045  1.00  0.00     0.002 C
HETATM   10  C7  UNL     1      -1.475  10.022   6.372  1.00  0.00     0.025 C
ENDBRANCH   3   5
ENDBRANCH   2   3
BRANCH   2  11
HETATM   11  N2  UNL     1      -3.152   6.430   6.073  1.00  0.00    -0.363 N
ATOM     12  H2  UNL     1      -3.846   6.471   5.326  1.00  0.00     0.162 HD
BRANCH  11  13
HETATM   13  C8  UNL     1      -1.954   5.658   5.846  1.00  0.00     0.083 C
HETATM   14  C9  UNL     1      -2.228   4.246   6.199  1.00  0.00     0.025 C
HETATM   15  C10 UNL     1      -1.105   3.443   6.735  1.00  0.00     0.002 C
HETATM   16  C11 UNL     1      -0.610   4.201   7.978  1.00  0.00     0.000 C
HETATM   17  C12 UNL     1       0.016   5.442   7.439  1.00  0.00     0.002 C
HETATM   18  C13 UNL     1      -0.836   6.305   6.597  1.00  0.00     0.025 C
ENDBRANCH  11  13
ENDBRANCH   2  11
TORSDOF 4
ENDMDL