MODEL 2
REMARK VINA RESULT: -6.158325432      3.123      5.458
REMARK  4 active torsions:
REMARK  status: ('A' for Active; 'I' for Inactive)
REMARK    1  A    between atoms: C1_2  and  N1_3
REMARK    2  A    between atoms: C1_2  and  N2_12
REMARK    3  A    between atoms: N1_3  and  C2_5
REMARK    4  A    between atoms: N2_12  and  C9_14
ROOT
HETATM    1  S1  UNL     1      -7.338   9.087   5.564  1.00  0.00    -0.041 SA
HETATM    2  C1  UNL     1      -5.872   8.866   6.219  1.00  0.00     0.168 C
ENDROOT
BRANCH   2   3
HETATM    3  N1  UNL     1      -4.724   9.330   5.557  1.00  0.00    -0.363 N
ATOM      4  H1  UNL     1      -4.469   8.865   4.686  1.00  0.00     0.162 HD
BRANCH   3   5
HETATM    5  C2  UNL     1      -3.868  10.417   6.007  1.00  0.00     0.083 C
HETATM    6  C3  UNL     1      -3.199  10.984   4.765  1.00  0.00     0.025 C
HETATM    7  C4  UNL     1      -1.945  11.738   5.027  1.00  0.00     0.002 C
HETATM    8  C5  UNL     1      -0.694  10.881   4.871  1.00  0.00     0.000 C
HETATM    9  C6  UNL     1      -0.550   9.845   5.933  1.00  0.00     0.000 C
HETATM   10  C7  UNL     1      -1.818   9.076   6.216  1.00  0.00     0.002 C
HETATM   11  C8  UNL     1      -2.786   9.943   6.965  1.00  0.00     0.025 C
ENDBRANCH   3   5
ENDBRANCH   2   3
BRANCH   2  12
HETATM   12  N2  UNL     1      -5.797   8.187   7.458  1.00  0.00    -0.363 N
ATOM     13  H2  UNL     1      -6.080   8.690   8.298  1.00  0.00     0.162 HD
BRANCH  12  14
HETATM   14  C9  UNL     1      -5.347   6.827   7.603  1.00  0.00     0.083 C
HETATM   15  C10 UNL     1      -4.003   6.836   8.294  1.00  0.00     0.025 C
HETATM   16  C11 UNL     1      -3.294   5.644   7.694  1.00  0.00     0.002 C
HETATM   17  C12 UNL     1      -3.607   5.848   6.210  1.00  0.00     0.002 C
HETATM   18  C13 UNL     1      -5.039   6.272   6.219  1.00  0.00     0.025 C
ENDBRANCH  12  14
ENDBRANCH   2  12
TORSDOF 4
ENDMDL