MODEL 4
REMARK VINA RESULT: -6.556222139      1.110      4.644
REMARK  0 active torsions:
REMARK  status: ('A' for Active; 'I' for Inactive)
ROOT
HETATM    1  N1  UNL     1      -2.451   9.958   6.419  1.00  0.00    -0.405 N
ATOM      2  H11 UNL     1      -1.641  10.491   6.736  1.00  0.00     0.155 HD
ATOM      3  H12 UNL     1      -2.561  10.804   5.860  1.00  0.00     0.155 HD
HETATM    4  C1  UNL     1      -3.015   8.842   6.612  1.00  0.00    -0.011 C
HETATM    5  C2  UNL     1      -4.162   8.087   6.162  1.00  0.00     0.036 C
HETATM    6  C3  UNL     1      -4.984   8.201   7.505  1.00  0.00     0.016 C
HETATM    7  C4  UNL     1      -3.960   7.549   8.452  1.00  0.00    -0.002 C
HETATM    8  C5  UNL     1      -4.280   6.082   8.796  1.00  0.00     0.038 C
HETATM    9  C6  UNL     1      -3.132   5.128   8.504  1.00  0.00     0.190 C
HETATM   10  N2  UNL     1      -2.645   4.375   9.685  1.00  0.00    -0.070 N
ATOM     11  H21 UNL     1      -3.075   3.452   9.739  1.00  0.00     0.277 HD
ATOM     12  H22 UNL     1      -3.006   4.772  10.552  1.00  0.00     0.277 HD
HETATM   13  C7  UNL     1      -1.196   4.283   9.710  1.00  0.00     0.233 C
HETATM   14  C8  UNL     1      -0.446   4.815   8.520  1.00  0.00     0.032 C
HETATM   15  C9  UNL     1      -0.966   4.439   7.161  1.00  0.00    -0.012 C
HETATM   16  C10 UNL     1      -1.983   3.351   7.418  1.00  0.00     0.011 C
HETATM   17  C11 UNL     1      -3.308   4.149   7.455  1.00  0.00     0.017 C
HETATM   18  C12 UNL     1      -3.397   4.452   6.013  1.00  0.00     0.011 C
HETATM   19  C13 UNL     1      -2.702   5.827   5.791  1.00  0.00    -0.008 C
HETATM   20  C14 UNL     1      -1.293   5.496   6.200  1.00  0.00     0.010 C
HETATM   21  C15 UNL     1      -3.533   6.783   6.393  1.00  0.00     0.009 C
HETATM   22  C16 UNL     1      -2.851   7.583   7.442  1.00  0.00     0.040 C
ENDROOT
TORSDOF 0
ENDMDL