MODEL 3
REMARK VINA RESULT: -7.613083415      1.445      4.190
REMARK  8 active torsions:
REMARK  status: ('A' for Active; 'I' for Inactive)
REMARK       I    between atoms: C1_2  and  N1_3
REMARK    1  A    between atoms: C1_2  and  C18_24
REMARK    2  A    between atoms: N1_3  and  C2_5
REMARK    3  A    between atoms: C2_5  and  C3_6
REMARK    4  A    between atoms: C3_6  and  C4_7
REMARK    5  A    between atoms: C4_7  and  C5_8
REMARK    6  A    between atoms: C5_8  and  C6_9
REMARK    7  A    between atoms: C6_9  and  N2_10
REMARK       I    between atoms: N2_10  and  C7_12
REMARK    8  A    between atoms: C7_12  and  C8_14
ROOT
HETATM    1  N2  UNL     1      53.840  11.468  -1.489  1.00  0.00    -0.360 N
ATOM      2  H2  UNL     1      54.790  11.732  -1.228  1.00  0.00     0.162 HD
HETATM    3  C7  UNL     1      52.759  12.244  -0.989  1.00  0.00     0.226 C
HETATM    4  O2  UNL     1      51.567  12.024  -1.229  1.00  0.00    -0.273 OA
ENDROOT
BRANCH   1   5
HETATM    5  C6  UNL     1      53.654  10.333  -2.341  1.00  0.00     0.122 C
BRANCH   5   6
HETATM    6  C5  UNL     1      54.793   9.358  -2.193  1.00  0.00     0.020 C
BRANCH   6   7
HETATM    7  C4  UNL     1      54.371   8.281  -1.222  1.00  0.00     0.003 C
BRANCH   7   8
HETATM    8  C3  UNL     1      54.936   8.480   0.149  1.00  0.00     0.020 C
BRANCH   8   9
HETATM    9  C2  UNL     1      54.065   9.346   1.036  1.00  0.00     0.122 C
BRANCH   9  10
HETATM   10  N1  UNL     1      54.891   9.943   2.070  1.00  0.00    -0.361 N
HETATM   11  C1  UNL     1      55.877  10.901   1.742  1.00  0.00     0.221 C
HETATM   12  O1  UNL     1      56.032  11.232   0.545  1.00  0.00    -0.273 OA
ATOM     13  H1  UNL     1      54.759   9.668   3.043  1.00  0.00     0.162 HD
BRANCH  11  14
HETATM   14  C18 UNL     1      56.729  11.524   2.762  1.00  0.00     0.078 C
HETATM   15  C19 UNL     1      56.283  11.266   4.201  1.00  0.00     0.014 C
HETATM   16  C20 UNL     1      57.748  11.097   4.549  1.00  0.00     0.002 C
HETATM   17  C21 UNL     1      57.993  10.742   3.097  1.00  0.00     0.014 C
ENDBRANCH  11  14
ENDBRANCH   9  10
ENDBRANCH   8   9
ENDBRANCH   7   8
ENDBRANCH   6   7
ENDBRANCH   5   6
ENDBRANCH   1   5
BRANCH   3  18
HETATM   18  C8  UNL     1      53.118  13.407  -0.109  1.00  0.00     0.042 C
HETATM   19  C9  UNL     1      53.118  12.999   1.348  1.00  0.00     0.024 C
HETATM   20  C10 UNL     1      53.488  14.212   2.157  1.00  0.00    -0.013 C
HETATM   21  C11 UNL     1      54.879  14.639   1.788  1.00  0.00     0.009 C
HETATM   22  C15 UNL     1      52.555  15.378   1.894  1.00  0.00     0.009 C
HETATM   23  C12 UNL     1      54.912  15.031   0.325  1.00  0.00    -0.013 C
HETATM   24  C13 UNL     1      53.965  16.144   0.018  1.00  0.00     0.009 C
HETATM   25  C17 UNL     1      54.547  13.793  -0.471  1.00  0.00     0.024 C
HETATM   26  C14 UNL     1      52.569  15.746   0.436  1.00  0.00    -0.013 C
HETATM   27  C16 UNL     1      52.162  14.530  -0.351  1.00  0.00     0.024 C
ENDBRANCH   3  18
TORSDOF 8
ENDMDL