MODEL 5
REMARK VINA RESULT: -7.043159697      2.404      5.576
REMARK  8 active torsions:
REMARK  status: ('A' for Active; 'I' for Inactive)
REMARK    1  A    between atoms: C1_2  and  C2_3
REMARK       I    between atoms: C1_2  and  N3_14
REMARK    2  A    between atoms: C2_3  and  C3_4
REMARK    3  A    between atoms: C3_4  and  C4_5
REMARK    4  A    between atoms: C4_5  and  N1_6
REMARK    5  A    between atoms: N3_14  and  C9_16
REMARK    6  A    between atoms: C9_16  and  C10_17
REMARK    7  A    between atoms: C10_17  and  C11_18
REMARK    8  A    between atoms: C11_18  and  C12_19
ROOT
HETATM    1  O1  UNL     1      52.655  14.433  -0.318  1.00  0.00    -0.274 OA
HETATM    2  C1  UNL     1      53.006  15.541   0.190  1.00  0.00     0.217 C
HETATM    3  N3  UNL     1      54.249  16.147  -0.127  1.00  0.00    -0.361 N
ATOM      4  H3  UNL     1      54.521  17.038   0.287  1.00  0.00     0.162 HD
ENDROOT
BRANCH   3   5
HETATM    5  C9  UNL     1      55.119  15.457  -1.060  1.00  0.00     0.122 C
BRANCH   5   6
HETATM    6  C10 UNL     1      56.264  14.847  -0.310  1.00  0.00     0.020 C
BRANCH   6   7
HETATM    7  C11 UNL     1      56.243  13.389  -0.271  1.00  0.00     0.011 C
BRANCH   7   8
HETATM    8  C12 UNL     1      55.664  12.633   0.854  1.00  0.00    -0.039 C
HETATM    9  C13 UNL     1      54.582  11.704   0.332  1.00  0.00     0.014 C
HETATM   10  C14 UNL     1      54.149  10.730   1.378  1.00  0.00    -0.013 C
HETATM   11  C15 UNL     1      53.677  11.491   2.578  1.00  0.00     0.009 C
HETATM   12  C19 UNL     1      55.317   9.820   1.705  1.00  0.00     0.009 C
HETATM   13  C16 UNL     1      54.802  12.305   3.125  1.00  0.00    -0.013 C
HETATM   14  C17 UNL     1      55.950  11.434   3.508  1.00  0.00     0.009 C
HETATM   15  C21 UNL     1      55.322  13.328   2.105  1.00  0.00     0.014 C
HETATM   16  C18 UNL     1      56.397  10.685   2.269  1.00  0.00    -0.013 C
HETATM   17  C20 UNL     1      56.847  11.671   1.263  1.00  0.00     0.014 C
ENDBRANCH   7   8
ENDBRANCH   6   7
ENDBRANCH   5   6
ENDBRANCH   3   5
BRANCH   2  18
HETATM   18  C2  UNL     1      52.112  16.250   1.147  1.00  0.00     0.104 C
BRANCH  18  19
HETATM   19  C3  UNL     1      51.897  15.369   2.334  1.00  0.00     0.029 C
BRANCH  19  20
HETATM   20  C4  UNL     1      50.410  15.024   2.386  1.00  0.00     0.121 C
BRANCH  20  21
HETATM   21  N1  UNL     1      50.267  13.711   1.786  1.00  0.00    -0.380 N
HETATM   22  C5  UNL     1      49.361  13.456   0.924  1.00  0.00     0.072 C
HETATM   23  C6  UNL     1      49.199  12.101   0.293  1.00  0.00     0.077 C
HETATM   24  N2  UNL     1      48.345  14.267   0.359  1.00  0.00    -0.380 N
HETATM   25  C7  UNL     1      48.359  12.339  -0.922  1.00  0.00     0.027 C
HETATM   26  C8  UNL     1      47.999  13.790  -0.969  1.00  0.00     0.121 C
ATOM     27  H2  UNL     1      47.917  15.071   0.818  1.00  0.00     0.160 HD
ATOM     28  H1  UNL     1      50.911  12.970   2.062  1.00  0.00     0.160 HD
ENDBRANCH  20  21
ENDBRANCH  19  20
ENDBRANCH  18  19
ENDBRANCH   2  18
TORSDOF 8
ENDMDL