MODEL 5
REMARK VINA RESULT: -8.307366175      2.543      2.932
REMARK  8 active torsions:
REMARK  status: ('A' for Active; 'I' for Inactive)
REMARK    1  A    between atoms: C7_7  and  N1_8
REMARK       I    between atoms: N1_8  and  C8_10
REMARK    2  A    between atoms: C8_10  and  C9_12
REMARK    3  A    between atoms: C15_18  and  C16_19
REMARK    4  A    between atoms: C16_19  and  C17_20
REMARK    5  A    between atoms: C17_20  and  C18_21
REMARK    6  A    between atoms: C18_21  and  C19_22
REMARK    7  A    between atoms: C19_22  and  C20_23
REMARK    8  A    between atoms: C20_23  and  C21_24
ROOT
HETATM    1  C1  UNL     1      56.954  11.655   1.150  1.00  0.00     0.011 C
HETATM    2  C2  UNL     1      55.952  10.698   1.843  1.00  0.00    -0.009 C
HETATM    3  C3  UNL     1      55.738  11.241   3.197  1.00  0.00    -0.010 C
HETATM    4  C4  UNL     1      55.307  12.709   2.999  1.00  0.00     0.011 C
HETATM    5  C5  UNL     1      53.925  12.150   2.835  1.00  0.00     0.009 C
HETATM    6  C6  UNL     1      54.371  11.046   3.791  1.00  0.00     0.011 C
HETATM    7  C7  UNL     1      53.646  11.511   1.509  1.00  0.00     0.093 C
HETATM    8  C15 UNL     1      54.705  10.632   0.961  1.00  0.00     0.013 C
ENDROOT
BRANCH   7   9
HETATM    9  N1  UNL     1      53.166  12.495   0.545  1.00  0.00    -0.355 N
HETATM   10  C8  UNL     1      51.850  12.728   0.164  1.00  0.00     0.222 C
HETATM   11  O1  UNL     1      50.921  12.057   0.689  1.00  0.00    -0.273 OA
ATOM     12  H1  UNL     1      53.875  13.077   0.100  1.00  0.00     0.162 HD
BRANCH  10  13
HETATM   13  C9  UNL     1      51.468  13.742  -0.860  1.00  0.00     0.078 C
HETATM   14  C10 UNL     1      51.637  15.150  -0.273  1.00  0.00     0.014 C
HETATM   15  C11 UNL     1      51.438  16.126  -1.406  1.00  0.00     0.001 C
HETATM   16  C12 UNL     1      50.020  16.035  -1.882  1.00  0.00     0.000 C
HETATM   17  C13 UNL     1      49.273  14.872  -1.283  1.00  0.00     0.001 C
HETATM   18  C14 UNL     1      50.070  13.587  -1.389  1.00  0.00     0.014 C
ENDBRANCH  10  13
ENDBRANCH   7   9
BRANCH   8  19
HETATM   19  C16 UNL     1      54.329   9.184   0.773  1.00  0.00     0.007 C
BRANCH  19  20
HETATM   20  C17 UNL     1      55.136   8.484  -0.302  1.00  0.00     0.000 C
BRANCH  20  21
HETATM   21  C18 UNL     1      54.234   7.538  -1.093  1.00  0.00     0.000 C
BRANCH  21  22
HETATM   22  C19 UNL     1      54.338   7.825  -2.580  1.00  0.00     0.009 C
BRANCH  22  23
HETATM   23  C20 UNL     1      54.785   9.199  -2.900  1.00  0.00     0.099 C
BRANCH  23  24
HETATM   24  C21 UNL     1      53.665  10.120  -3.144  1.00  0.00     0.231 C
HETATM   25  N2  UNL     1      53.086  10.158  -4.457  1.00  0.00    -0.062 NA
HETATM   26  O2  UNL     1      53.193  10.876  -2.267  1.00  0.00    -0.277 OA
ENDBRANCH  23  24
ENDBRANCH  22  23
ENDBRANCH  21  22
ENDBRANCH  20  21
ENDBRANCH  19  20
ENDBRANCH   8  19
TORSDOF 8
ENDMDL