MODEL 2
REMARK VINA RESULT: -7.490125977      5.212      7.688
REMARK  8 active torsions:
REMARK  status: ('A' for Active; 'I' for Inactive)
REMARK    1  A    between atoms: C2_2  and  C3_3
REMARK    2  A    between atoms: C3_3  and  C4_4
REMARK    3  A    between atoms: C4_4  and  C5_5
REMARK    4  A    between atoms: C5_5  and  C6_6
REMARK    5  A    between atoms: C6_6  and  C7_7
REMARK       I    between atoms: C7_7  and  N1_9
REMARK    6  A    between atoms: C10_12  and  C11_13
REMARK    7  A    between atoms: C11_13  and  N2_14
REMARK       I    between atoms: N2_14  and  C12_16
REMARK       I    between atoms: C12_16  and  N3_18
REMARK    8  A    between atoms: N3_18  and  C13_20
ROOT
HETATM    1  C7  UNL     1      54.495  11.080   1.969  1.00  0.00     0.219 C
HETATM    2  O1  UNL     1      54.442  10.918   3.210  1.00  0.00    -0.273 OA
HETATM    3  N1  UNL     1      53.876  12.199   1.393  1.00  0.00    -0.352 N
HETATM    4  C8  UNL     1      53.930  12.416  -0.039  1.00  0.00     0.126 C
HETATM    5  C9  UNL     1      52.519  12.667  -0.482  1.00  0.00     0.030 C
HETATM    6  C10 UNL     1      51.851  13.831   0.251  1.00  0.00     0.027 C
HETATM    7  C19 UNL     1      52.628  14.297   1.402  1.00  0.00     0.030 C
HETATM    8  C20 UNL     1      53.179  13.138   2.246  1.00  0.00     0.126 C
ENDROOT
BRANCH   6   9
HETATM    9  C11 UNL     1      51.449  14.827  -0.765  1.00  0.00     0.070 C
BRANCH   9  10
HETATM   10  N2  UNL     1      50.101  14.829  -1.178  1.00  0.00    -0.322 N
HETATM   11  C12 UNL     1      49.420  14.220  -2.222  1.00  0.00     0.320 C
HETATM   12  O2  UNL     1      49.917  13.449  -3.041  1.00  0.00    -0.247 OA
HETATM   13  N3  UNL     1      48.011  14.483  -2.401  1.00  0.00    -0.338 N
ATOM     14  H3  UNL     1      47.547  15.116  -1.749  1.00  0.00     0.164 HD
ATOM     15  H2  UNL     1      49.499  15.399  -0.584  1.00  0.00     0.169 HD
BRANCH  13  16
HETATM   16  C13 UNL     1      47.232  13.895  -3.457  1.00  0.00     0.086 C
HETATM   17  C14 UNL     1      47.394  14.731  -4.706  1.00  0.00     0.025 C
HETATM   18  C15 UNL     1      46.436  15.905  -4.737  1.00  0.00     0.002 C
HETATM   19  C16 UNL     1      44.994  15.464  -4.683  1.00  0.00     0.000 C
HETATM   20  C17 UNL     1      44.850  14.038  -4.212  1.00  0.00     0.002 C
HETATM   21  C18 UNL     1      45.792  13.715  -3.073  1.00  0.00     0.025 C
ENDBRANCH  13  16
ENDBRANCH   9  10
ENDBRANCH   6   9
BRANCH   1  22
HETATM   22  C6  UNL     1      55.197  10.111   1.119  1.00  0.00     0.103 C
BRANCH  22  23
HETATM   23  C5  UNL     1      54.486   8.839   0.835  1.00  0.00     0.010 C
BRANCH  23  24
HETATM   24  C4  UNL     1      54.820   8.200  -0.483  1.00  0.00     0.004 C
BRANCH  24  25
HETATM   25  C3  UNL     1      54.401   9.136  -1.628  1.00  0.00     0.026 C
BRANCH  25  26
HETATM   26  C2  UNL     1      54.429   8.340  -2.873  1.00  0.00    -0.037 C
HETATM   27  C1  UNL     1      54.500   7.027  -2.829  1.00  0.00     0.007 C
ENDBRANCH  25  26
ENDBRANCH  24  25
ENDBRANCH  23  24
ENDBRANCH  22  23
ENDBRANCH   1  22
TORSDOF 8
ENDMDL