MODEL 4
REMARK VINA RESULT: -6.551330525      1.757      4.731
REMARK  9 active torsions:
REMARK  status: ('A' for Active; 'I' for Inactive)
REMARK    1  A    between atoms: C3_3  and  C4_4
REMARK    2  A    between atoms: C4_4  and  C5_5
REMARK       I    between atoms: C5_5  and  N1_7
REMARK    3  A    between atoms: N1_7  and  C6_9
REMARK    4  A    between atoms: C6_9  and  C7_10
REMARK    5  A    between atoms: C7_10  and  C8_11
REMARK    6  A    between atoms: C8_11  and  C9_12
REMARK    7  A    between atoms: C9_12  and  C10_13
REMARK    8  A    between atoms: C10_13  and  N2_15
REMARK    9  A    between atoms: N2_15  and  C11_17
ROOT
HETATM    1  C10 UNL     1      55.174  13.725   0.133  1.00  0.00     0.074 C
HETATM    2  S1  UNL     1      55.795  15.155  -0.317  1.00  0.00    -0.066 SA
ENDROOT
BRANCH   1   3
HETATM    3  C9  UNL     1      56.043  12.770   0.922  1.00  0.00     0.073 C
BRANCH   3   4
HETATM    4  C8  UNL     1      55.897  13.118   2.396  1.00  0.00     0.035 C
BRANCH   4   5
HETATM    5  C7  UNL     1      55.553  11.991   3.265  1.00  0.00    -0.009 C
BRANCH   5   6
HETATM    6  C6  UNL     1      54.413  11.103   2.999  1.00  0.00     0.087 C
BRANCH   6   7
HETATM    7  N1  UNL     1      54.558   9.931   2.230  1.00  0.00    -0.337 N
HETATM    8  C5  UNL     1      54.180   9.620   0.931  1.00  0.00     0.224 C
HETATM    9  O1  UNL     1      53.590  10.341   0.112  1.00  0.00    -0.273 OA
ATOM     10  H1  UNL     1      55.029   9.170   2.719  1.00  0.00     0.168 HD
BRANCH   8  11
HETATM   11  C4  UNL     1      54.514   8.231   0.407  1.00  0.00     0.130 C
BRANCH  11  12
HETATM   12  C3  UNL     1      54.742   8.323  -1.049  1.00  0.00    -0.022 C
HETATM   13  C2  UNL     1      54.359   7.328  -1.820  1.00  0.00    -0.034 C
HETATM   14  C1  UNL     1      54.565   7.365  -3.306  1.00  0.00     0.036 C
ENDBRANCH  11  12
ENDBRANCH   8  11
ENDBRANCH   6   7
ENDBRANCH   5   6
ENDBRANCH   4   5
ENDBRANCH   3   4
ENDBRANCH   1   3
BRANCH   1  15
HETATM   15  N2  UNL     1      53.849  13.390  -0.210  1.00  0.00    -0.375 N
ATOM     16  H2  UNL     1      53.750  12.633  -0.886  1.00  0.00     0.161 HD
BRANCH  15  17
HETATM   17  C11 UNL     1      52.630  13.955   0.252  1.00  0.00     0.032 C
HETATM   18  C12 UNL     1      52.655  14.197   1.738  1.00  0.00     0.035 C
HETATM   19  C13 UNL     1      51.415  14.962   2.154  1.00  0.00    -0.012 C
HETATM   20  C14 UNL     1      50.217  14.099   1.859  1.00  0.00     0.009 C
HETATM   21  C18 UNL     1      51.291  16.288   1.470  1.00  0.00     0.009 C
HETATM   22  C15 UNL     1      50.154  13.895   0.364  1.00  0.00    -0.012 C
HETATM   23  C16 UNL     1      50.035  15.198  -0.365  1.00  0.00     0.009 C
HETATM   24  C20 UNL     1      51.393  13.156  -0.099  1.00  0.00     0.035 C
HETATM   25  C17 UNL     1      51.269  16.041  -0.021  1.00  0.00    -0.012 C
HETATM   26  C19 UNL     1      52.468  15.298  -0.493  1.00  0.00     0.035 C
ENDBRANCH  15  17
ENDBRANCH   1  15
TORSDOF 9
ENDMDL