MODEL 4
REMARK VINA RESULT: -7.583504438      2.599      4.953
REMARK  8 active torsions:
REMARK  status: ('A' for Active; 'I' for Inactive)
REMARK    1  A    between atoms: C2_2  and  C3_3
REMARK    2  A    between atoms: C3_3  and  C4_4
REMARK       I    between atoms: C4_4  and  N1_6
REMARK    3  A    between atoms: C8_10  and  C9_11
REMARK    4  A    between atoms: C9_11  and  C10_12
REMARK    5  A    between atoms: C10_12  and  C11_13
REMARK    6  A    between atoms: C11_13  and  C12_14
REMARK    7  A    between atoms: C12_14  and  N2_15
REMARK       I    between atoms: N2_15  and  C13_17
REMARK       I    between atoms: C13_17  and  N3_19
REMARK    8  A    between atoms: N3_19  and  C14_21
ROOT
HETATM    1  C11 UNL     1      50.328  12.914  -0.749  1.00  0.00     0.020 C
ENDROOT
BRANCH   1   2
HETATM    2  C10 UNL     1      50.007  14.347  -1.133  1.00  0.00     0.002 C
BRANCH   2   3
HETATM    3  C9  UNL     1      50.524  15.258  -0.077  1.00  0.00     0.006 C
BRANCH   3   4
HETATM    4  C8  UNL     1      51.752  16.030  -0.442  1.00  0.00     0.004 C
HETATM    5  C7  UNL     1      51.595  16.712  -1.768  1.00  0.00     0.008 C
HETATM    6  C6  UNL     1      52.934  17.293  -2.218  1.00  0.00     0.020 C
HETATM    7  C5  UNL     1      53.812  17.435  -1.017  1.00  0.00     0.126 C
HETATM    8  N1  UNL     1      54.114  16.137  -0.434  1.00  0.00    -0.352 N
HETATM    9  C4  UNL     1      55.361  15.838   0.150  1.00  0.00     0.223 C
HETATM   10  C20 UNL     1      53.005  15.171  -0.506  1.00  0.00     0.130 C
HETATM   11  O1  UNL     1      56.234  16.747   0.155  1.00  0.00    -0.273 OA
BRANCH   9  12
HETATM   12  C3  UNL     1      55.697  14.539   0.746  1.00  0.00     0.129 C
BRANCH  12  13
HETATM   13  C2  UNL     1      56.265  13.617  -0.255  1.00  0.00    -0.028 C
HETATM   14  C1  UNL     1      55.559  12.624  -0.810  1.00  0.00     0.007 C
ENDBRANCH  12  13
ENDBRANCH   9  12
ENDBRANCH   3   4
ENDBRANCH   2   3
ENDBRANCH   1   2
BRANCH   1  15
HETATM   15  C12 UNL     1      50.543  12.706   0.710  1.00  0.00     0.124 C
BRANCH  15  16
HETATM   16  N2  UNL     1      51.567  11.737   0.933  1.00  0.00    -0.343 N
HETATM   17  C13 UNL     1      52.727  12.041   1.691  1.00  0.00     0.316 C
HETATM   18  O2  UNL     1      52.951  13.163   2.205  1.00  0.00    -0.247 OA
HETATM   19  N3  UNL     1      53.732  11.029   1.906  1.00  0.00    -0.339 N
ATOM     20  H3  UNL     1      53.610  10.096   1.514  1.00  0.00     0.164 HD
ATOM     21  H2  UNL     1      51.462  10.803   0.538  1.00  0.00     0.164 HD
BRANCH  19  22
HETATM   22  C14 UNL     1      54.896  11.339   2.666  1.00  0.00     0.086 C
HETATM   23  C15 UNL     1      56.127  10.591   2.191  1.00  0.00     0.025 C
HETATM   24  C16 UNL     1      57.315  11.179   2.924  1.00  0.00     0.002 C
HETATM   25  C17 UNL     1      57.141  11.144   4.420  1.00  0.00     0.000 C
HETATM   26  C18 UNL     1      55.832  11.731   4.877  1.00  0.00     0.002 C
HETATM   27  C19 UNL     1      54.729  10.965   4.146  1.00  0.00     0.025 C
ENDBRANCH  19  22
ENDBRANCH  15  16
ENDBRANCH   1  15
TORSDOF 8
ENDMDL