MODEL 5
REMARK VINA RESULT: -6.748672831      1.944      2.352
REMARK  10 active torsions:
REMARK  status: ('A' for Active; 'I' for Inactive)
REMARK    1  A    between atoms: C1_2  and  C2_3
REMARK       I    between atoms: C1_2  and  N3_19
REMARK    2  A    between atoms: C2_3  and  C3_4
REMARK    3  A    between atoms: C3_4  and  C4_5
REMARK    4  A    between atoms: C4_5  and  C5_6
REMARK    5  A    between atoms: C5_6  and  C6_7
REMARK    6  A    between atoms: C6_7  and  C7_8
REMARK    7  A    between atoms: C7_8  and  N1_9
REMARK    8  A    between atoms: N1_9  and  C8_11
REMARK    9  A    between atoms: C8_11  and  N2_13
REMARK   10  A    between atoms: N3_19  and  C14_21
ROOT
HETATM    1  C5  UNL     1      56.191  12.345   2.877  1.00  0.00     0.002 C
ENDROOT
BRANCH   1   2
HETATM    2  C4  UNL     1      56.496  12.710   1.451  1.00  0.00     0.001 C
BRANCH   2   3
HETATM    3  C3  UNL     1      55.705  13.904   0.993  1.00  0.00     0.009 C
BRANCH   3   4
HETATM    4  C2  UNL     1      56.285  14.489  -0.253  1.00  0.00     0.103 C
BRANCH   4   5
HETATM    5  C1  UNL     1      55.752  15.834  -0.527  1.00  0.00     0.217 C
HETATM    6  O1  UNL     1      56.144  16.801   0.167  1.00  0.00    -0.274 OA
HETATM    7  N3  UNL     1      54.794  16.056  -1.575  1.00  0.00    -0.356 N
ATOM      8  H3  UNL     1      54.489  15.256  -2.130  1.00  0.00     0.162 HD
BRANCH   7   9
HETATM    9  C14 UNL     1      54.245  17.343  -1.880  1.00  0.00     0.084 C
HETATM   10  C15 UNL     1      52.751  17.404  -1.679  1.00  0.00     0.025 C
HETATM   11  C16 UNL     1      52.208  17.259  -3.102  1.00  0.00     0.002 C
HETATM   12  C17 UNL     1      53.207  18.119  -3.854  1.00  0.00     0.002 C
HETATM   13  C18 UNL     1      54.522  17.644  -3.322  1.00  0.00     0.025 C
ENDBRANCH   7   9
ENDBRANCH   4   5
ENDBRANCH   3   4
ENDBRANCH   2   3
ENDBRANCH   1   2
BRANCH   1  14
HETATM   14  C6  UNL     1      54.711  12.431   3.132  1.00  0.00     0.020 C
BRANCH  14  15
HETATM   15  C7  UNL     1      54.124  11.081   3.327  1.00  0.00     0.122 C
BRANCH  15  16
HETATM   16  N1  UNL     1      53.036  10.881   2.353  1.00  0.00    -0.367 N
ATOM     17  H1  UNL     1      52.117  10.606   2.701  1.00  0.00     0.161 HD
BRANCH  16  18
HETATM   18  C8  UNL     1      53.204  11.051   0.970  1.00  0.00     0.169 C
HETATM   19  S1  UNL     1      52.225  12.140   0.202  1.00  0.00    -0.041 SA
BRANCH  18  20
HETATM   20  N2  UNL     1      54.156  10.378   0.226  1.00  0.00    -0.358 N
HETATM   21  C9  UNL     1      54.847   9.213   0.792  1.00  0.00     0.125 C
HETATM   22  C10 UNL     1      54.401   8.035  -0.046  1.00  0.00     0.020 C
HETATM   23  C11 UNL     1      54.652   8.257  -1.511  1.00  0.00     0.003 C
HETATM   24  C12 UNL     1      54.193   9.577  -2.030  1.00  0.00     0.020 C
HETATM   25  C13 UNL     1      54.544  10.731  -1.106  1.00  0.00     0.125 C
ENDBRANCH  18  20
ENDBRANCH  16  18
ENDBRANCH  15  16
ENDBRANCH  14  15
ENDBRANCH   1  14
TORSDOF 10
ENDMDL