MODEL 1
REMARK VINA RESULT: -7.170862603      0.000      0.000
REMARK  10 active torsions:
REMARK  status: ('A' for Active; 'I' for Inactive)
REMARK    1  A    between atoms: N1_2  and  C2_3
REMARK    2  A    between atoms: N1_2  and  C15_22
REMARK    3  A    between atoms: C2_3  and  N2_5
REMARK    4  A    between atoms: N2_5  and  C3_7
REMARK    5  A    between atoms: C3_7  and  C4_8
REMARK    6  A    between atoms: C4_8  and  C5_9
REMARK    7  A    between atoms: C5_9  and  C6_10
REMARK    8  A    between atoms: C6_10  and  C7_11
REMARK    9  A    between atoms: C7_11  and  N3_12
REMARK       I    between atoms: N3_12  and  C8_14
REMARK   10  A    between atoms: C8_14  and  C9_16
ROOT
HETATM    1  C4  UNL     1      54.497  10.554  -1.702  1.00  0.00     0.020 C
ENDROOT
BRANCH   1   2
HETATM    2  C3  UNL     1      53.220  11.266  -2.044  1.00  0.00     0.122 C
BRANCH   2   3
HETATM    3  N2  UNL     1      52.489  11.591  -0.865  1.00  0.00    -0.367 N
ATOM      4  H2  UNL     1      52.212  10.791  -0.297  1.00  0.00     0.161 HD
BRANCH   3   5
HETATM    5  C2  UNL     1      52.092  12.839  -0.364  1.00  0.00     0.169 C
HETATM    6  S1  UNL     1      50.431  13.121  -0.510  1.00  0.00    -0.041 SA
BRANCH   5   7
HETATM    7  N1  UNL     1      52.842  13.851   0.219  1.00  0.00    -0.358 N
HETATM    8  C1  UNL     1      52.364  14.403   1.512  1.00  0.00     0.152 C
BRANCH   7   9
HETATM    9  C15 UNL     1      54.034  14.414  -0.269  1.00  0.00     0.086 C
HETATM   10  C16 UNL     1      55.274  13.645   0.249  1.00  0.00     0.025 C
HETATM   11  C17 UNL     1      56.368  14.618  -0.176  1.00  0.00     0.002 C
HETATM   12  C18 UNL     1      55.737  15.996  -0.159  1.00  0.00     0.002 C
HETATM   13  C19 UNL     1      54.348  15.763   0.455  1.00  0.00     0.025 C
ENDBRANCH   7   9
ENDBRANCH   5   7
ENDBRANCH   3   5
ENDBRANCH   2   3
ENDBRANCH   1   2
BRANCH   1  14
HETATM   14  C5  UNL     1      54.331   9.051  -1.939  1.00  0.00     0.007 C
BRANCH  14  15
HETATM   15  C6  UNL     1      54.861   8.202  -0.871  1.00  0.00     0.044 C
BRANCH  15  16
HETATM   16  C7  UNL     1      54.297   8.348   0.479  1.00  0.00     0.064 C
BRANCH  16  17
HETATM   17  N3  UNL     1      54.934   9.220   1.376  1.00  0.00    -0.340 N
HETATM   18  C8  UNL     1      54.487  10.373   2.002  1.00  0.00     0.225 C
HETATM   19  O1  UNL     1      53.341  10.857   1.887  1.00  0.00    -0.273 OA
ATOM     20  H3  UNL     1      55.892   8.959   1.607  1.00  0.00     0.167 HD
BRANCH  18  21
HETATM   21  C9  UNL     1      55.463  11.111   2.901  1.00  0.00     0.078 C
HETATM   22  C10 UNL     1      55.238  10.680   4.348  1.00  0.00     0.014 C
HETATM   23  C11 UNL     1      55.877  11.777   5.208  1.00  0.00     0.001 C
HETATM   24  C12 UNL     1      57.166  12.220   4.567  1.00  0.00     0.000 C
HETATM   25  C13 UNL     1      57.784  11.136   3.711  1.00  0.00     0.001 C
HETATM   26  C14 UNL     1      56.887  10.727   2.566  1.00  0.00     0.014 C
ENDBRANCH  18  21
ENDBRANCH  16  17
ENDBRANCH  15  16
ENDBRANCH  14  15
ENDBRANCH   1  14
TORSDOF 10
ENDMDL