MODEL 3
REMARK VINA RESULT: -6.552096581      2.529      4.498
REMARK  10 active torsions:
REMARK  status: ('A' for Active; 'I' for Inactive)
REMARK       I    between atoms: N1_2  and  C2_3
REMARK    1  A    between atoms: N1_2  and  C14_21
REMARK    2  A    between atoms: C2_3  and  C3_5
REMARK    3  A    between atoms: C3_5  and  C4_6
REMARK    4  A    between atoms: C4_6  and  C5_7
REMARK    5  A    between atoms: C5_7  and  C6_8
REMARK    6  A    between atoms: C6_8  and  C7_9
REMARK    7  A    between atoms: C7_9  and  N2_10
REMARK    8  A    between atoms: N2_10  and  C8_12
REMARK    9  A    between atoms: C8_12  and  N3_14
REMARK   10  A    between atoms: N3_14  and  C9_16
ROOT
HETATM    1  C6  UNL     1      54.531  16.597   1.188  1.00  0.00     0.020 C
ENDROOT
BRANCH   1   2
HETATM    2  C5  UNL     1      55.191  16.435  -0.160  1.00  0.00     0.002 C
BRANCH   2   3
HETATM    3  C4  UNL     1      55.826  15.107  -0.357  1.00  0.00     0.009 C
BRANCH   3   4
HETATM    4  C3  UNL     1      54.965  14.028  -0.890  1.00  0.00     0.103 C
BRANCH   4   5
HETATM    5  C2  UNL     1      55.467  12.661  -0.785  1.00  0.00     0.219 C
HETATM    6  N1  UNL     1      54.593  11.549  -0.928  1.00  0.00    -0.352 N
HETATM    7  C1  UNL     1      53.195  11.827  -1.181  1.00  0.00     0.153 C
HETATM    8  O1  UNL     1      56.712  12.495  -0.561  1.00  0.00    -0.273 OA
BRANCH   6   9
HETATM    9  C14 UNL     1      55.073  10.185  -0.826  1.00  0.00     0.086 C
HETATM   10  C15 UNL     1      54.988   9.615   0.549  1.00  0.00     0.025 C
HETATM   11  C16 UNL     1      54.413   8.226   0.359  1.00  0.00     0.002 C
HETATM   12  C17 UNL     1      54.688   7.889  -1.111  1.00  0.00     0.002 C
HETATM   13  C18 UNL     1      54.362   9.239  -1.762  1.00  0.00     0.025 C
ENDBRANCH   6   9
ENDBRANCH   4   5
ENDBRANCH   3   4
ENDBRANCH   2   3
ENDBRANCH   1   2
BRANCH   1  14
HETATM   14  C7  UNL     1      53.136  16.087   1.228  1.00  0.00     0.122 C
BRANCH  14  15
HETATM   15  N2  UNL     1      52.860  15.098   2.232  1.00  0.00    -0.367 N
ATOM     16  H2  UNL     1      52.945  15.377   3.210  1.00  0.00     0.161 HD
BRANCH  15  17
HETATM   17  C8  UNL     1      52.478  13.757   1.958  1.00  0.00     0.167 C
HETATM   18  S1  UNL     1      51.009  13.460   1.326  1.00  0.00    -0.041 SA
BRANCH  17  19
HETATM   19  N3  UNL     1      53.331  12.670   2.242  1.00  0.00    -0.363 N
ATOM     20  H3  UNL     1      53.220  11.826   1.681  1.00  0.00     0.162 HD
BRANCH  19  21
HETATM   21  C9  UNL     1      54.350  12.661   3.267  1.00  0.00     0.083 C
HETATM   22  C10 UNL     1      54.350  11.321   3.936  1.00  0.00     0.025 C
HETATM   23  C11 UNL     1      55.756  11.104   4.394  1.00  0.00     0.002 C
HETATM   24  C12 UNL     1      56.537  11.604   3.171  1.00  0.00     0.002 C
HETATM   25  C13 UNL     1      55.724  12.806   2.700  1.00  0.00     0.025 C
ENDBRANCH  19  21
ENDBRANCH  17  19
ENDBRANCH  15  17
ENDBRANCH  14  15
ENDBRANCH   1  14
TORSDOF 10
ENDMDL