MODEL 1
REMARK VINA RESULT: -6.299182357      0.000      0.000
REMARK  10 active torsions:
REMARK  status: ('A' for Active; 'I' for Inactive)
REMARK    1  A    between atoms: C3_3  and  C4_4
REMARK    2  A    between atoms: C4_4  and  C5_5
REMARK    3  A    between atoms: C5_5  and  C6_6
REMARK    4  A    between atoms: C6_6  and  C7_7
REMARK    5  A    between atoms: C7_7  and  C8_8
REMARK       I    between atoms: C8_8  and  N1_10
REMARK    6  A    between atoms: N1_10  and  C9_12
REMARK    7  A    between atoms: N2_15  and  C12_16
REMARK    8  A    between atoms: C12_16  and  O2_17
REMARK    9  A    between atoms: C12_16  and  N3_19
REMARK   10  A    between atoms: N3_19  and  C13_20
ROOT
HETATM    1  C1  UNL     1      56.628  12.920   0.010  1.00  0.00     0.012 C
HETATM    2  C2  UNL     1      56.508  12.353   1.043  1.00  0.00    -0.117 C
HETATM    3  C3  UNL     1      56.354  11.653   2.305  1.00  0.00     0.093 C
ENDROOT
BRANCH   3   4
HETATM    4  C4  UNL     1      55.375  10.482   2.232  1.00  0.00     0.012 C
BRANCH   4   5
HETATM    5  C5  UNL     1      55.736   9.529   1.142  1.00  0.00     0.001 C
BRANCH   5   6
HETATM    6  C6  UNL     1      54.596   8.681   0.639  1.00  0.00     0.009 C
BRANCH   6   7
HETATM    7  C7  UNL     1      54.227   9.086  -0.754  1.00  0.00     0.103 C
BRANCH   7   8
HETATM    8  C8  UNL     1      53.792  10.445  -0.951  1.00  0.00     0.217 C
HETATM    9  O1  UNL     1      54.321  11.168  -1.876  1.00  0.00    -0.274 OA
HETATM   10  N1  UNL     1      52.793  11.064  -0.196  1.00  0.00    -0.356 N
ATOM     11  H1  UNL     1      52.337  10.506   0.526  1.00  0.00     0.162 HD
BRANCH  10  12
HETATM   12  C9  UNL     1      52.365  12.404  -0.354  1.00  0.00     0.087 C
HETATM   13  C10 UNL     1      52.894  13.299   0.713  1.00  0.00     0.045 C
HETATM   14  C11 UNL     1      52.476  14.719   0.481  1.00  0.00     0.129 C
HETATM   15  N2  UNL     1      51.510  14.892  -0.563  1.00  0.00    -0.336 N
HETATM   16  C19 UNL     1      50.632  13.876  -1.105  1.00  0.00     0.129 C
HETATM   17  C20 UNL     1      50.836  12.567  -0.327  1.00  0.00     0.045 C
BRANCH  15  18
HETATM   18  C12 UNL     1      51.368  16.240  -1.039  1.00  0.00     0.291 C
BRANCH  18  19
HETATM   19  O2  UNL     1      50.124  16.525  -1.310  1.00  0.00    -0.322 OA
ATOM     20  H2  UNL     1      49.564  15.761  -1.230  1.00  0.00     0.222 HD
ENDBRANCH  18  19
BRANCH  18  21
HETATM   21  N3  UNL     1      52.426  17.098  -1.172  1.00  0.00    -0.404 NA
BRANCH  21  22
HETATM   22  C13 UNL     1      53.443  17.953  -1.243  1.00  0.00     0.167 C
HETATM   23  C14 UNL     1      54.579  17.481  -2.167  1.00  0.00     0.039 C
HETATM   24  C15 UNL     1      55.034  16.177  -1.508  1.00  0.00     0.003 C
HETATM   25  C16 UNL     1      55.807  16.514  -0.259  1.00  0.00     0.000 C
HETATM   26  C17 UNL     1      55.066  17.430   0.645  1.00  0.00     0.003 C
HETATM   27  C18 UNL     1      54.156  18.400   0.034  1.00  0.00     0.039 C
ENDBRANCH  21  22
ENDBRANCH  18  21
ENDBRANCH  15  18
ENDBRANCH  10  12
ENDBRANCH   7   8
ENDBRANCH   6   7
ENDBRANCH   5   6
ENDBRANCH   4   5
ENDBRANCH   3   4
TORSDOF 10
ENDMDL