MODEL 4
REMARK VINA RESULT: -7.673331484      4.164      8.742
REMARK  6 active torsions:
REMARK  status: ('A' for Active; 'I' for Inactive)
REMARK    1  A    between atoms: C2_2  and  C3_3
REMARK    2  A    between atoms: C7_10  and  C8_11
REMARK    3  A    between atoms: C14_23  and  C15_24
REMARK    4  A    between atoms: C15_24  and  C16_25
REMARK    5  A    between atoms: C23_35  and  C24_36
REMARK    6  A    between atoms: C24_36  and  C25_37
ROOT
HETATM    1  C3  UNL     1      20.048  18.145  57.736  1.00  0.00     0.131 C
HETATM    2  C4  UNL     1      21.347  18.431  58.499  1.00  0.00     0.034 C
HETATM    3  C5  UNL     1      21.116  18.884  59.902  1.00  0.00     0.030 C
HETATM    4  C6  UNL     1      20.351  20.161  60.036  1.00  0.00     0.233 C
HETATM    5  N1  UNL     1      21.208  21.337  59.970  1.00  0.00    -0.069 N
ATOM      6  H11 UNL     1      22.032  21.195  59.387  1.00  0.00     0.277 HD
ATOM      7  H12 UNL     1      21.695  21.523  60.847  1.00  0.00     0.277 HD
HETATM    8  C7  UNL     1      20.393  22.446  59.533  1.00  0.00     0.214 C
HETATM    9  C11 UNL     1      20.202  22.459  58.040  1.00  0.00     0.265 C
HETATM   10  N2  UNL     1      18.917  23.034  57.696  1.00  0.00    -0.072 N
ATOM     11  H21 UNL     1      19.011  23.874  57.125  1.00  0.00     0.277 HD
ATOM     12  H22 UNL     1      18.455  23.455  58.502  1.00  0.00     0.277 HD
HETATM   13  C12 UNL     1      18.091  22.027  57.056  1.00  0.00     0.259 C
HETATM   14  C13 UNL     1      18.677  21.706  55.692  1.00  0.00     0.260 C
HETATM   15  N3  UNL     1      18.201  20.421  55.214  1.00  0.00    -0.061 N
ATOM     16  H31 UNL     1      17.330  20.143  55.665  1.00  0.00     0.278 HD
ATOM     17  H32 UNL     1      18.787  19.651  55.537  1.00  0.00     0.278 HD
HETATM   18  C14 UNL     1      18.082  20.448  53.759  1.00  0.00     0.277 C
HETATM   19  C22 UNL     1      17.685  19.107  53.270  1.00  0.00     0.249 C
HETATM   20  O1  UNL     1      16.792  19.116  52.360  1.00  0.00    -0.271 OA
HETATM   21  N4  UNL     1      18.181  17.858  53.697  1.00  0.00    -0.345 N
ATOM     22  H4  UNL     1      18.419  17.201  52.954  1.00  0.00     0.163 HD
HETATM   23  C23 UNL     1      18.395  17.387  55.033  1.00  0.00     0.184 C
HETATM   24  C28 UNL     1      19.869  17.429  55.352  1.00  0.00     0.282 C
HETATM   25  O2  UNL     1      20.640  17.438  54.358  1.00  0.00    -0.263 OA
HETATM   26  O3  UNL     1      20.412  17.456  56.588  1.00  0.00    -0.314 OA
ENDROOT
BRANCH  18  27
HETATM   27  C15 UNL     1      19.400  20.813  53.140  1.00  0.00     0.047 C
BRANCH  27  28
HETATM   28  C16 UNL     1      19.374  21.847  52.082  1.00  0.00    -0.012 C
HETATM   29  C17 UNL     1      18.029  22.454  51.794  1.00  0.00     0.005 C
HETATM   30  C18 UNL     1      18.138  23.397  50.631  1.00  0.00     0.000 C
HETATM   31  C19 UNL     1      19.410  24.176  50.593  1.00  0.00     0.000 C
HETATM   32  C20 UNL     1      19.960  24.282  51.985  1.00  0.00     0.000 C
HETATM   33  C21 UNL     1      20.405  22.908  52.424  1.00  0.00     0.005 C
ENDBRANCH  27  28
ENDBRANCH  18  27
BRANCH  23  34
HETATM   34  C24 UNL     1      18.012  15.939  55.168  1.00  0.00     0.039 C
BRANCH  34  35
HETATM   35  C25 UNL     1      16.602  15.613  55.441  1.00  0.00    -0.020 C
HETATM   36  C26 UNL     1      16.585  14.621  56.640  1.00  0.00     0.009 C
HETATM   37  C27 UNL     1      15.835  14.902  54.362  1.00  0.00     0.009 C
ENDBRANCH  34  35
ENDBRANCH  23  34
BRANCH   8  38
HETATM   38  C8  UNL     1      20.917  23.778  59.990  1.00  0.00     0.010 C
HETATM   39  C9  UNL     1      19.960  24.418  60.985  1.00  0.00     0.011 C
HETATM   40  C10 UNL     1      22.279  23.688  60.610  1.00  0.00     0.011 C
ENDBRANCH   8  38
BRANCH   1  41
HETATM   41  C2  UNL     1      19.146  17.318  58.631  1.00  0.00     0.028 C
HETATM   42  C1  UNL     1      17.710  17.717  58.530  1.00  0.00     0.007 C
ENDBRANCH   1  41
TORSDOF 6
ENDMDL