MODEL 3
REMARK VINA RESULT: -7.396838725      3.095      7.279
REMARK  8 active torsions:
REMARK  status: ('A' for Active; 'I' for Inactive)
REMARK    1  A    between atoms: C2_2  and  C3_3
REMARK    2  A    between atoms: C3_3  and  C4_4
REMARK    3  A    between atoms: C4_4  and  N1_5
REMARK       I    between atoms: N1_5  and  C5_7
REMARK    4  A    between atoms: C5_7  and  C6_9
REMARK    5  A    between atoms: C7_10  and  C8_11
REMARK    6  A    between atoms: C9_12  and  O2_13
REMARK    7  A    between atoms: C11_16  and  O3_17
REMARK    8  A    between atoms: C12_19  and  O4_20
ROOT
HETATM    1  C8  UNL     1      20.299  18.443  59.065  1.00  0.00    -0.016 C
HETATM    2  C9  UNL     1      20.192  19.683  58.314  1.00  0.00     0.053 C
HETATM    3  C10 UNL     1      20.140  19.640  56.817  1.00  0.00     0.099 C
HETATM    4  C11 UNL     1      20.031  18.296  56.234  1.00  0.00     0.159 C
HETATM    5  C12 UNL     1      19.325  17.255  57.133  1.00  0.00     0.097 C
HETATM    6  C13 UNL     1      18.893  16.232  56.244  1.00  0.00     0.049 C
HETATM    7  C14 UNL     1      19.229  14.749  56.332  1.00  0.00     0.028 C
HETATM    8  C15 UNL     1      18.041  13.826  56.333  1.00  0.00    -0.012 C
HETATM    9  C16 UNL     1      17.211  14.041  55.079  1.00  0.00     0.010 C
HETATM   10  C17 UNL     1      17.153  13.794  57.495  1.00  0.00     0.005 C
HETATM   11  C18 UNL     1      17.857  14.114  58.844  1.00  0.00     0.009 C
HETATM   12  C19 UNL     1      18.833  15.130  58.488  1.00  0.00     0.031 C
HETATM   13  C20 UNL     1      19.893  14.627  57.601  1.00  0.00     0.082 C
HETATM   14  O5  UNL     1      20.122  13.357  58.241  1.00  0.00    -0.309 OA
HETATM   15  C21 UNL     1      20.518  13.675  59.558  1.00  0.00     0.260 C
HETATM   16  O6  UNL     1      20.896  12.736  60.317  1.00  0.00    -0.265 OA
HETATM   17  C22 UNL     1      20.493  15.113  60.067  1.00  0.00     0.122 C
HETATM   18  C23 UNL     1      19.596  16.026  59.372  1.00  0.00    -0.014 C
HETATM   19  C24 UNL     1      18.550  16.607  60.337  1.00  0.00     0.017 C
HETATM   20  C25 UNL     1      20.116  17.091  58.395  1.00  0.00     0.031 C
HETATM   21  C26 UNL     1      21.473  16.589  57.992  1.00  0.00     0.025 C
HETATM   22  C27 UNL     1      21.253  15.188  57.508  1.00  0.00     0.019 C
HETATM   23  C28 UNL     1      21.874  15.054  56.122  1.00  0.00     0.013 C
ENDROOT
BRANCH   1  24
HETATM   24  C7  UNL     1      21.261  18.494  60.194  1.00  0.00     0.016 C
HETATM   25  C6  UNL     1      20.905  18.755  61.565  1.00  0.00     0.074 C
BRANCH  25  26
HETATM   26  C5  UNL     1      20.428  19.943  62.194  1.00  0.00     0.241 C
HETATM   27  N1  UNL     1      20.557  21.245  61.549  1.00  0.00    -0.358 N
ATOM     28  H1  UNL     1      20.991  21.333  60.630  1.00  0.00     0.162 HD
HETATM   29  O1  UNL     1      19.872  19.963  63.320  1.00  0.00    -0.269 OA
BRANCH  27  30
HETATM   30  C4  UNL     1      20.060  22.389  62.234  1.00  0.00     0.123 C
BRANCH  30  31
HETATM   31  C3  UNL     1      21.151  23.450  62.220  1.00  0.00     0.019 C
BRANCH  31  32
HETATM   32  C2  UNL     1      22.175  23.138  61.157  1.00  0.00    -0.003 C
HETATM   33  C1  UNL     1      23.574  23.279  61.703  1.00  0.00     0.005 C
ENDBRANCH  31  32
ENDBRANCH  30  31
ENDBRANCH  27  30
ENDBRANCH  25  26
ENDBRANCH   1  24
BRANCH   2  34
HETATM   34  O2  UNL     1      19.224  20.604  58.829  1.00  0.00    -0.364 OA
ATOM     35  H2  UNL     1      18.385  20.581  58.383  1.00  0.00     0.217 HD
ENDBRANCH   2  34
BRANCH   5  36
HETATM   36  O4  UNL     1      18.208  18.118  57.425  1.00  0.00    -0.386 OA
ATOM     37  H4  UNL     1      18.052  17.735  58.280  1.00  0.00     0.210 HD
ENDBRANCH   5  36
BRANCH   4  38
HETATM   38  O3  UNL     1      19.048  18.469  55.188  1.00  0.00    -0.392 OA
ATOM     39  H3  UNL     1      19.570  18.445  54.394  1.00  0.00     0.210 HD
ENDBRANCH   4  38
TORSDOF 8
ENDMDL