MODEL 5
REMARK VINA RESULT: -8.200222096      1.301      1.598
REMARK  10 active torsions:
REMARK  status: ('A' for Active; 'I' for Inactive)
REMARK    1  A    between atoms: C2_2  and  C3_3
REMARK    2  A    between atoms: C2_2  and  O3_29
REMARK    3  A    between atoms: C3_3  and  C4_4
REMARK    4  A    between atoms: C4_4  and  C5_5
REMARK    5  A    between atoms: C5_5  and  C7_7
REMARK    6  A    between atoms: C11_11  and  O1_12
REMARK    7  A    between atoms: C12_14  and  C13_15
REMARK    8  A    between atoms: O3_29  and  C26_30
REMARK    9  A    between atoms: C28_33  and  O5_34
REMARK   10  A    between atoms: C29_36  and  O6_37
ROOT
HETATM    1  C7  UNL     1      21.045  22.015  57.283  1.00  0.00    -0.002 C
HETATM    2  C8  UNL     1      20.337  22.944  58.196  1.00  0.00     0.006 C
HETATM    3  C9  UNL     1      20.302  22.032  59.448  1.00  0.00     0.008 C
HETATM    4  C10 UNL     1      19.967  20.654  58.856  1.00  0.00     0.023 C
HETATM    5  C11 UNL     1      20.958  19.680  59.452  1.00  0.00     0.128 C
HETATM    6  C12 UNL     1      20.795  18.288  59.003  1.00  0.00     0.023 C
HETATM    7  C22 UNL     1      20.506  18.299  57.512  1.00  0.00     0.009 C
HETATM    8  C23 UNL     1      20.979  19.614  56.891  1.00  0.00     0.010 C
HETATM    9  C24 UNL     1      20.190  20.788  57.349  1.00  0.00    -0.034 C
HETATM   10  C25 UNL     1      18.871  20.887  56.694  1.00  0.00     0.016 C
ENDROOT
BRANCH   1  11
HETATM   11  C5  UNL     1      21.549  22.463  56.011  1.00  0.00    -0.014 C
HETATM   12  C6  UNL     1      22.877  23.212  56.230  1.00  0.00     0.010 C
BRANCH  11  13
HETATM   13  C4  UNL     1      20.767  23.229  55.043  1.00  0.00     0.007 C
BRANCH  13  14
HETATM   14  C3  UNL     1      20.787  22.796  53.619  1.00  0.00     0.032 C
BRANCH  14  15
HETATM   15  C2  UNL     1      20.467  23.943  52.665  1.00  0.00     0.120 C
HETATM   16  C1  UNL     1      20.115  23.432  51.283  1.00  0.00     0.039 C
BRANCH  15  17
HETATM   17  O3  UNL     1      21.547  24.805  52.530  1.00  0.00    -0.354 OA
BRANCH  17  18
HETATM   18  C26 UNL     1      21.552  25.808  53.488  1.00  0.00     0.291 C
HETATM   19  O4  UNL     1      22.833  26.269  53.768  1.00  0.00    -0.356 OA
HETATM   20  C27 UNL     1      22.536  27.393  54.569  1.00  0.00     0.205 C
HETATM   21  C28 UNL     1      21.518  28.155  53.742  1.00  0.00     0.175 C
HETATM   22  C29 UNL     1      20.733  27.008  53.103  1.00  0.00     0.204 C
BRANCH  21  23
HETATM   23  O5  UNL     1      20.712  28.884  54.591  1.00  0.00    -0.391 OA
ATOM     24  H5  UNL     1      20.289  28.287  55.197  1.00  0.00     0.210 HD
ENDBRANCH  21  23
BRANCH  22  25
HETATM   25  O6  UNL     1      20.735  27.220  51.706  1.00  0.00    -0.388 OA
ATOM     26  H6  UNL     1      21.608  27.403  51.378  1.00  0.00     0.210 HD
ENDBRANCH  22  25
ENDBRANCH  17  18
ENDBRANCH  15  17
ENDBRANCH  14  15
ENDBRANCH  13  14
ENDBRANCH  11  13
ENDBRANCH   1  11
BRANCH   5  27
HETATM   27  O1  UNL     1      21.023  19.910  60.801  1.00  0.00    -0.395 OA
ATOM     28  H1  UNL     1      21.015  20.850  60.940  1.00  0.00     0.210 HD
ENDBRANCH   5  27
BRANCH   6  29
HETATM   29  C13 UNL     1      19.855  17.422  59.773  1.00  0.00    -0.034 C
HETATM   30  C14 UNL     1      18.408  17.832  59.651  1.00  0.00     0.016 C
HETATM   31  C15 UNL     1      20.184  17.412  61.246  1.00  0.00     0.011 C
HETATM   32  C16 UNL     1      19.612  16.123  61.796  1.00  0.00     0.013 C
HETATM   33  C17 UNL     1      19.342  15.250  60.616  1.00  0.00     0.060 C
HETATM   34  C18 UNL     1      20.116  14.003  60.762  1.00  0.00     0.131 C
HETATM   35  C21 UNL     1      19.928  15.978  59.411  1.00  0.00     0.006 C
HETATM   36  O2  UNL     1      19.841  13.108  61.538  1.00  0.00    -0.298 OA
HETATM   37  C19 UNL     1      21.256  14.004  59.843  1.00  0.00     0.079 C
HETATM   38  C20 UNL     1      21.294  15.399  59.241  1.00  0.00     0.013 C
ENDBRANCH   6  29
TORSDOF 10
ENDMDL