MODEL 3
REMARK VINA RESULT: -8.060111962      2.678      5.705
REMARK  8 active torsions:
REMARK  status: ('A' for Active; 'I' for Inactive)
REMARK    1  A    between atoms: C2_2  and  N1_3
REMARK    2  A    between atoms: C2_2  and  C17_26
REMARK       I    between atoms: N1_3  and  C3_5
REMARK    3  A    between atoms: C3_5  and  O2_7
REMARK    4  A    between atoms: O2_7  and  C4_8
REMARK    5  A    between atoms: C7_11  and  O3_12
REMARK    6  A    between atoms: C8_15  and  C9_16
REMARK    7  A    between atoms: C9_16  and  O5_19
REMARK       I    between atoms: C17_26  and  N2_28
REMARK    8  A    between atoms: N2_28  and  C18_30
ROOT
HETATM    1  N1  UNL     1      20.788  23.958  57.467  1.00  0.00    -0.324 N
ATOM      2  H1  UNL     1      19.783  24.083  57.343  1.00  0.00     0.165 HD
HETATM    3  C3  UNL     1      21.590  23.492  56.399  1.00  0.00     0.361 C
HETATM    4  O1  UNL     1      22.815  23.346  56.575  1.00  0.00    -0.238 OA
ENDROOT
BRANCH   3   5
HETATM    5  O2  UNL     1      21.082  23.182  55.147  1.00  0.00    -0.298 OA
BRANCH   5   6
HETATM    6  C4  UNL     1      20.737  21.850  54.747  1.00  0.00     0.138 C
HETATM    7  C5  UNL     1      19.885  21.941  53.547  1.00  0.00     0.038 C
HETATM    8  C6  UNL     1      18.613  21.164  53.563  1.00  0.00     0.071 C
HETATM    9  C7  UNL     1      18.969  19.790  54.165  1.00  0.00     0.166 C
HETATM   10  O4  UNL     1      17.961  18.953  53.882  1.00  0.00    -0.347 OA
HETATM   11  C14 UNL     1      19.140  20.108  55.636  1.00  0.00     0.054 C
HETATM   12  C8  UNL     1      17.642  17.921  54.701  1.00  0.00     0.158 C
HETATM   13  C12 UNL     1      18.031  18.016  56.132  1.00  0.00     0.036 C
HETATM   14  C13 UNL     1      19.271  18.825  56.416  1.00  0.00     0.013 C
HETATM   15  C15 UNL     1      20.243  21.051  55.903  1.00  0.00     0.020 C
HETATM   16  C16 UNL     1      21.413  20.339  56.603  1.00  0.00     0.013 C
BRANCH   9  17
HETATM   17  O3  UNL     1      20.199  19.473  53.573  1.00  0.00    -0.365 OA
ATOM     18  H3  UNL     1      19.999  18.726  53.021  1.00  0.00     0.213 HD
ENDBRANCH   9  17
BRANCH  12  19
HETATM   19  C9  UNL     1      17.962  16.555  54.093  1.00  0.00     0.077 C
HETATM   20  C10 UNL     1      17.707  15.453  55.110  1.00  0.00     0.048 C
HETATM   21  C11 UNL     1      17.183  16.235  52.866  1.00  0.00     0.048 C
BRANCH  19  22
HETATM   22  O5  UNL     1      19.316  16.481  53.763  1.00  0.00    -0.388 OA
ATOM     23  H5  UNL     1      19.742  15.805  54.278  1.00  0.00     0.210 HD
ENDBRANCH  19  22
ENDBRANCH  12  19
ENDBRANCH   5   6
ENDBRANCH   3   5
BRANCH   1  24
HETATM   24  C2  UNL     1      21.411  24.252  58.736  1.00  0.00     0.174 C
HETATM   25  C1  UNL     1      20.685  25.467  59.320  1.00  0.00     0.042 C
BRANCH  24  26
HETATM   26  C17 UNL     1      21.315  23.094  59.674  1.00  0.00     0.240 C
HETATM   27  O6  UNL     1      22.080  23.024  60.657  1.00  0.00    -0.271 OA
HETATM   28  N2  UNL     1      20.366  22.058  59.475  1.00  0.00    -0.350 N
ATOM     29  H2  UNL     1      19.749  22.132  58.666  1.00  0.00     0.163 HD
BRANCH  28  30
HETATM   30  C18 UNL     1      20.207  20.912  60.327  1.00  0.00     0.034 C
HETATM   31  C19 UNL     1      19.929  21.260  61.764  1.00  0.00     0.035 C
HETATM   32  C20 UNL     1      19.729  19.996  62.558  1.00  0.00    -0.012 C
HETATM   33  C21 UNL     1      20.964  19.131  62.477  1.00  0.00     0.009 C
HETATM   34  C25 UNL     1      18.519  19.250  62.079  1.00  0.00     0.009 C
HETATM   35  C22 UNL     1      21.161  18.742  61.033  1.00  0.00    -0.012 C
HETATM   36  C23 UNL     1      19.984  17.969  60.528  1.00  0.00     0.009 C
HETATM   37  C27 UNL     1      21.419  20.001  60.240  1.00  0.00     0.035 C
HETATM   38  C24 UNL     1      18.773  18.867  60.636  1.00  0.00    -0.012 C
HETATM   39  C26 UNL     1      19.021  20.103  59.838  1.00  0.00     0.035 C
ENDBRANCH  28  30
ENDBRANCH  24  26
ENDBRANCH   1  24
TORSDOF 8
ENDMDL