MODEL 5
REMARK VINA RESULT: -8.118831048      1.478      3.805
REMARK  9 active torsions:
REMARK  status: ('A' for Active; 'I' for Inactive)
REMARK    1  A    between atoms: C2_2  and  C3_3
REMARK    2  A    between atoms: C6_7  and  O2_8
REMARK    3  A    between atoms: C14_17  and  O3_18
REMARK    4  A    between atoms: O3_18  and  C15_19
REMARK       I    between atoms: C15_19  and  N1_21
REMARK    5  A    between atoms: N1_21  and  C16_23
REMARK    6  A    between atoms: C16_23  and  C17_24
REMARK    7  A    between atoms: C17_24  and  N2_25
REMARK       I    between atoms: N2_25  and  C18_27
REMARK    8  A    between atoms: C18_27  and  C19_29
REMARK    9  A    between atoms: C24_34  and  O6_35
ROOT
HETATM    1  C3  UNL     1      20.699  17.761  61.739  1.00  0.00     0.152 A
HETATM    2  O1  UNL     1      19.359  17.597  62.173  1.00  0.00    -0.368 OA
HETATM    3  C4  UNL     1      19.009  16.918  60.991  1.00  0.00     0.091 A
HETATM    4  C5  UNL     1      18.561  15.509  61.413  1.00  0.00     0.049 C
HETATM    5  C6  UNL     1      17.953  17.636  60.266  1.00  0.00     0.153 C
HETATM    6  C7  UNL     1      18.324  18.642  59.265  1.00  0.00     0.041 C
HETATM    7  C8  UNL     1      19.729  18.721  58.787  1.00  0.00     0.006 C
HETATM    8  C9  UNL     1      19.903  19.085  57.346  1.00  0.00     0.024 C
HETATM    9  C10 UNL     1      19.857  17.994  56.354  1.00  0.00    -0.005 C
HETATM   10  C11 UNL     1      18.496  17.607  55.830  1.00  0.00     0.005 C
HETATM   11  C12 UNL     1      17.783  18.798  55.235  1.00  0.00     0.003 C
HETATM   12  C13 UNL     1      18.569  20.048  55.453  1.00  0.00     0.033 C
HETATM   13  C14 UNL     1      19.014  20.215  56.895  1.00  0.00     0.138 C
HETATM   14  C23 UNL     1      20.632  16.779  56.772  1.00  0.00     0.037 C
HETATM   15  C24 UNL     1      20.504  16.401  58.192  1.00  0.00     0.127 C
HETATM   16  C25 UNL     1      20.607  17.579  59.159  1.00  0.00    -0.005 C
HETATM   17  C26 UNL     1      22.055  18.051  59.065  1.00  0.00     0.019 C
HETATM   18  C27 UNL     1      20.402  17.029  60.526  1.00  0.00     0.066 A
ENDROOT
BRANCH  13  19
HETATM   19  O3  UNL     1      19.630  21.477  57.049  1.00  0.00    -0.298 OA
BRANCH  19  20
HETATM   20  C15 UNL     1      20.544  22.007  56.158  1.00  0.00     0.360 C
HETATM   21  O4  UNL     1      21.649  21.436  56.080  1.00  0.00    -0.239 OA
HETATM   22  N1  UNL     1      20.293  23.136  55.351  1.00  0.00    -0.335 N
ATOM     23  H1  UNL     1      19.392  23.611  55.412  1.00  0.00     0.164 HD
BRANCH  22  24
HETATM   24  C16 UNL     1      21.299  23.625  54.443  1.00  0.00     0.144 C
BRANCH  24  25
HETATM   25  C17 UNL     1      22.281  24.578  55.060  1.00  0.00     0.142 C
BRANCH  25  26
HETATM   26  N2  UNL     1      21.911  25.932  54.826  1.00  0.00    -0.359 N
HETATM   27  C18 UNL     1      22.323  26.615  53.661  1.00  0.00     0.221 C
HETATM   28  O5  UNL     1      23.023  26.028  52.810  1.00  0.00    -0.273 OA
ATOM     29  H2  UNL     1      21.337  26.419  55.514  1.00  0.00     0.162 HD
BRANCH  27  30
HETATM   30  C19 UNL     1      21.953  28.036  53.395  1.00  0.00     0.078 C
HETATM   31  C20 UNL     1      20.701  28.484  54.087  1.00  0.00     0.014 C
HETATM   32  C21 UNL     1      19.963  28.415  52.772  1.00  0.00     0.002 C
HETATM   33  C22 UNL     1      21.263  28.172  52.075  1.00  0.00     0.014 C
ENDBRANCH  27  30
ENDBRANCH  25  26
ENDBRANCH  24  25
ENDBRANCH  22  24
ENDBRANCH  19  20
ENDBRANCH  13  19
BRANCH   5  34
HETATM   34  O2  UNL     1      17.122  18.214  61.270  1.00  0.00    -0.393 OA
ATOM     35  H2  UNL     1      17.292  19.148  61.238  1.00  0.00     0.210 HD
ENDBRANCH   5  34
BRANCH  15  36
HETATM   36  O6  UNL     1      19.418  15.601  58.400  1.00  0.00    -0.395 OA
ATOM     37  H6  UNL     1      19.676  14.701  58.560  1.00  0.00     0.210 HD
ENDBRANCH  15  36
BRANCH   1  38
HETATM   38  C2  UNL     1      21.061  19.161  61.813  1.00  0.00    -0.005 C
HETATM   39  C1  UNL     1      20.271  20.004  62.456  1.00  0.00     0.009 C
ENDBRANCH   1  38
TORSDOF 9
ENDMDL