MODEL 2
REMARK VINA RESULT: -7.592141374      1.857      2.738
REMARK  9 active torsions:
REMARK  status: ('A' for Active; 'I' for Inactive)
REMARK    1  A    between atoms: C2_2  and  C3_3
REMARK    2  A    between atoms: C3_3  and  C4_4
REMARK    3  A    between atoms: C4_4  and  C5_5
REMARK       I    between atoms: C5_5  and  N1_7
REMARK    4  A    between atoms: N1_7  and  C6_9
REMARK    5  A    between atoms: C7_10  and  O2_11
REMARK    6  A    between atoms: C8_13  and  O3_14
REMARK    7  A    between atoms: C17_25  and  C18_26
REMARK    8  A    between atoms: C18_26  and  C19_28
REMARK    9  A    between atoms: C19_28  and  O6_29
ROOT
HETATM    1  C6  UNL     1      16.467  12.455  59.267  1.00  0.00     0.120 C
HETATM    2  C7  UNL     1      16.648  11.733  57.977  1.00  0.00     0.170 C
HETATM    3  C8  UNL     1      17.335  12.636  57.013  1.00  0.00     0.154 C
HETATM    4  C9  UNL     1      17.660  13.994  57.581  1.00  0.00     0.033 C
HETATM    5  C10 UNL     1      18.219  14.784  56.430  1.00  0.00     0.086 C
HETATM    6  C11 UNL     1      17.811  16.199  56.545  1.00  0.00     0.127 C
HETATM    7  O4  UNL     1      17.384  16.714  55.548  1.00  0.00    -0.298 OA
HETATM    8  C12 UNL     1      17.868  17.049  57.751  1.00  0.00     0.083 C
HETATM    9  C13 UNL     1      18.907  16.454  58.724  1.00  0.00     0.002 C
HETATM   10  C14 UNL     1      19.527  17.589  59.420  1.00  0.00    -0.001 C
HETATM   11  C15 UNL     1      21.050  17.439  59.543  1.00  0.00     0.006 C
HETATM   12  C16 UNL     1      21.420  18.255  60.757  1.00  0.00     0.013 C
HETATM   13  C17 UNL     1      20.127  18.781  61.340  1.00  0.00     0.066 C
HETATM   14  C20 UNL     1      19.127  17.787  60.845  1.00  0.00    -0.030 C
HETATM   15  C21 UNL     1      17.696  18.199  61.025  1.00  0.00     0.016 C
HETATM   16  C22 UNL     1      19.427  16.455  61.516  1.00  0.00     0.011 C
HETATM   17  C23 UNL     1      18.641  15.316  60.964  1.00  0.00     0.006 C
HETATM   18  C24 UNL     1      18.291  15.359  59.519  1.00  0.00    -0.001 C
HETATM   19  C25 UNL     1      18.443  13.981  58.833  1.00  0.00    -0.028 C
HETATM   20  C26 UNL     1      19.878  13.604  58.694  1.00  0.00     0.016 C
HETATM   21  C27 UNL     1      17.799  12.956  59.762  1.00  0.00     0.016 C
HETATM   22  C28 UNL     1      18.684  11.803  60.099  1.00  0.00     0.013 C
ENDROOT
BRANCH   1  23
HETATM   23  N1  UNL     1      15.929  11.570  60.288  1.00  0.00    -0.353 N
HETATM   24  C5  UNL     1      14.514  11.455  60.524  1.00  0.00     0.217 C
HETATM   25  O1  UNL     1      13.772  12.159  59.802  1.00  0.00    -0.274 OA
ATOM     26  H1  UNL     1      16.572  11.014  60.852  1.00  0.00     0.163 HD
BRANCH  24  27
HETATM   27  C4  UNL     1      13.982  10.555  61.560  1.00  0.00     0.103 C
BRANCH  27  28
HETATM   28  C3  UNL     1      13.276  11.203  62.689  1.00  0.00     0.009 C
BRANCH  28  29
HETATM   29  C2  UNL     1      13.775  10.829  64.062  1.00  0.00    -0.004 C
HETATM   30  C1  UNL     1      12.989  11.630  65.084  1.00  0.00     0.005 C
ENDBRANCH  28  29
ENDBRANCH  27  28
ENDBRANCH  24  27
ENDBRANCH   1  23
BRANCH   2  31
HETATM   31  O2  UNL     1      15.360  11.370  57.507  1.00  0.00    -0.391 OA
ATOM     32  H2  UNL     1      15.386  10.445  57.289  1.00  0.00     0.210 HD
ENDBRANCH   2  31
BRANCH   3  33
HETATM   33  O3  UNL     1      18.474  12.035  56.440  1.00  0.00    -0.393 OA
ATOM     34  H3  UNL     1      18.279  11.186  56.063  1.00  0.00     0.210 HD
ENDBRANCH   3  33
BRANCH  13  35
HETATM   35  C18 UNL     1      19.832  20.178  60.970  1.00  0.00     0.154 C
HETATM   36  O5  UNL     1      19.655  20.556  59.826  1.00  0.00    -0.295 OA
BRANCH  35  37
HETATM   37  C19 UNL     1      19.745  21.190  62.052  1.00  0.00     0.242 C
BRANCH  37  38
HETATM   38  O6  UNL     1      19.571  20.569  63.310  1.00  0.00    -0.394 OA
ATOM     39  H6  UNL     1      19.180  21.171  63.933  1.00  0.00     0.209 HD
ENDBRANCH  37  38
ENDBRANCH  35  37
ENDBRANCH  13  35
TORSDOF 9
ENDMDL