MODEL 4
REMARK VINA RESULT: -7.278184267      3.080      8.256
REMARK  11 active torsions:
REMARK  status: ('A' for Active; 'I' for Inactive)
REMARK    1  A    between atoms: C2_2  and  C3_3
REMARK    2  A    between atoms: C3_3  and  O1_4
REMARK    3  A    between atoms: C7_9  and  C8_10
REMARK    4  A    between atoms: C9_11  and  C10_12
REMARK    5  A    between atoms: C10_12  and  O2_13
REMARK    6  A    between atoms: C15_19  and  C17_21
REMARK    7  A    between atoms: C17_21  and  C18_22
REMARK    8  A    between atoms: C23_27  and  O3_28
REMARK    9  A    between atoms: C23_27  and  C24_30
REMARK   10  A    between atoms: C24_30  and  O5_32
REMARK   11  A    between atoms: C26_34  and  O6_35
ROOT
HETATM    1  C10 UNL     1      18.496  20.621  55.573  1.00  0.00     0.105 C
HETATM    2  C11 UNL     1      18.656  21.405  54.333  1.00  0.00     0.022 C
HETATM    3  C12 UNL     1      19.881  22.270  54.255  1.00  0.00     0.013 C
HETATM    4  C13 UNL     1      18.560  20.613  53.049  1.00  0.00     0.008 C
HETATM    5  C14 UNL     1      17.950  19.234  53.316  1.00  0.00     0.012 C
HETATM    6  C15 UNL     1      18.806  18.473  54.260  1.00  0.00    -0.014 C
HETATM    7  C16 UNL     1      20.230  18.388  53.659  1.00  0.00     0.018 C
HETATM    8  C26 UNL     1      18.977  19.207  55.570  1.00  0.00     0.165 C
ENDROOT
BRANCH   1   9
HETATM    9  C9  UNL     1      19.168  21.367  56.687  1.00  0.00     0.010 C
HETATM   10  C8  UNL     1      18.968  21.069  57.967  1.00  0.00    -0.020 C
BRANCH  10  11
HETATM   11  C7  UNL     1      19.613  21.783  59.073  1.00  0.00     0.047 C
HETATM   12  C3  UNL     1      20.550  20.931  59.891  1.00  0.00     0.065 C
HETATM   13  C4  UNL     1      21.603  21.857  60.421  1.00  0.00     0.044 C
HETATM   14  C5  UNL     1      21.588  23.087  59.555  1.00  0.00     0.002 A
HETATM   15  C6  UNL     1      20.381  23.005  58.661  1.00  0.00     0.009 A
HETATM   16  C27 UNL     1      20.552  24.113  59.647  1.00  0.00    -0.039 A
HETATM   17  C28 UNL     1      20.909  25.488  59.105  1.00  0.00     0.015 C
HETATM   18  C29 UNL     1      19.645  24.166  60.866  1.00  0.00     0.015 C
BRANCH  12  19
HETATM   19  C2  UNL     1      19.799  20.240  61.024  1.00  0.00     0.034 C
HETATM   20  C1  UNL     1      20.166  20.811  62.359  1.00  0.00     0.008 C
ENDBRANCH  12  19
BRANCH  12  21
HETATM   21  O1  UNL     1      21.114  19.983  59.053  1.00  0.00    -0.389 OA
ATOM     22  H1  UNL     1      20.651  19.158  59.140  1.00  0.00     0.210 HD
ENDBRANCH  12  21
ENDBRANCH  10  11
ENDBRANCH   1   9
BRANCH   1  23
HETATM   23  O2  UNL     1      17.121  20.605  55.914  1.00  0.00    -0.383 OA
ATOM     24  H2  UNL     1      16.660  20.739  55.094  1.00  0.00     0.211 HD
ENDBRANCH   1  23
BRANCH   8  25
HETATM   25  O6  UNL     1      20.285  19.072  56.032  1.00  0.00    -0.391 OA
ATOM     26  H6  UNL     1      20.849  18.604  55.428  1.00  0.00     0.210 HD
ENDBRANCH   8  25
BRANCH   6  27
HETATM   27  C17 UNL     1      18.438  17.041  54.422  1.00  0.00     0.020 C
BRANCH  27  28
HETATM   28  C18 UNL     1      17.250  16.654  55.191  1.00  0.00     0.032 C
HETATM   29  C19 UNL     1      16.304  15.701  54.549  1.00  0.00     0.013 C
HETATM   30  C20 UNL     1      15.884  14.702  55.604  1.00  0.00    -0.006 A
HETATM   31  C21 UNL     1      16.884  13.674  55.993  1.00  0.00     0.013 A
HETATM   32  C22 UNL     1      16.711  14.900  56.791  1.00  0.00     0.035 A
HETATM   33  C23 UNL     1      17.576  16.118  56.565  1.00  0.00     0.153 C
BRANCH  33  34
HETATM   34  O3  UNL     1      17.216  17.065  57.555  1.00  0.00    -0.379 OA
ATOM     35  H3  UNL     1      17.994  17.469  57.919  1.00  0.00     0.211 HD
ENDBRANCH  33  34
BRANCH  33  36
HETATM   36  C24 UNL     1      18.963  15.735  56.785  1.00  0.00     0.294 C
HETATM   37  O4  UNL     1      19.679  16.444  57.575  1.00  0.00    -0.262 OA
BRANCH  36  38
HETATM   38  O5  UNL     1      19.620  14.646  56.214  1.00  0.00    -0.324 OA
HETATM   39  C25 UNL     1      20.998  14.697  55.918  1.00  0.00     0.213 C
ENDBRANCH  36  38
ENDBRANCH  33  36
ENDBRANCH  27  28
ENDBRANCH   6  27
TORSDOF 11
ENDMDL