MODEL 2
REMARK VINA RESULT: -7.563093651      3.047      8.460
REMARK  10 active torsions:
REMARK  status: ('A' for Active; 'I' for Inactive)
REMARK    1  A    between atoms: O1_2  and  C2_3
REMARK    2  A    between atoms: C2_3  and  C3_5
REMARK    3  A    between atoms: C3_5  and  C4_6
REMARK    4  A    between atoms: C4_6  and  C5_7
REMARK    5  A    between atoms: C5_7  and  N1_8
REMARK    6  A    between atoms: N1_8  and  C7_10
REMARK    7  A    between atoms: C12_15  and  O3_16
REMARK    8  A    between atoms: C20_25  and  O4_26
REMARK    9  A    between atoms: C20_25  and  C21_28
REMARK   10  A    between atoms: C27_36  and  O7_37
ROOT
HETATM    1  C7  UNL     1      18.179  14.420  57.233  1.00  0.00     0.251 C
HETATM    2  C8  UNL     1      18.970  14.135  58.464  1.00  0.00     0.044 C
HETATM    3  C9  UNL     1      18.735  15.097  59.586  1.00  0.00    -0.003 C
HETATM    4  C10 UNL     1      20.018  15.253  60.390  1.00  0.00     0.014 C
HETATM    5  C11 UNL     1      20.067  16.749  60.052  1.00  0.00     0.030 C
HETATM    6  C12 UNL     1      19.962  17.655  61.217  1.00  0.00     0.066 C
HETATM    7  C13 UNL     1      21.274  18.323  61.520  1.00  0.00     0.039 C
HETATM    8  C14 UNL     1      21.180  19.655  62.198  1.00  0.00     0.016 C
HETATM    9  C15 UNL     1      20.215  20.622  61.677  1.00  0.00     0.002 C
HETATM   10  C16 UNL     1      19.268  21.046  62.808  1.00  0.00     0.019 C
HETATM   11  C17 UNL     1      19.293  19.994  60.602  1.00  0.00     0.004 C
HETATM   12  C18 UNL     1      20.026  20.089  59.353  1.00  0.00     0.009 C
HETATM   13  C19 UNL     1      21.136  21.128  59.596  1.00  0.00     0.050 C
HETATM   14  C20 UNL     1      20.708  21.789  60.889  1.00  0.00     0.153 C
HETATM   15  C22 UNL     1      18.882  18.687  61.154  1.00  0.00     0.025 C
HETATM   16  C23 UNL     1      17.591  18.131  60.610  1.00  0.00     0.009 C
HETATM   17  C24 UNL     1      17.741  17.422  59.324  1.00  0.00     0.011 C
HETATM   18  C25 UNL     1      18.922  16.535  59.170  1.00  0.00    -0.028 C
HETATM   19  C26 UNL     1      19.355  16.522  57.706  1.00  0.00     0.044 C
HETATM   20  C27 UNL     1      18.358  15.867  56.807  1.00  0.00     0.152 C
ENDROOT
BRANCH   1  21
HETATM   21  N1  UNL     1      16.765  14.124  57.325  1.00  0.00     0.091 N
HETATM   22  C6  UNL     1      16.376  13.691  55.971  1.00  0.00     0.310 C
BRANCH  21  23
HETATM   23  C5  UNL     1      16.550  12.925  58.149  1.00  0.00     0.273 C
BRANCH  23  24
HETATM   24  C4  UNL     1      15.106  12.745  58.480  1.00  0.00     0.040 C
BRANCH  24  25
HETATM   25  C3  UNL     1      14.932  12.059  59.797  1.00  0.00     0.113 C
BRANCH  25  26
HETATM   26  C2  UNL     1      13.574  11.603  60.104  1.00  0.00     0.258 C
HETATM   27  O2  UNL     1      12.559  11.897  59.433  1.00  0.00    -0.265 OA
BRANCH  26  28
HETATM   28  O1  UNL     1      13.321  10.771  61.218  1.00  0.00    -0.326 OA
HETATM   29  C1  UNL     1      13.362  11.289  62.528  1.00  0.00     0.213 C
ENDBRANCH  26  28
ENDBRANCH  25  26
ENDBRANCH  24  25
ENDBRANCH  23  24
ENDBRANCH  21  23
ENDBRANCH   1  21
BRANCH  20  30
HETATM   30  O7  UNL     1      17.153  16.572  56.765  1.00  0.00    -0.393 OA
ATOM     31  H7  UNL     1      16.778  16.609  55.893  1.00  0.00     0.210 HD
ENDBRANCH  20  30
BRANCH   6  32
HETATM   32  O3  UNL     1      19.678  16.834  62.343  1.00  0.00    -0.389 OA
ATOM     33  H3  UNL     1      20.437  16.884  62.912  1.00  0.00     0.210 HD
ENDBRANCH   6  32
BRANCH  14  34
HETATM   34  O4  UNL     1      19.538  22.525  60.557  1.00  0.00    -0.378 OA
ATOM     35  H4  UNL     1      19.735  22.929  59.720  1.00  0.00     0.211 HD
ENDBRANCH  14  34
BRANCH  14  36
HETATM   36  C21 UNL     1      21.660  22.674  61.499  1.00  0.00     0.209 C
HETATM   37  O5  UNL     1      22.876  22.654  61.247  1.00  0.00    -0.646 OA
HETATM   38  O6  UNL     1      21.236  23.617  62.429  1.00  0.00    -0.646 OA
ENDBRANCH  14  36
TORSDOF 10
ENDMDL