MODEL 5
REMARK VINA RESULT: -7.088169400      2.615      4.039
REMARK  10 active torsions:
REMARK  status: ('A' for Active; 'I' for Inactive)
REMARK    1  A    between atoms: C2_2  and  C3_3
REMARK    2  A    between atoms: C3_3  and  C5_5
REMARK    3  A    between atoms: C11_12  and  O2_13
REMARK    4  A    between atoms: C15_18  and  C16_19
REMARK    5  A    between atoms: C19_22  and  O3_23
REMARK    6  A    between atoms: C21_26  and  O4_27
REMARK    7  A    between atoms: C23_31  and  C24_32
REMARK    8  A    between atoms: C26_34  and  C27_35
REMARK    9  A    between atoms: C27_35  and  O6_36
REMARK   10  A    between atoms: C27_35  and  C28_38
ROOT
HETATM    1  C5  UNL     1      18.886  18.281  56.559  1.00  0.00    -0.021 C
HETATM    2  C6  UNL     1      20.230  17.682  56.714  1.00  0.00     0.012 C
HETATM    3  C7  UNL     1      20.318  16.154  56.869  1.00  0.00     0.024 C
HETATM    4  C8  UNL     1      19.054  15.798  56.194  1.00  0.00     0.082 C
HETATM    5  C9  UNL     1      19.501  16.300  54.874  1.00  0.00     0.144 C
HETATM    6  O1  UNL     1      20.682  16.076  54.566  1.00  0.00    -0.297 OA
HETATM    7  C10 UNL     1      18.924  17.033  53.751  1.00  0.00     0.118 C
HETATM    8  C11 UNL     1      17.564  17.129  54.493  1.00  0.00     0.081 C
HETATM    9  C12 UNL     1      17.949  18.134  55.454  1.00  0.00     0.050 C
HETATM   10  C13 UNL     1      17.049  15.777  54.677  1.00  0.00     0.070 C
HETATM   11  C14 UNL     1      15.774  15.663  53.794  1.00  0.00     0.029 C
HETATM   12  C15 UNL     1      17.762  14.510  54.449  1.00  0.00    -0.023 C
HETATM   13  C19 UNL     1      18.613  14.458  55.734  1.00  0.00     0.105 C
HETATM   14  C20 UNL     1      17.360  14.198  56.586  1.00  0.00     0.113 C
HETATM   15  C21 UNL     1      16.506  15.368  56.043  1.00  0.00     0.179 C
HETATM   16  O5  UNL     1      16.749  16.245  56.983  1.00  0.00    -0.347 OA
HETATM   17  C22 UNL     1      18.117  16.339  57.145  1.00  0.00     0.153 C
HETATM   18  C23 UNL     1      18.184  17.743  57.745  1.00  0.00     0.053 C
ENDROOT
BRANCH  18  19
HETATM   19  C24 UNL     1      18.398  17.886  59.143  1.00  0.00    -0.077 C
HETATM   20  C25 UNL     1      18.499  16.490  59.717  1.00  0.00     0.043 C
HETATM   21  C26 UNL     1      19.101  18.810  59.958  1.00  0.00     0.012 C
BRANCH  21  22
HETATM   22  C27 UNL     1      19.116  18.575  61.437  1.00  0.00     0.169 C
BRANCH  22  23
HETATM   23  O6  UNL     1      17.865  19.272  61.921  1.00  0.00    -0.387 OA
ATOM     24  H6  UNL     1      18.145  20.171  62.049  1.00  0.00     0.210 HD
ENDBRANCH  22  23
BRANCH  22  25
HETATM   25  C28 UNL     1      20.058  19.394  62.237  1.00  0.00    -0.061 C
HETATM   26  C29 UNL     1      21.312  19.113  62.405  1.00  0.00     0.017 C
HETATM   27  C30 UNL     1      19.524  20.665  62.801  1.00  0.00     0.045 C
ENDBRANCH  22  25
ENDBRANCH  21  22
ENDBRANCH  18  19
BRANCH   1  28
HETATM   28  C3  UNL     1      19.107  19.775  56.769  1.00  0.00     0.012 C
HETATM   29  C4  UNL     1      20.439  20.248  56.206  1.00  0.00     0.015 C
BRANCH  28  30
HETATM   30  C2  UNL     1      18.075  20.648  56.228  1.00  0.00    -0.032 C
HETATM   31  C1  UNL     1      18.055  21.920  56.578  1.00  0.00     0.007 C
ENDBRANCH  28  30
ENDBRANCH   1  28
BRANCH   8  32
HETATM   32  O2  UNL     1      16.784  17.800  53.499  1.00  0.00    -0.388 OA
ATOM     33  H2  UNL     1      17.008  18.702  53.694  1.00  0.00     0.210 HD
ENDBRANCH   8  32
BRANCH  13  34
HETATM   34  O3  UNL     1      19.511  13.461  55.762  1.00  0.00    -0.384 OA
ATOM     35  H3  UNL     1      20.048  13.327  54.990  1.00  0.00     0.211 HD
ENDBRANCH  13  34
BRANCH  15  36
HETATM   36  O4  UNL     1      15.216  14.934  56.074  1.00  0.00    -0.364 OA
ATOM     37  H4  UNL     1      14.859  14.735  56.932  1.00  0.00     0.213 HD
ENDBRANCH  15  36
BRANCH  12  38
HETATM   38  C16 UNL     1      18.014  13.759  53.308  1.00  0.00    -0.065 C
HETATM   39  C17 UNL     1      17.481  12.542  53.134  1.00  0.00     0.019 C
HETATM   40  C18 UNL     1      18.914  14.149  52.216  1.00  0.00     0.047 C
ENDBRANCH  12  38
TORSDOF 10
ENDMDL