MODEL 1
REMARK VINA RESULT: -8.262086526      0.000      0.000
REMARK  10 active torsions:
REMARK  status: ('A' for Active; 'I' for Inactive)
REMARK    1  A    between atoms: C2_2  and  N1_3
REMARK    2  A    between atoms: C2_2  and  C3_7
REMARK    3  A    between atoms: C3_7  and  O2_9
REMARK    4  A    between atoms: O2_9  and  C4_10
REMARK    5  A    between atoms: C12_18  and  O3_19
REMARK    6  A    between atoms: C16_24  and  C17_25
REMARK    7  A    between atoms: C17_25  and  C19_27
REMARK    8  A    between atoms: C19_27  and  C20_28
REMARK    9  A    between atoms: C20_28  and  C21_29
REMARK   10  A    between atoms: C27_37  and  O5_38
ROOT
HETATM    1  C4  UNL     1      22.023  23.555  54.813  1.00  0.00     0.160 C
HETATM    2  C5  UNL     1      20.580  23.490  54.305  1.00  0.00     0.036 C
HETATM    3  C6  UNL     1      20.287  22.118  53.921  1.00  0.00     0.012 C
HETATM    4  C7  UNL     1      19.679  21.127  54.769  1.00  0.00    -0.040 C
HETATM    5  C8  UNL     1      19.731  19.865  53.850  1.00  0.00     0.015 C
HETATM    6  C9  UNL     1      18.156  21.385  54.804  1.00  0.00     0.010 C
HETATM    7  C10 UNL     1      17.750  20.031  55.389  1.00  0.00     0.008 C
HETATM    8  C11 UNL     1      18.727  19.925  56.513  1.00  0.00     0.019 C
HETATM    9  C12 UNL     1      19.034  18.602  57.032  1.00  0.00     0.123 C
HETATM   10  C13 UNL     1      19.397  18.737  58.528  1.00  0.00     0.042 C
HETATM   11  C14 UNL     1      20.593  19.521  58.815  1.00  0.00    -0.034 C
HETATM   12  C15 UNL     1      21.865  18.838  58.243  1.00  0.00     0.016 C
HETATM   13  C16 UNL     1      20.876  19.577  60.271  1.00  0.00    -0.002 C
HETATM   14  C22 UNL     1      20.025  20.704  60.839  1.00  0.00     0.006 C
HETATM   15  C23 UNL     1      19.919  21.644  59.690  1.00  0.00     0.006 C
HETATM   16  C24 UNL     1      20.613  20.974  58.516  1.00  0.00    -0.001 C
HETATM   17  C25 UNL     1      20.280  21.574  57.222  1.00  0.00    -0.002 C
HETATM   18  C26 UNL     1      21.140  22.792  57.019  1.00  0.00     0.039 C
HETATM   19  C27 UNL     1      22.224  22.640  55.986  1.00  0.00     0.148 C
HETATM   20  C28 UNL     1      19.999  20.708  56.077  1.00  0.00     0.005 C
ENDROOT
BRANCH   1  21
HETATM   21  O2  UNL     1      22.520  24.828  54.921  1.00  0.00    -0.312 OA
BRANCH  21  22
HETATM   22  C3  UNL     1      22.578  25.800  53.962  1.00  0.00     0.289 C
HETATM   23  O1  UNL     1      23.197  25.481  52.947  1.00  0.00    -0.263 OA
BRANCH  22  24
HETATM   24  C2  UNL     1      21.924  27.116  54.188  1.00  0.00     0.278 C
HETATM   25  C1  UNL     1      20.803  27.340  53.222  1.00  0.00     0.050 C
BRANCH  24  26
HETATM   26  N1  UNL     1      22.911  28.191  54.111  1.00  0.00    -0.066 N
ATOM     27  H13 UNL     1      22.465  29.105  54.033  1.00  0.00     0.275 HD
ATOM     28  H12 UNL     1      23.388  28.326  55.002  1.00  0.00     0.275 HD
ATOM     29  H11 UNL     1      23.573  28.031  53.351  1.00  0.00     0.275 HD
ENDBRANCH  24  26
ENDBRANCH  22  24
ENDBRANCH  21  22
ENDBRANCH   1  21
BRANCH  19  30
HETATM   30  O5  UNL     1      23.500  22.871  56.496  1.00  0.00    -0.393 OA
ATOM     31  H5  UNL     1      23.950  22.036  56.547  1.00  0.00     0.210 HD
ENDBRANCH  19  30
BRANCH   9  32
HETATM   32  O3  UNL     1      17.895  17.796  56.979  1.00  0.00    -0.395 OA
ATOM     33  H3  UNL     1      17.607  17.585  57.859  1.00  0.00     0.210 HD
ENDBRANCH   9  32
BRANCH  13  34
HETATM   34  C17 UNL     1      20.857  18.388  61.146  1.00  0.00    -0.010 C
HETATM   35  C18 UNL     1      21.390  18.987  62.509  1.00  0.00     0.010 C
BRANCH  34  36
HETATM   36  C19 UNL     1      19.549  17.802  61.534  1.00  0.00     0.037 C
BRANCH  36  37
HETATM   37  C20 UNL     1      19.458  16.314  61.642  1.00  0.00     0.044 C
BRANCH  37  38
HETATM   38  C21 UNL     1      18.494  15.545  60.923  1.00  0.00     0.250 C
HETATM   39  N2  UNL     1      18.428  15.629  59.481  1.00  0.00    -0.058 NA
HETATM   40  O4  UNL     1      17.651  14.768  61.425  1.00  0.00    -0.272 OA
ENDBRANCH  37  38
ENDBRANCH  36  37
ENDBRANCH  34  36
ENDBRANCH  13  34
TORSDOF 10
ENDMDL