MODEL 4
REMARK VINA RESULT: -12.148020442      0.943      3.707
REMARK  5 active torsions:
REMARK  status: ('A' for Active; 'I' for Inactive)
REMARK    1  A    between atoms: C4_4  and  C5_5
REMARK    2  A    between atoms: C5_5  and  O1_6
REMARK    3  A    between atoms: O1_6  and  C6_7
REMARK    4  A    between atoms: C9_10  and  C10_11
REMARK    5  A    between atoms: C12_13  and  C13_14
ROOT
HETATM    1  C10 UNL     1      57.789  32.951  73.357  1.00  0.00    -0.024 A
HETATM    2  C11 UNL     1      58.564  34.012  73.727  1.00  0.00     0.025 A
HETATM    3  C12 UNL     1      59.429  33.941  74.822  1.00  0.00    -0.014 A
HETATM    4  C19 UNL     1      59.555  32.808  75.586  1.00  0.00    -0.015 A
HETATM    5  C20 UNL     1      60.396  32.671  76.662  1.00  0.00     0.013 A
HETATM    6  C21 UNL     1      60.485  31.495  77.390  1.00  0.00     0.001 A
HETATM    7  C22 UNL     1      59.699  30.438  77.008  1.00  0.00     0.001 A
HETATM    8  C23 UNL     1      58.855  30.566  75.931  1.00  0.00     0.012 A
HETATM    9  C24 UNL     1      58.753  31.727  75.195  1.00  0.00    -0.024 A
HETATM   10  C25 UNL     1      57.893  31.804  74.106  1.00  0.00     0.024 A
ENDROOT
BRANCH   1  11
HETATM   11  C9  UNL     1      56.871  33.015  72.205  1.00  0.00    -0.026 A
HETATM   12  C8  UNL     1      55.986  31.994  71.936  1.00  0.00     0.015 A
HETATM   13  C7  UNL     1      55.121  32.055  70.852  1.00  0.00     0.037 A
HETATM   14  C6  UNL     1      55.133  33.155  70.011  1.00  0.00     0.069 A
HETATM   15  C27 UNL     1      56.014  34.162  70.285  1.00  0.00     0.037 A
HETATM   16  C26 UNL     1      56.867  34.102  71.355  1.00  0.00     0.015 A
BRANCH  14  17
HETATM   17  O1  UNL     1      54.259  33.181  68.942  1.00  0.00    -0.347 OA
BRANCH  17  18
HETATM   18  C5  UNL     1      53.126  34.006  68.877  1.00  0.00     0.214 C
BRANCH  18  19
HETATM   19  C4  UNL     1      53.422  35.141  67.983  1.00  0.00    -0.034 A
HETATM   20  C3  UNL     1      53.455  34.955  66.624  1.00  0.00     0.009 A
HETATM   21  C2  UNL     1      53.727  35.990  65.763  1.00  0.00     0.001 A
HETATM   22  C1  UNL     1      53.976  37.252  66.253  1.00  0.00     0.000 A
HETATM   23  C29 UNL     1      53.944  37.444  67.629  1.00  0.00     0.001 A
HETATM   24  C28 UNL     1      53.667  36.383  68.494  1.00  0.00     0.009 A
ENDBRANCH  18  19
ENDBRANCH  17  18
ENDBRANCH  14  17
ENDBRANCH   1  11
BRANCH   3  25
HETATM   25  C13 UNL     1      60.203  35.137  75.198  1.00  0.00    -0.025 A
HETATM   26  C14 UNL     1      59.561  36.371  75.250  1.00  0.00     0.012 A
HETATM   27  C15 UNL     1      60.209  37.525  75.638  1.00  0.00     0.001 A
HETATM   28  C16 UNL     1      61.546  37.435  75.986  1.00  0.00     0.000 A
HETATM   29  C17 UNL     1      62.196  36.222  75.940  1.00  0.00     0.001 A
HETATM   30  C18 UNL     1      61.523  35.096  75.550  1.00  0.00     0.012 A
ENDBRANCH   3  25
TORSDOF 5
ENDMDL