MODEL 2
REMARK VINA RESULT: -11.122564591      1.099      1.527
REMARK  5 active torsions:
REMARK  status: ('A' for Active; 'I' for Inactive)
REMARK    1  A    between atoms: C4_4  and  O1_5
REMARK    2  A    between atoms: O1_5  and  C5_6
REMARK    3  A    between atoms: C5_6  and  C6_7
REMARK    4  A    between atoms: C5_6  and  C18_19
REMARK    5  A    between atoms: C10_11  and  C11_12
ROOT
HETATM    1  C5  UNL     1      59.894  31.421  76.243  1.00  0.00     0.196 C
ENDROOT
BRANCH   1   2
HETATM    2  O1  UNL     1      60.206  32.029  77.473  1.00  0.00    -0.337 OA
BRANCH   2   3
HETATM    3  C4  UNL     1      61.340  32.029  78.189  1.00  0.00     0.070 A
HETATM    4  C3  UNL     1      62.290  33.013  78.107  1.00  0.00     0.037 A
HETATM    5  C2  UNL     1      63.458  32.956  78.883  1.00  0.00     0.003 A
HETATM    6  C1  UNL     1      63.671  31.906  79.745  1.00  0.00     0.000 A
HETATM    7  C29 UNL     1      62.711  30.905  79.834  1.00  0.00     0.003 A
HETATM    8  C28 UNL     1      61.588  30.993  79.064  1.00  0.00     0.037 A
ENDBRANCH   2   3
ENDBRANCH   1   2
BRANCH   1   9
HETATM    9  C6  UNL     1      59.591  32.542  75.298  1.00  0.00    -0.024 A
HETATM   10  C7  UNL     1      60.034  33.830  75.477  1.00  0.00     0.010 A
HETATM   11  C8  UNL     1      59.722  34.838  74.582  1.00  0.00     0.002 A
HETATM   12  C9  UNL     1      58.947  34.571  73.464  1.00  0.00     0.012 A
HETATM   13  C10 UNL     1      58.486  33.289  73.252  1.00  0.00    -0.025 A
HETATM   14  C17 UNL     1      58.815  32.325  74.157  1.00  0.00     0.022 A
BRANCH  13  15
HETATM   15  C11 UNL     1      57.658  32.980  72.068  1.00  0.00    -0.026 A
HETATM   16  C12 UNL     1      56.921  34.007  71.499  1.00  0.00     0.012 A
HETATM   17  C13 UNL     1      56.141  33.740  70.391  1.00  0.00     0.001 A
HETATM   18  C14 UNL     1      56.094  32.463  69.857  1.00  0.00     0.000 A
HETATM   19  C15 UNL     1      56.826  31.436  70.421  1.00  0.00     0.001 A
HETATM   20  C16 UNL     1      57.600  31.717  71.526  1.00  0.00     0.012 A
ENDBRANCH  13  15
ENDBRANCH   1   9
BRANCH   1  21
HETATM   21  C18 UNL     1      58.751  30.566  76.388  1.00  0.00    -0.013 A
HETATM   22  C19 UNL     1      57.508  31.043  76.032  1.00  0.00     0.011 A
HETATM   23  C20 UNL     1      56.358  30.281  76.132  1.00  0.00     0.002 A
HETATM   24  C21 UNL     1      56.430  28.990  76.602  1.00  0.00     0.012 A
HETATM   25  C22 UNL     1      57.685  28.474  76.973  1.00  0.00    -0.025 A
HETATM   26  C23 UNL     1      57.779  27.185  77.453  1.00  0.00     0.012 A
HETATM   27  C27 UNL     1      58.803  29.253  76.863  1.00  0.00    -0.017 A
HETATM   28  C24 UNL     1      59.012  26.693  77.819  1.00  0.00     0.001 A
HETATM   29  C25 UNL     1      60.141  27.495  77.702  1.00  0.00     0.001 A
HETATM   30  C26 UNL     1      60.017  28.778  77.220  1.00  0.00     0.013 A
ENDBRANCH   1  21
TORSDOF 5
ENDMDL