MODEL 5
REMARK VINA RESULT: -11.977254212      3.550     10.238
REMARK  5 active torsions:
REMARK  status: ('A' for Active; 'I' for Inactive)
REMARK    1  A    between atoms: C4_4  and  C5_5
REMARK    2  A    between atoms: C8_8  and  C9_9
REMARK    3  A    between atoms: C9_9  and  N1_10
REMARK    4  A    between atoms: N1_10  and  C10_11
REMARK    5  A    between atoms: N1_10  and  C16_17
ROOT
HETATM    1  N1  UNL     1      58.489  29.403  77.992  1.00  0.00    -0.343 N
ENDROOT
BRANCH   1   2
HETATM    2  C9  UNL     1      57.236  29.980  77.671  1.00  0.00     0.168 C
BRANCH   2   3
HETATM    3  C8  UNL     1      56.912  30.214  76.270  1.00  0.00    -0.040 A
HETATM    4  C7  UNL     1      56.972  29.248  75.295  1.00  0.00     0.010 A
HETATM    5  C6  UNL     1      56.671  29.555  73.991  1.00  0.00     0.013 A
HETATM    6  C5  UNL     1      56.298  30.849  73.619  1.00  0.00    -0.026 A
HETATM    7  C27 UNL     1      56.232  31.826  74.575  1.00  0.00     0.013 A
HETATM    8  C26 UNL     1      56.533  31.514  75.876  1.00  0.00     0.010 A
BRANCH   6   9
HETATM    9  C4  UNL     1      56.014  31.099  72.199  1.00  0.00    -0.026 A
HETATM   10  C3  UNL     1      57.003  30.896  71.246  1.00  0.00     0.012 A
HETATM   11  C2  UNL     1      56.778  31.125  69.909  1.00  0.00     0.001 A
HETATM   12  C1  UNL     1      55.545  31.568  69.475  1.00  0.00     0.000 A
HETATM   13  C29 UNL     1      54.559  31.773  70.408  1.00  0.00     0.001 A
HETATM   14  C28 UNL     1      54.790  31.541  71.761  1.00  0.00     0.012 A
ENDBRANCH   6   9
ENDBRANCH   2   3
ENDBRANCH   1   2
BRANCH   1  15
HETATM   15  C10 UNL     1      58.662  28.010  78.196  1.00  0.00     0.035 A
HETATM   16  C11 UNL     1      59.816  27.328  77.930  1.00  0.00     0.029 A
HETATM   17  C12 UNL     1      59.972  25.956  78.141  1.00  0.00     0.002 A
HETATM   18  C13 UNL     1      58.918  25.224  78.641  1.00  0.00     0.000 A
HETATM   19  C14 UNL     1      57.746  25.898  78.915  1.00  0.00     0.002 A
HETATM   20  C15 UNL     1      57.603  27.250  78.705  1.00  0.00     0.029 A
ENDBRANCH   1  15
BRANCH   1  21
HETATM   21  C16 UNL     1      59.631  30.268  78.127  1.00  0.00     0.035 A
HETATM   22  C17 UNL     1      59.805  31.416  77.369  1.00  0.00     0.030 A
HETATM   23  C18 UNL     1      60.902  32.246  77.519  1.00  0.00     0.014 A
HETATM   24  C19 UNL     1      61.875  31.929  78.463  1.00  0.00    -0.026 A
HETATM   25  C20 UNL     1      62.978  32.748  78.631  1.00  0.00     0.012 A
HETATM   26  C24 UNL     1      61.738  30.793  79.237  1.00  0.00    -0.024 A
HETATM   27  C21 UNL     1      63.943  32.443  79.566  1.00  0.00     0.001 A
HETATM   28  C22 UNL     1      63.833  31.310  80.359  1.00  0.00     0.001 A
HETATM   29  C23 UNL     1      62.718  30.515  80.162  1.00  0.00     0.012 A
HETATM   30  C25 UNL     1      60.628  30.001  79.050  1.00  0.00     0.042 A
ENDBRANCH   1  21
TORSDOF 5
ENDMDL