MODEL 1
REMARK VINA RESULT: -13.625740392      0.000      0.000
REMARK  5 active torsions:
REMARK  status: ('A' for Active; 'I' for Inactive)
REMARK    1  A    between atoms: C4_4  and  C5_5
REMARK    2  A    between atoms: C8_8  and  C9_9
REMARK    3  A    between atoms: C12_12  and  C13_13
REMARK    4  A    between atoms: C13_13  and  O1_14
REMARK    5  A    between atoms: O1_14  and  C14_15
ROOT
HETATM    1  C9  UNL     1      55.741  31.866  72.731  1.00  0.00    -0.026 A
HETATM    2  C10 UNL     1      55.632  32.404  73.993  1.00  0.00     0.013 A
HETATM    3  C11 UNL     1      56.046  31.684  75.089  1.00  0.00     0.010 A
HETATM    4  C12 UNL     1      56.579  30.419  74.988  1.00  0.00    -0.034 A
HETATM    5  C24 UNL     1      56.671  29.912  73.698  1.00  0.00     0.010 A
HETATM    6  C25 UNL     1      56.265  30.610  72.591  1.00  0.00     0.013 A
ENDROOT
BRANCH   1   7
HETATM    7  C8  UNL     1      55.296  32.646  71.557  1.00  0.00    -0.026 A
HETATM    8  C7  UNL     1      56.016  33.774  71.256  1.00  0.00     0.013 A
HETATM    9  C6  UNL     1      55.613  34.524  70.153  1.00  0.00     0.013 A
HETATM   10  C5  UNL     1      54.529  34.162  69.379  1.00  0.00    -0.026 A
HETATM   11  C27 UNL     1      53.836  33.028  69.713  1.00  0.00     0.013 A
HETATM   12  C26 UNL     1      54.211  32.246  70.815  1.00  0.00     0.013 A
BRANCH  10  13
HETATM   13  C4  UNL     1      54.195  35.017  68.251  1.00  0.00    -0.026 A
HETATM   14  C3  UNL     1      53.550  34.494  67.134  1.00  0.00     0.012 A
HETATM   15  C2  UNL     1      53.262  35.356  66.102  1.00  0.00     0.001 A
HETATM   16  C1  UNL     1      53.575  36.693  66.119  1.00  0.00     0.000 A
HETATM   17  C29 UNL     1      54.220  37.218  67.234  1.00  0.00     0.001 A
HETATM   18  C28 UNL     1      54.509  36.368  68.261  1.00  0.00     0.012 A
ENDBRANCH  10  13
ENDBRANCH   1   7
BRANCH   4  19
HETATM   19  C13 UNL     1      57.028  29.640  76.171  1.00  0.00     0.214 C
BRANCH  19  20
HETATM   20  O1  UNL     1      58.411  29.349  75.985  1.00  0.00    -0.347 OA
BRANCH  20  21
HETATM   21  C14 UNL     1      59.387  30.069  76.688  1.00  0.00     0.070 A
HETATM   22  C15 UNL     1      59.671  31.370  76.340  1.00  0.00     0.037 A
HETATM   23  C16 UNL     1      60.629  32.087  77.027  1.00  0.00     0.015 A
HETATM   24  C17 UNL     1      61.340  31.542  78.082  1.00  0.00    -0.026 A
HETATM   25  C18 UNL     1      62.291  32.289  78.748  1.00  0.00     0.012 A
HETATM   26  C22 UNL     1      61.042  30.229  78.422  1.00  0.00    -0.023 A
HETATM   27  C19 UNL     1      62.972  31.706  79.791  1.00  0.00     0.001 A
HETATM   28  C20 UNL     1      62.708  30.391  80.169  1.00  0.00     0.001 A
HETATM   29  C21 UNL     1      61.751  29.684  79.477  1.00  0.00     0.012 A
HETATM   30  C23 UNL     1      60.084  29.511  77.736  1.00  0.00     0.049 A
ENDBRANCH  20  21
ENDBRANCH  19  20
ENDBRANCH   4  19
TORSDOF 5
ENDMDL