MODEL 5
REMARK VINA RESULT: -11.563668975      2.323      4.023
REMARK  5 active torsions:
REMARK  status: ('A' for Active; 'I' for Inactive)
REMARK    1  A    between atoms: C4_4  and  C5_5
REMARK    2  A    between atoms: C5_5  and  O1_6
REMARK    3  A    between atoms: O1_6  and  C6_7
REMARK    4  A    between atoms: C10_11  and  C11_12
REMARK    5  A    between atoms: C20_21  and  C21_22
ROOT
HETATM    1  C11 UNL     1      58.332  32.974  73.336  1.00  0.00    -0.014 A
HETATM    2  C12 UNL     1      59.088  34.069  72.989  1.00  0.00     0.014 A
HETATM    3  C13 UNL     1      59.921  34.618  73.922  1.00  0.00     0.013 A
HETATM    4  C14 UNL     1      60.012  34.087  75.206  1.00  0.00    -0.025 A
HETATM    5  C15 UNL     1      60.852  34.672  76.126  1.00  0.00     0.012 A
HETATM    6  C16 UNL     1      60.934  34.158  77.395  1.00  0.00     0.001 A
HETATM    7  C17 UNL     1      60.183  33.057  77.766  1.00  0.00     0.001 A
HETATM    8  C18 UNL     1      59.335  32.455  76.858  1.00  0.00     0.013 A
HETATM    9  C19 UNL     1      59.262  32.981  75.590  1.00  0.00    -0.014 A
HETATM   10  C20 UNL     1      58.416  32.433  74.616  1.00  0.00    -0.004 A
ENDROOT
BRANCH   1  11
HETATM   11  C10 UNL     1      57.427  32.423  72.344  1.00  0.00    -0.022 A
HETATM   12  C9  UNL     1      57.588  31.155  71.871  1.00  0.00     0.012 A
HETATM   13  C8  UNL     1      56.668  30.720  70.924  1.00  0.00     0.004 A
HETATM   14  C7  UNL     1      55.633  31.512  70.465  1.00  0.00     0.037 A
HETATM   15  C6  UNL     1      55.473  32.788  70.941  1.00  0.00     0.070 A
HETATM   16  C27 UNL     1      56.381  33.227  71.882  1.00  0.00     0.049 A
BRANCH  15  17
HETATM   17  O1  UNL     1      54.437  33.651  70.513  1.00  0.00    -0.347 OA
BRANCH  17  18
HETATM   18  C5  UNL     1      53.628  33.228  69.410  1.00  0.00     0.214 C
BRANCH  18  19
HETATM   19  C4  UNL     1      53.674  34.258  68.356  1.00  0.00    -0.034 A
HETATM   20  C3  UNL     1      53.147  33.985  67.089  1.00  0.00     0.009 A
HETATM   21  C2  UNL     1      53.166  34.918  66.072  1.00  0.00     0.001 A
HETATM   22  C1  UNL     1      53.707  36.163  66.267  1.00  0.00     0.000 A
HETATM   23  C29 UNL     1      54.234  36.444  67.527  1.00  0.00     0.001 A
HETATM   24  C28 UNL     1      54.216  35.509  68.549  1.00  0.00     0.009 A
ENDBRANCH  18  19
ENDBRANCH  17  18
ENDBRANCH  15  17
ENDBRANCH   1  11
BRANCH  10  25
HETATM   25  C21 UNL     1      57.620  31.282  74.991  1.00  0.00    -0.024 A
HETATM   26  C22 UNL     1      56.235  31.325  75.196  1.00  0.00     0.012 A
HETATM   27  C23 UNL     1      55.535  30.188  75.528  1.00  0.00     0.001 A
HETATM   28  C24 UNL     1      56.166  28.978  75.669  1.00  0.00     0.000 A
HETATM   29  C25 UNL     1      57.519  28.905  75.474  1.00  0.00     0.001 A
HETATM   30  C26 UNL     1      58.198  30.059  75.142  1.00  0.00     0.012 A
ENDBRANCH  10  25
TORSDOF 5
ENDMDL