MODEL 5
REMARK VINA RESULT: -9.428516250      2.522      5.598
REMARK  5 active torsions:
REMARK  status: ('A' for Active; 'I' for Inactive)
REMARK    1  A    between atoms: C4_4  and  C5_5
REMARK    2  A    between atoms: C5_5  and  N1_6
REMARK    3  A    between atoms: C7_8  and  C8_9
REMARK    4  A    between atoms: C14_15  and  C15_16
REMARK    5  A    between atoms: C21_22  and  C22_23
ROOT
HETATM    1  N1  UNL     1      57.077  33.835  74.127  1.00  0.00    -0.350 N
HETATM    2  C6  UNL     1      57.863  34.950  74.136  1.00  0.00     0.105 A
HETATM    3  C7  UNL     1      58.965  34.711  74.943  1.00  0.00     0.003 A
HETATM    4  C14 UNL     1      58.813  33.433  75.410  1.00  0.00     0.014 A
HETATM    5  C21 UNL     1      57.630  32.889  74.896  1.00  0.00     0.057 A
ENDROOT
BRANCH   1   6
HETATM    6  C5  UNL     1      55.844  33.730  73.391  1.00  0.00     0.167 C
BRANCH   6   7
HETATM    7  C4  UNL     1      55.975  32.872  72.169  1.00  0.00    -0.040 A
HETATM    8  C3  UNL     1      57.075  32.916  71.340  1.00  0.00     0.009 A
HETATM    9  C2  UNL     1      57.142  32.119  70.239  1.00  0.00     0.001 A
HETATM   10  C1  UNL     1      56.144  31.237  69.886  1.00  0.00     0.000 A
HETATM   11  C29 UNL     1      55.039  31.199  70.725  1.00  0.00     0.001 A
HETATM   12  C28 UNL     1      54.941  31.990  71.844  1.00  0.00     0.009 A
ENDBRANCH   6   7
ENDBRANCH   1   6
BRANCH   5  13
HETATM   13  C22 UNL     1      57.166  31.545  75.195  1.00  0.00    -0.008 A
HETATM   14  C23 UNL     1      56.616  31.167  76.403  1.00  0.00     0.014 A
HETATM   15  C24 UNL     1      56.189  29.879  76.629  1.00  0.00     0.001 A
HETATM   16  C25 UNL     1      56.299  28.908  75.639  1.00  0.00     0.000 A
HETATM   17  C26 UNL     1      56.853  29.282  74.417  1.00  0.00     0.001 A
HETATM   18  C27 UNL     1      57.271  30.579  74.217  1.00  0.00     0.014 A
ENDBRANCH   5  13
BRANCH   3  19
HETATM   19  C8  UNL     1      60.044  35.643  75.220  1.00  0.00    -0.024 A
HETATM   20  C9  UNL     1      61.379  35.332  75.127  1.00  0.00     0.012 A
HETATM   21  C10 UNL     1      62.374  36.227  75.400  1.00  0.00     0.001 A
HETATM   22  C11 UNL     1      62.028  37.501  75.785  1.00  0.00     0.000 A
HETATM   23  C12 UNL     1      60.698  37.880  75.898  1.00  0.00     0.001 A
HETATM   24  C13 UNL     1      59.733  36.941  75.612  1.00  0.00     0.012 A
ENDBRANCH   3  19
BRANCH   4  25
HETATM   25  C15 UNL     1      59.717  32.721  76.300  1.00  0.00    -0.023 A
HETATM   26  C16 UNL     1      60.117  31.435  75.937  1.00  0.00     0.012 A
HETATM   27  C17 UNL     1      60.975  30.714  76.734  1.00  0.00     0.001 A
HETATM   28  C18 UNL     1      61.435  31.287  77.907  1.00  0.00     0.000 A
HETATM   29  C19 UNL     1      61.064  32.551  78.300  1.00  0.00     0.001 A
HETATM   30  C20 UNL     1      60.204  33.250  77.483  1.00  0.00     0.012 A
ENDBRANCH   4  25
TORSDOF 5
ENDMDL