MODEL 1
REMARK VINA RESULT: -13.589753549      0.000      0.000
REMARK  5 active torsions:
REMARK  status: ('A' for Active; 'I' for Inactive)
REMARK    1  A    between atoms: C5_6  and  C6_7
REMARK    2  A    between atoms: C9_10  and  C10_11
REMARK    3  A    between atoms: C11_12  and  C12_13
REMARK    4  A    between atoms: C15_16  and  C16_17
REMARK    5  A    between atoms: C17_18  and  C18_19
ROOT
HETATM    1  N1  UNL     1      65.864  29.848  83.150  1.00  0.00    -0.191 NA
HETATM    2  C1  UNL     1      65.121  30.177  82.316  1.00  0.00     0.099 C
HETATM    3  C2  UNL     1      64.214  30.584  81.264  1.00  0.00     0.044 A
HETATM    4  C3  UNL     1      64.364  31.817  80.663  1.00  0.00     0.023 A
HETATM    5  C4  UNL     1      63.522  32.244  79.658  1.00  0.00     0.014 A
HETATM    6  C5  UNL     1      62.486  31.428  79.223  1.00  0.00    -0.026 A
HETATM    7  C28 UNL     1      62.356  30.201  79.839  1.00  0.00     0.014 A
HETATM    8  C29 UNL     1      63.188  29.758  80.843  1.00  0.00     0.023 A
ENDROOT
BRANCH   6   9
HETATM    9  C6  UNL     1      61.601  31.888  78.160  1.00  0.00    -0.026 A
HETATM   10  C7  UNL     1      61.475  33.220  77.823  1.00  0.00     0.013 A
HETATM   11  C8  UNL     1      60.640  33.638  76.824  1.00  0.00     0.012 A
HETATM   12  C9  UNL     1      59.887  32.700  76.114  1.00  0.00    -0.036 A
HETATM   13  C26 UNL     1      59.982  31.388  76.414  1.00  0.00     0.012 A
HETATM   14  C27 UNL     1      60.845  30.991  77.442  1.00  0.00     0.013 A
BRANCH  12  15
HETATM   15  C10 UNL     1      59.012  33.173  75.061  1.00  0.00     0.012 C
HETATM   16  C11 UNL     1      58.674  32.404  74.058  1.00  0.00     0.012 C
BRANCH  16  17
HETATM   17  C12 UNL     1      57.797  32.905  73.018  1.00  0.00    -0.036 A
HETATM   18  C13 UNL     1      57.716  32.190  71.835  1.00  0.00     0.012 A
HETATM   19  C14 UNL     1      56.885  32.637  70.809  1.00  0.00     0.012 A
HETATM   20  C15 UNL     1      56.140  33.783  70.951  1.00  0.00    -0.036 A
HETATM   21  C24 UNL     1      56.221  34.501  72.143  1.00  0.00     0.012 A
HETATM   22  C25 UNL     1      57.047  34.042  73.141  1.00  0.00     0.012 A
BRANCH  20  23
HETATM   23  C16 UNL     1      55.277  34.234  69.867  1.00  0.00     0.012 C
HETATM   24  C17 UNL     1      55.566  35.255  69.114  1.00  0.00     0.012 C
BRANCH  24  25
HETATM   25  C18 UNL     1      54.671  35.665  68.045  1.00  0.00    -0.036 A
HETATM   26  C19 UNL     1      53.891  34.819  67.297  1.00  0.00     0.011 A
HETATM   27  C20 UNL     1      53.052  35.300  66.280  1.00  0.00     0.001 A
HETATM   28  C21 UNL     1      52.968  36.640  65.982  1.00  0.00     0.000 A
HETATM   29  C22 UNL     1      53.747  37.496  66.730  1.00  0.00     0.001 A
HETATM   30  C23 UNL     1      54.567  37.024  67.722  1.00  0.00     0.011 A
ENDBRANCH  24  25
ENDBRANCH  20  23
ENDBRANCH  16  17
ENDBRANCH  12  15
ENDBRANCH   6   9
TORSDOF 5
ENDMDL