MODEL 3
REMARK VINA RESULT: -9.743999877      1.458      5.118
REMARK  4 active torsions:
REMARK  status: ('A' for Active; 'I' for Inactive)
REMARK    1  A    between atoms: C4_4  and  C5_5
REMARK    2  A    between atoms: C5_5  and  N1_6
REMARK    3  A    between atoms: C14_15  and  C15_16
REMARK    4  A    between atoms: C21_22  and  C22_23
ROOT
HETATM    1  N1  UNL     1      57.600  30.530  76.171  1.00  0.00    -0.340 N
HETATM    2  C6  UNL     1      57.509  29.189  76.032  1.00  0.00     0.046 A
HETATM    3  C7  UNL     1      57.648  28.118  76.988  1.00  0.00    -0.009 A
HETATM    4  C8  UNL     1      57.169  26.848  76.613  1.00  0.00     0.014 A
HETATM    5  C9  UNL     1      57.286  25.740  77.412  1.00  0.00     0.001 A
HETATM    6  C10 UNL     1      57.884  25.821  78.628  1.00  0.00     0.000 A
HETATM    7  C11 UNL     1      58.361  27.024  79.034  1.00  0.00     0.001 A
HETATM    8  C12 UNL     1      58.238  28.156  78.210  1.00  0.00     0.014 A
HETATM    9  C13 UNL     1      57.163  28.984  74.676  1.00  0.00     0.045 A
HETATM   10  C14 UNL     1      57.057  30.171  74.037  1.00  0.00     0.004 A
HETATM   11  C21 UNL     1      57.333  31.144  74.972  1.00  0.00     0.056 A
ENDROOT
BRANCH   1  12
HETATM   12  C5  UNL     1      57.937  31.272  77.359  1.00  0.00     0.168 C
BRANCH  12  13
HETATM   13  C4  UNL     1      59.381  31.647  77.463  1.00  0.00    -0.040 A
HETATM   14  C3  UNL     1      60.407  30.744  77.463  1.00  0.00     0.009 A
HETATM   15  C2  UNL     1      61.750  31.085  77.604  1.00  0.00     0.001 A
HETATM   16  C1  UNL     1      62.058  32.417  77.752  1.00  0.00     0.000 A
HETATM   17  C29 UNL     1      61.068  33.389  77.760  1.00  0.00     0.001 A
HETATM   18  C28 UNL     1      59.777  32.987  77.618  1.00  0.00     0.009 A
ENDBRANCH  12  13
ENDBRANCH   1  12
BRANCH  11  19
HETATM   19  C22 UNL     1      57.367  32.577  74.685  1.00  0.00    -0.008 A
HETATM   20  C23 UNL     1      58.536  33.233  74.364  1.00  0.00     0.014 A
HETATM   21  C24 UNL     1      58.622  34.570  74.063  1.00  0.00     0.001 A
HETATM   22  C25 UNL     1      57.447  35.313  74.084  1.00  0.00     0.000 A
HETATM   23  C26 UNL     1      56.269  34.679  74.402  1.00  0.00     0.001 A
HETATM   24  C27 UNL     1      56.204  33.341  74.700  1.00  0.00     0.014 A
ENDBRANCH  11  19
BRANCH  10  25
HETATM   25  C15 UNL     1      56.720  30.437  72.636  1.00  0.00    -0.024 A
HETATM   26  C16 UNL     1      57.646  30.442  71.633  1.00  0.00     0.012 A
HETATM   27  C17 UNL     1      57.241  30.693  70.335  1.00  0.00     0.001 A
HETATM   28  C18 UNL     1      55.932  30.941  69.996  1.00  0.00     0.000 A
HETATM   29  C19 UNL     1      54.996  30.935  71.010  1.00  0.00     0.001 A
HETATM   30  C20 UNL     1      55.400  30.684  72.305  1.00  0.00     0.012 A
ENDBRANCH  10  25
TORSDOF 4
ENDMDL