MODEL 1
REMARK VINA RESULT: -12.225584106      0.000      0.000
REMARK  5 active torsions:
REMARK  status: ('A' for Active; 'I' for Inactive)
REMARK    1  A    between atoms: C2_2  and  C3_3
REMARK    2  A    between atoms: C2_2  and  C20_21
REMARK    3  A    between atoms: C5_5  and  O1_6
REMARK    4  A    between atoms: O1_6  and  C6_7
REMARK    5  A    between atoms: C6_7  and  C7_8
ROOT
HETATM    1  C3  UNL     1      57.427  30.498  75.066  1.00  0.00    -0.022 A
HETATM    2  C4  UNL     1      58.565  31.107  75.515  1.00  0.00     0.050 A
HETATM    3  C5  UNL     1      59.468  30.520  76.375  1.00  0.00     0.081 A
HETATM    4  C13 UNL     1      59.141  29.211  76.783  1.00  0.00     0.007 A
HETATM    5  C14 UNL     1      59.999  28.551  77.661  1.00  0.00     0.015 A
HETATM    6  C15 UNL     1      59.670  27.284  78.052  1.00  0.00     0.001 A
HETATM    7  C16 UNL     1      58.509  26.642  77.605  1.00  0.00     0.001 A
HETATM    8  C17 UNL     1      57.662  27.288  76.743  1.00  0.00     0.012 A
HETATM    9  C18 UNL     1      58.006  28.590  76.341  1.00  0.00    -0.022 A
HETATM   10  C19 UNL     1      57.114  29.197  75.475  1.00  0.00     0.024 A
ENDROOT
BRANCH   1  11
HETATM   11  C2  UNL     1      56.477  31.116  74.173  1.00  0.00    -0.024 C
HETATM   12  C1  UNL     1      55.457  31.744  74.744  1.00  0.00     0.025 C
BRANCH  11  13
HETATM   13  C20 UNL     1      56.596  31.137  72.731  1.00  0.00    -0.015 A
HETATM   14  C21 UNL     1      56.924  29.914  72.115  1.00  0.00     0.013 A
HETATM   15  C22 UNL     1      57.077  29.914  70.768  1.00  0.00     0.002 A
HETATM   16  C23 UNL     1      56.920  31.059  69.987  1.00  0.00     0.012 A
HETATM   17  C24 UNL     1      56.594  32.255  70.644  1.00  0.00    -0.025 A
HETATM   18  C25 UNL     1      56.430  33.375  69.849  1.00  0.00     0.012 A
HETATM   19  C29 UNL     1      56.431  32.297  72.002  1.00  0.00    -0.015 A
HETATM   20  C26 UNL     1      56.088  34.579  70.474  1.00  0.00     0.001 A
HETATM   21  C27 UNL     1      55.922  34.624  71.840  1.00  0.00     0.001 A
HETATM   22  C28 UNL     1      56.087  33.503  72.622  1.00  0.00     0.013 A
ENDBRANCH  11  13
ENDBRANCH   1  11
BRANCH   3  23
HETATM   23  O1  UNL     1      60.625  31.053  76.860  1.00  0.00    -0.346 OA
BRANCH  23  24
HETATM   24  C6  UNL     1      60.943  32.249  77.439  1.00  0.00     0.214 C
BRANCH  24  25
HETATM   25  C7  UNL     1      62.026  32.032  78.424  1.00  0.00    -0.034 A
HETATM   26  C8  UNL     1      63.061  32.883  78.619  1.00  0.00     0.009 A
HETATM   27  C9  UNL     1      63.999  32.580  79.580  1.00  0.00     0.001 A
HETATM   28  C10 UNL     1      63.910  31.418  80.358  1.00  0.00     0.000 A
HETATM   29  C11 UNL     1      62.862  30.548  80.166  1.00  0.00     0.001 A
HETATM   30  C12 UNL     1      61.929  30.887  79.184  1.00  0.00     0.009 A
ENDBRANCH  24  25
ENDBRANCH  23  24
ENDBRANCH   3  23
TORSDOF 5
ENDMDL