MODEL 3
REMARK VINA RESULT: -11.526806988      2.015      5.080
REMARK  4 active torsions:
REMARK  status: ('A' for Active; 'I' for Inactive)
REMARK    1  A    between atoms: C4_4  and  C5_5
REMARK    2  A    between atoms: C5_5  and  O1_6
REMARK    3  A    between atoms: O1_6  and  C6_7
REMARK    4  A    between atoms: C10_11  and  C11_12
ROOT
HETATM    1  C11 UNL     1      58.610  33.260  73.516  1.00  0.00    -0.014 A
HETATM    2  C12 UNL     1      59.501  34.342  73.440  1.00  0.00     0.025 A
HETATM    3  C13 UNL     1      60.264  34.721  74.523  1.00  0.00    -0.025 A
HETATM    4  C14 UNL     1      61.154  35.790  74.474  1.00  0.00     0.012 A
HETATM    5  C15 UNL     1      61.916  36.166  75.562  1.00  0.00     0.001 A
HETATM    6  C16 UNL     1      61.768  35.434  76.735  1.00  0.00     0.001 A
HETATM    7  C17 UNL     1      60.881  34.369  76.779  1.00  0.00     0.012 A
HETATM    8  C18 UNL     1      60.124  34.003  75.687  1.00  0.00    -0.025 A
HETATM    9  C19 UNL     1      59.252  32.935  75.781  1.00  0.00     0.025 A
HETATM   10  C20 UNL     1      58.473  32.546  74.678  1.00  0.00    -0.014 A
HETATM   11  C21 UNL     1      57.562  31.428  74.778  1.00  0.00    -0.025 A
HETATM   12  C22 UNL     1      56.207  31.588  74.630  1.00  0.00     0.012 A
HETATM   13  C23 UNL     1      55.328  30.504  74.732  1.00  0.00     0.001 A
HETATM   14  C24 UNL     1      55.833  29.264  74.985  1.00  0.00     0.000 A
HETATM   15  C25 UNL     1      57.192  29.059  75.141  1.00  0.00     0.001 A
HETATM   16  C26 UNL     1      58.036  30.161  75.032  1.00  0.00     0.012 A
ENDROOT
BRANCH   1  17
HETATM   17  C10 UNL     1      57.819  32.891  72.343  1.00  0.00    -0.022 A
HETATM   18  C9  UNL     1      57.962  31.666  71.734  1.00  0.00     0.012 A
HETATM   19  C8  UNL     1      57.180  31.391  70.635  1.00  0.00     0.004 A
HETATM   20  C7  UNL     1      56.273  32.299  70.141  1.00  0.00     0.037 A
HETATM   21  C6  UNL     1      56.106  33.535  70.729  1.00  0.00     0.070 A
HETATM   22  C27 UNL     1      56.891  33.799  71.823  1.00  0.00     0.049 A
BRANCH  21  23
HETATM   23  O1  UNL     1      55.185  34.451  70.224  1.00  0.00    -0.347 OA
BRANCH  23  24
HETATM   24  C5  UNL     1      54.478  34.116  69.052  1.00  0.00     0.214 C
BRANCH  24  25
HETATM   25  C4  UNL     1      54.278  35.239  68.140  1.00  0.00    -0.034 A
HETATM   26  C3  UNL     1      54.636  36.509  68.525  1.00  0.00     0.009 A
HETATM   27  C2  UNL     1      54.466  37.611  67.699  1.00  0.00     0.001 A
HETATM   28  C1  UNL     1      53.919  37.444  66.441  1.00  0.00     0.000 A
HETATM   29  C29 UNL     1      53.562  36.176  66.056  1.00  0.00     0.001 A
HETATM   30  C28 UNL     1      53.733  35.075  66.886  1.00  0.00     0.009 A
ENDBRANCH  24  25
ENDBRANCH  23  24
ENDBRANCH  21  23
ENDBRANCH   1  17
TORSDOF 4
ENDMDL