MODEL 5
REMARK VINA RESULT: -8.475211874      1.953      4.668
REMARK  9 active torsions:
REMARK  status: ('A' for Active; 'I' for Inactive)
REMARK    1  A    between atoms: O1_1  and  C1_3
REMARK    2  A    between atoms: C1_3  and  C2_4
REMARK    3  A    between atoms: C1_3  and  N6_30
REMARK    4  A    between atoms: C5_7  and  N1_8
REMARK    5  A    between atoms: N1_8  and  C6_10
REMARK    6  A    between atoms: C9_15  and  N3_16
REMARK    7  A    between atoms: N3_16  and  C10_18
REMARK    8  A    between atoms: C10_18  and  C11_19
REMARK    9  A    between atoms: N7_33  and  C20_34
ROOT
HETATM    1  C2  UNL     1      -3.515   5.345   9.112  1.00  0.00     0.015 A
HETATM    2  C3  UNL     1      -2.821   4.265   8.525  1.00  0.00     0.018 A
HETATM    3  C4  UNL     1      -2.225   3.279   9.259  1.00  0.00     0.031 A
HETATM    4  C5  UNL     1      -2.313   3.357  10.629  1.00  0.00     0.049 A
HETATM    5  C16 UNL     1      -2.975   4.384  11.258  1.00  0.00     0.031 A
HETATM    6  C17 UNL     1      -3.584   5.391  10.486  1.00  0.00     0.018 A
ENDROOT
BRANCH   4   7
HETATM    7  N1  UNL     1      -1.708   2.350  11.444  1.00  0.00    -0.192 N
ATOM      8  H1  UNL     1      -0.731   2.412  11.732  1.00  0.00     0.184 HD
BRANCH   7   9
HETATM    9  C6  UNL     1      -2.457   1.359  11.796  1.00  0.00     0.684 A
HETATM   10  N2  UNL     1      -2.631   0.253  11.055  1.00  0.00    -0.202 N
HETATM   11  C7  UNL     1      -3.413  -0.765  11.433  1.00  0.00     0.110 A
ATOM     12  H2  UNL     1      -2.142   0.185  10.163  1.00  0.00     0.183 HD
HETATM   13  C8  UNL     1      -4.080  -0.674  12.649  1.00  0.00     0.066 A
HETATM   14  C9  UNL     1      -3.912   0.452  13.418  1.00  0.00     0.118 A
HETATM   15  N5  UNL     1      -3.106   1.438  12.970  1.00  0.00    -0.177 N
ATOM     16  H5  UNL     1      -2.984   2.272  13.544  1.00  0.00     0.186 HD
BRANCH  14  17
HETATM   17  N3  UNL     1      -4.526   0.566  14.562  1.00  0.00    -0.372 N
ATOM     18  H3  UNL     1      -5.427   0.104  14.685  1.00  0.00     0.161 HD
BRANCH  17  19
HETATM   19  C10 UNL     1      -3.977   1.322  15.660  1.00  0.00     0.160 C
BRANCH  19  20
HETATM   20  C11 UNL     1      -4.933   2.311  16.212  1.00  0.00    -0.038 A
HETATM   21  C12 UNL     1      -5.189   3.480  15.523  1.00  0.00     0.025 A
HETATM   22  C13 UNL     1      -6.079   4.419  16.021  1.00  0.00     0.088 A
HETATM   23  N4  UNL     1      -6.721   4.231  17.187  1.00  0.00    -0.375 N
HETATM   24  C14 UNL     1      -6.479   3.084  17.876  1.00  0.00     0.088 A
ATOM     25  H4  UNL     1      -7.373   4.929  17.544  1.00  0.00     0.164 HD
HETATM   26  C15 UNL     1      -5.604   2.142  17.403  1.00  0.00     0.025 A
ENDBRANCH  19  20
ENDBRANCH  17  19
ENDBRANCH  14  17
ENDBRANCH   7   9
ENDBRANCH   4   7
BRANCH   1  27
HETATM   27  C1  UNL     1      -4.103   6.325   8.254  1.00  0.00     0.148 C
BRANCH  27  28
HETATM   28  O1  UNL     1      -3.229   7.023   7.571  1.00  0.00    -0.346 OA
ATOM     29  H1  UNL     1      -3.325   7.962   7.672  1.00  0.00     0.219 HD
ENDBRANCH  27  28
BRANCH  27  30
HETATM   30  N6  UNL     1      -5.432   6.674   8.010  1.00  0.00    -0.358 N
HETATM   31  C18 UNL     1      -6.533   6.823   8.890  1.00  0.00     0.145 C
HETATM   32  C19 UNL     1      -7.817   7.260   8.180  1.00  0.00     0.144 C
HETATM   33  N7  UNL     1      -7.580   8.300   7.231  1.00  0.00    -0.364 N
HETATM   34  C25 UNL     1      -6.277   8.392   6.610  1.00  0.00     0.144 C
HETATM   35  C26 UNL     1      -5.772   6.942   6.578  1.00  0.00     0.145 C
BRANCH  33  36
HETATM   36  C20 UNL     1      -8.570   9.241   6.870  1.00  0.00     0.102 A
HETATM   37  C21 UNL     1      -9.631   9.547   7.711  1.00  0.00     0.048 A
HETATM   38  C22 UNL     1     -10.590  10.465   7.354  1.00  0.00     0.005 A
HETATM   39  C23 UNL     1     -10.453  11.072   6.125  1.00  0.00     0.017 A
HETATM   40  C24 UNL     1      -9.411  10.789   5.268  1.00  0.00     0.089 A
HETATM   41  N8  UNL     1      -8.505   9.884   5.669  1.00  0.00    -0.352 N
ATOM     42  H8  UNL     1      -7.728   9.665   5.045  1.00  0.00     0.166 HD
ENDBRANCH  33  36
ENDBRANCH  27  30
ENDBRANCH   1  27
TORSDOF 9
ENDMDL