MODEL 4
REMARK VINA RESULT: -7.919746847      3.024      5.828
REMARK  9 active torsions:
REMARK  status: ('A' for Active; 'I' for Inactive)
REMARK    1  A    between atoms: C3_3  and  C4_4
REMARK    2  A    between atoms: C4_4  and  C5_5
REMARK    3  A    between atoms: C10_10  and  C11_11
REMARK    4  A    between atoms: C11_11  and  N1_12
REMARK    5  A    between atoms: C11_11  and  O1_15
REMARK    6  A    between atoms: O1_15  and  C13_16
REMARK    7  A    between atoms: C13_16  and  C14_17
REMARK    8  A    between atoms: N3_26  and  C20_27
REMARK    9  A    between atoms: C23_30  and  N4_31
REMARK       I    between atoms: N4_31  and  C24_33
ROOT
HETATM    1  C1  UNL     1      -2.805  11.344  11.737  1.00  0.00     0.112 C
HETATM    2  C2  UNL     1      -2.999   9.910  11.575  1.00  0.00    -0.106 C
HETATM    3  C3  UNL     1      -3.185   8.712  11.437  1.00  0.00    -0.077 C
ENDROOT
BRANCH   3   4
HETATM    4  C4  UNL     1      -3.345   7.328  11.306  1.00  0.00     0.095 C
BRANCH   4   5
HETATM    5  C5  UNL     1      -3.745   6.410  12.130  1.00  0.00     0.057 A
HETATM    6  C6  UNL     1      -5.050   6.266  12.578  1.00  0.00    -0.027 A
HETATM    7  C7  UNL     1      -6.169   7.031  11.977  1.00  0.00     0.051 C
HETATM    8  C8  UNL     1      -5.440   5.319  13.542  1.00  0.00    -0.034 A
HETATM    9  C9  UNL     1      -6.809   5.285  14.043  1.00  0.00     0.050 C
HETATM   10  C10 UNL     1      -4.490   4.485  14.063  1.00  0.00     0.089 A
HETATM   11  C19 UNL     1      -3.191   4.667  13.577  1.00  0.00     0.268 A
HETATM   12  O2  UNL     1      -2.264   3.914  14.031  1.00  0.00    -0.267 OA
HETATM   13  N3  UNL     1      -2.820   5.551  12.682  1.00  0.00    -0.277 N
BRANCH  10  14
HETATM   14  C11 UNL     1      -4.708   3.532  14.900  1.00  0.00     0.154 C
BRANCH  14  15
HETATM   15  N1  UNL     1      -4.511   3.416  16.275  1.00  0.00    -0.374 N
HETATM   16  C12 UNL     1      -5.557   2.970  17.207  1.00  0.00     0.148 C
ATOM     17  H1  UNL     1      -3.594   3.653  16.654  1.00  0.00     0.161 HD
ENDBRANCH  14  15
BRANCH  14  18
HETATM   18  O1  UNL     1      -5.263   2.309  14.384  1.00  0.00    -0.331 OA
BRANCH  18  19
HETATM   19  C13 UNL     1      -4.314   1.281  14.173  1.00  0.00     0.217 C
BRANCH  19  20
HETATM   20  C14 UNL     1      -4.305   0.791  12.788  1.00  0.00    -0.019 A
HETATM   21  C15 UNL     1      -3.835  -0.469  12.467  1.00  0.00     0.012 A
HETATM   22  C16 UNL     1      -3.828  -0.927  11.153  1.00  0.00     0.018 A
HETATM   23  C17 UNL     1      -4.299  -0.114  10.140  1.00  0.00     0.087 A
HETATM   24  N2  UNL     1      -4.754   1.113  10.462  1.00  0.00    -0.375 N
HETATM   25  C18 UNL     1      -4.764   1.566  11.742  1.00  0.00     0.096 A
ATOM     26  H2  UNL     1      -5.104   1.720   9.721  1.00  0.00     0.164 HD
ENDBRANCH  19  20
ENDBRANCH  18  19
ENDBRANCH  14  18
ENDBRANCH  10  14
BRANCH  13  27
HETATM   27  C20 UNL     1      -1.480   5.666  12.244  1.00  0.00     0.043 A
HETATM   28  C21 UNL     1      -0.621   6.559  12.859  1.00  0.00     0.032 A
HETATM   29  C22 UNL     1       0.689   6.699  12.478  1.00  0.00     0.032 A
HETATM   30  C23 UNL     1       1.227   5.932  11.431  1.00  0.00     0.034 A
HETATM   31  C26 UNL     1       0.388   5.047  10.817  1.00  0.00     0.032 A
HETATM   32  C27 UNL     1      -0.950   4.920  11.223  1.00  0.00     0.032 A
BRANCH  30  33
HETATM   33  N4  UNL     1       2.564   6.102  11.053  1.00  0.00    -0.328 N
HETATM   34  C24 UNL     1       3.673   5.550  11.667  1.00  0.00     0.218 C
HETATM   35  C25 UNL     1       5.039   5.875  11.070  1.00  0.00     0.117 C
HETATM   36  O3  UNL     1       3.756   4.803  12.665  1.00  0.00    -0.274 OA
ATOM     37  H4  UNL     1       2.738   6.695  10.240  1.00  0.00     0.169 HD
ENDBRANCH  30  33
ENDBRANCH  13  27
ENDBRANCH   4   5
ENDBRANCH   3   4
TORSDOF 9
ENDMDL