MODEL 3
REMARK VINA RESULT: -9.123701070      2.670      9.278
REMARK  6 active torsions:
REMARK  status: ('A' for Active; 'I' for Inactive)
REMARK       I    between atoms: C1_2  and  N1_3
REMARK    1  A    between atoms: C1_2  and  C8_14
REMARK    2  A    between atoms: N1_3  and  C2_5
REMARK    3  A    between atoms: C2_5  and  C3_6
REMARK    4  A    between atoms: C3_6  and  C4_7
REMARK    5  A    between atoms: C4_7  and  N2_8
REMARK    6  A    between atoms: N6_29  and  O3_30
ROOT
HETATM    1  C8  UNL     1      -4.064   1.130  14.390  1.00  0.00     0.175 A
HETATM    2  N4  UNL     1      -4.338   0.215  13.451  1.00  0.00    -0.336 N
ATOM      3  H4  UNL     1      -4.933  -0.607  13.558  1.00  0.00     0.168 HD
HETATM    4  C9  UNL     1      -3.684   0.583  12.348  1.00  0.00     0.061 A
HETATM    5  C10 UNL     1      -3.615   0.010  11.107  1.00  0.00     0.032 A
HETATM    6  C11 UNL     1      -2.856   0.606  10.140  1.00  0.00     0.011 A
HETATM    7  C12 UNL     1      -2.140   1.802  10.390  1.00  0.00    -0.037 A
HETATM    8  C13 UNL     1      -2.216   2.365  11.630  1.00  0.00     0.051 A
HETATM    9  C14 UNL     1      -2.994   1.753  12.622  1.00  0.00     0.075 A
HETATM   10  N5  UNL     1      -3.233   2.090  13.893  1.00  0.00    -0.335 N
ATOM     11  H5  UNL     1      -2.868   2.902  14.392  1.00  0.00     0.168 HD
HETATM   12  C15 UNL     1      -1.511   3.604  11.928  1.00  0.00     0.197 A
HETATM   13  O2  UNL     1      -1.524   4.179  13.020  1.00  0.00    -0.286 OA
HETATM   14  C16 UNL     1      -0.727   4.211  10.847  1.00  0.00     0.040 A
HETATM   15  C17 UNL     1      -0.045   5.398  11.050  1.00  0.00     0.139 A
HETATM   16  N6  UNL     1       0.676   6.015  10.098  1.00  0.00    -0.234 N
HETATM   17  C18 UNL     1       0.734   5.440   8.879  1.00  0.00     0.072 A
HETATM   18  C19 UNL     1       1.462   6.029   7.842  1.00  0.00     0.033 A
HETATM   19  C20 UNL     1       1.539   5.468   6.585  1.00  0.00     0.002 A
HETATM   20  C21 UNL     1       0.861   4.285   6.379  1.00  0.00     0.001 A
HETATM   21  C22 UNL     1       0.123   3.658   7.372  1.00  0.00     0.014 A
HETATM   22  C23 UNL     1       0.083   4.263   8.607  1.00  0.00     0.001 A
HETATM   23  C24 UNL     1      -0.675   3.619   9.617  1.00  0.00    -0.026 A
HETATM   24  C25 UNL     1      -1.337   2.375   9.321  1.00  0.00     0.080 A
ENDROOT
BRANCH   1  25
HETATM   25  C1  UNL     1      -4.556   1.153  15.770  1.00  0.00     0.285 C
HETATM   26  O1  UNL     1      -3.775   0.869  16.694  1.00  0.00    -0.264 OA
HETATM   27  N1  UNL     1      -5.897   1.489  16.077  1.00  0.00    -0.354 N
ATOM     28  H1  UNL     1      -6.546   1.723  15.325  1.00  0.00     0.162 HD
BRANCH  27  29
HETATM   29  C2  UNL     1      -6.356   1.502  17.461  1.00  0.00     0.124 C
BRANCH  29  30
HETATM   30  C3  UNL     1      -6.210   2.883  18.064  1.00  0.00     0.040 C
BRANCH  30  31
HETATM   31  C4  UNL     1      -6.860   3.931  17.217  1.00  0.00     0.130 C
BRANCH  31  32
HETATM   32  N2  UNL     1      -6.010   4.436  16.156  1.00  0.00    -0.352 N
HETATM   33  C5  UNL     1      -6.380   4.681  14.903  1.00  0.00     0.108 A
HETATM   34  C6  UNL     1      -5.289   5.149  14.209  1.00  0.00     0.106 A
HETATM   35  N3  UNL     1      -4.279   5.171  15.080  1.00  0.00    -0.361 N
HETATM   36  C7  UNL     1      -4.717   4.735  16.275  1.00  0.00     0.182 A
ATOM     37  H3  UNL     1      -3.327   5.471  14.873  1.00  0.00     0.166 HD
ENDBRANCH  31  32
ENDBRANCH  30  31
ENDBRANCH  29  30
ENDBRANCH  27  29
ENDBRANCH   1  25
BRANCH  16  38
HETATM   38  O3  UNL     1       1.354   7.193  10.296  1.00  0.00    -0.283 OA
ATOM     39  H3  UNL     1       0.949   8.051  10.244  1.00  0.00     0.245 HD
ENDBRANCH  16  38
TORSDOF 6
ENDMDL