MODEL 4
REMARK VINA RESULT: -9.309677309      5.505      8.583
REMARK  6 active torsions:
REMARK  status: ('A' for Active; 'I' for Inactive)
REMARK    1  A    between atoms: C2_2  and  N1_3
REMARK    2  A    between atoms: N4_12  and  C6_13
REMARK    3  A    between atoms: C6_13  and  C7_14
REMARK    4  A    between atoms: C10_17  and  C11_18
REMARK       I    between atoms: C11_18  and  N5_20
REMARK    5  A    between atoms: N5_20  and  C12_22
REMARK    6  A    between atoms: C16_26  and  C17_27
ROOT
HETATM    1  C7  UNL     1      -4.118   6.003  13.478  1.00  0.00    -0.038 A
HETATM    2  C8  UNL     1      -3.643   6.852  12.533  1.00  0.00     0.010 A
HETATM    3  C9  UNL     1      -2.618   7.776  12.758  1.00  0.00     0.017 A
HETATM    4  C10 UNL     1      -2.033   7.856  13.999  1.00  0.00     0.032 A
HETATM    5  C22 UNL     1      -2.502   7.000  14.972  1.00  0.00     0.017 A
HETATM    6  C23 UNL     1      -3.512   6.094  14.741  1.00  0.00     0.010 A
ENDROOT
BRANCH   4   7
HETATM    7  C11 UNL     1      -0.958   8.812  14.266  1.00  0.00     0.257 C
HETATM    8  O2  UNL     1      -0.789   9.252  15.422  1.00  0.00    -0.267 OA
HETATM    9  N5  UNL     1      -0.115   9.232  13.211  1.00  0.00    -0.309 N
ATOM     10  H5  UNL     1      -0.459   9.876  12.499  1.00  0.00     0.170 HD
BRANCH   9  11
HETATM   11  C12 UNL     1       1.099   8.787  13.160  1.00  0.00     0.108 A
HETATM   12  C13 UNL     1       1.398   7.724  12.331  1.00  0.00     0.049 A
HETATM   13  C14 UNL     1       2.686   7.236  12.261  1.00  0.00     0.018 A
HETATM   14  C15 UNL     1       3.689   7.798  13.016  1.00  0.00     0.004 A
HETATM   15  C16 UNL     1       4.989   7.352  12.985  1.00  0.00     0.014 A
HETATM   16  C21 UNL     1       3.375   8.879  13.856  1.00  0.00     0.044 A
HETATM   17  C18 UNL     1       5.955   7.993  13.793  1.00  0.00     0.015 A
HETATM   18  C19 UNL     1       5.655   9.037  14.606  1.00  0.00     0.003 A
HETATM   19  C20 UNL     1       4.353   9.470  14.626  1.00  0.00     0.030 A
HETATM   20  N6  UNL     1       2.102   9.304  13.875  1.00  0.00    -0.342 N
ATOM     21  H6  UNL     1       1.881  10.090  14.487  1.00  0.00     0.167 HD
BRANCH  15  22
HETATM   22  C17 UNL     1       5.410   6.244  12.158  1.00  0.00     0.271 C
HETATM   23  O3  UNL     1       5.239   5.032  12.293  1.00  0.00    -0.301 OA
ENDBRANCH  15  22
ENDBRANCH   9  11
ENDBRANCH   4   7
BRANCH   1  24
HETATM   24  C6  UNL     1      -5.184   5.017  13.280  1.00  0.00     0.188 C
BRANCH  24  25
HETATM   25  N4  UNL     1      -4.732   3.675  13.596  1.00  0.00    -0.281 N
HETATM   26  N3  UNL     1      -3.859   2.977  12.841  1.00  0.00    -0.307 N
HETATM   27  C5  UNL     1      -3.653   1.762  13.340  1.00  0.00     0.139 A
ATOM     28  H3  UNL     1      -3.415   3.335  11.995  1.00  0.00     0.186 HD
HETATM   29  C4  UNL     1      -4.418   1.635  14.479  1.00  0.00     0.087 A
HETATM   30  N2  UNL     1      -4.557   0.619  15.345  1.00  0.00    -0.305 N
HETATM   31  C24 UNL     1      -5.072   2.853  14.599  1.00  0.00     0.147 A
HETATM   32  C3  UNL     1      -5.382   0.805  16.385  1.00  0.00     0.330 A
ATOM     33  H2  UNL     1      -4.055  -0.260  15.217  1.00  0.00     0.171 HD
HETATM   34  N1  UNL     1      -6.036   1.966  16.544  1.00  0.00    -0.265 N
HETATM   35  O1  UNL     1      -5.539  -0.121  17.215  1.00  0.00    -0.246 OA
HETATM   36  C25 UNL     1      -5.906   3.010  15.675  1.00  0.00     0.282 A
HETATM   37  O4  UNL     1      -6.528   4.070  15.860  1.00  0.00    -0.265 OA
BRANCH  34  38
HETATM   38  C2  UNL     1      -6.916   2.124  17.681  1.00  0.00     0.133 C
HETATM   39  C1  UNL     1      -6.171   2.635  18.903  1.00  0.00     0.027 C
ENDBRANCH  34  38
ENDBRANCH  24  25
ENDBRANCH   1  24
TORSDOF 6
ENDMDL