MODEL 4
REMARK VINA RESULT: -9.072909039      3.717      7.348
REMARK  6 active torsions:
REMARK  status: ('A' for Active; 'I' for Inactive)
REMARK       I    between atoms: C1_2  and  N1_3
REMARK    1  A    between atoms: C1_2  and  C4_9
REMARK    2  A    between atoms: N1_3  and  C2_5
REMARK    3  A    between atoms: C2_5  and  C3_6
REMARK    4  A    between atoms: C3_6  and  O2_7
REMARK    5  A    between atoms: C6_16  and  C7_17
REMARK    6  A    between atoms: N5_23  and  O3_24
ROOT
HETATM    1  C4  UNL     1      -3.563   3.756  14.385  1.00  0.00     0.130 A
HETATM    2  N2  UNL     1      -3.495   4.986  15.050  1.00  0.00    -0.181 N
ATOM      3  H2  UNL     1      -3.998   5.100  15.930  1.00  0.00     0.184 HD
HETATM    4  C5  UNL     1      -2.796   6.009  14.573  1.00  0.00     0.733 A
HETATM    5  N3  UNL     1      -2.101   5.971  13.427  1.00  0.00    -0.081 N
HETATM    6  N4  UNL     1      -1.491   7.089  13.259  1.00  0.00    -0.261 N
ATOM      7  H4  UNL     1      -0.891   7.318  12.467  1.00  0.00     0.190 HD
HETATM    8  C6  UNL     1      -1.766   7.915  14.292  1.00  0.00     0.177 A
HETATM    9  N5  UNL     1      -2.575   7.252  15.108  1.00  0.00    -0.031 N
HETATM   10  C13 UNL     1      -2.126   4.844  12.739  1.00  0.00     0.101 A
HETATM   11  C14 UNL     1      -2.885   3.716  13.235  1.00  0.00     0.040 A
HETATM   12  C15 UNL     1      -3.071   2.490  12.503  1.00  0.00     0.006 A
HETATM   13  C16 UNL     1      -4.358   2.053  12.619  1.00  0.00     0.014 A
HETATM   14  C17 UNL     1      -4.645   0.839  12.031  1.00  0.00     0.001 A
HETATM   15  C18 UNL     1      -3.639   0.117  11.355  1.00  0.00     0.002 A
HETATM   16  C19 UNL     1      -2.362   0.615  11.267  1.00  0.00     0.030 A
HETATM   17  C20 UNL     1      -2.059   1.809  11.834  1.00  0.00     0.043 A
HETATM   18  N6  UNL     1      -0.753   2.318  11.475  1.00  0.00    -0.355 N
ATOM     19  H6  UNL     1       0.042   1.680  11.453  1.00  0.00     0.166 HD
HETATM   20  C21 UNL     1      -0.551   3.711  11.147  1.00  0.00     0.045 A
HETATM   21  C22 UNL     1       0.366   3.894  10.145  1.00  0.00     0.030 A
HETATM   22  C23 UNL     1       0.573   5.142   9.602  1.00  0.00     0.002 A
HETATM   23  C24 UNL     1      -0.163   6.240  10.079  1.00  0.00     0.001 A
HETATM   24  C25 UNL     1      -1.104   6.092  11.101  1.00  0.00     0.016 A
HETATM   25  C26 UNL     1      -1.250   4.839  11.592  1.00  0.00     0.021 A
ENDROOT
BRANCH   1  26
HETATM   26  C1  UNL     1      -4.131   2.658  15.079  1.00  0.00     0.269 C
HETATM   27  O1  UNL     1      -3.705   1.543  15.379  1.00  0.00    -0.266 OA
HETATM   28  N1  UNL     1      -5.485   2.841  15.557  1.00  0.00    -0.354 N
ATOM     29  H1  UNL     1      -5.948   3.730  15.368  1.00  0.00     0.162 HD
BRANCH  28  30
HETATM   30  C2  UNL     1      -6.214   1.830  16.287  1.00  0.00     0.149 C
BRANCH  30  31
HETATM   31  C3  UNL     1      -5.855   1.924  17.748  1.00  0.00     0.183 C
BRANCH  31  32
HETATM   32  O2  UNL     1      -5.205   0.746  18.125  1.00  0.00    -0.399 OA
ATOM     33  H2  UNL     1      -4.931   0.827  19.031  1.00  0.00     0.209 HD
ENDBRANCH  31  32
ENDBRANCH  30  31
ENDBRANCH  28  30
ENDBRANCH   1  26
BRANCH   9  34
HETATM   34  O3  UNL     1      -3.154   7.646  16.315  1.00  0.00    -0.268 OA
ATOM     35  H3  UNL     1      -2.833   8.395  16.803  1.00  0.00     0.246 HD
ENDBRANCH   9  34
BRANCH   8  36
HETATM   36  C7  UNL     1      -1.252   9.280  14.452  1.00  0.00     0.012 A
HETATM   37  C8  UNL     1      -1.725  10.305  13.650  1.00  0.00     0.015 A
HETATM   38  C9  UNL     1      -1.284  11.588  13.760  1.00  0.00     0.001 A
HETATM   39  C10 UNL     1      -0.332  11.926  14.689  1.00  0.00     0.000 A
HETATM   40  C11 UNL     1       0.150  10.923  15.495  1.00  0.00     0.001 A
HETATM   41  C12 UNL     1      -0.308   9.608  15.376  1.00  0.00     0.015 A
ENDBRANCH   8  36
TORSDOF 6
ENDMDL