MODEL 3
REMARK VINA RESULT: -9.548369792      5.595      8.806
REMARK  6 active torsions:
REMARK  status: ('A' for Active; 'I' for Inactive)
REMARK    1  A    between atoms: C6_6  and  N1_7
REMARK    2  A    between atoms: N1_7  and  C7_9
REMARK    3  A    between atoms: C12_18  and  C13_19
REMARK    4  A    between atoms: N4_21  and  C15_22
REMARK    5  A    between atoms: C15_22  and  C16_23
REMARK       I    between atoms: C16_23  and  N5_25
REMARK    6  A    between atoms: C22_35  and  C23_36
ROOT
HETATM    1  C1  UNL     1      -6.296   2.724  19.479  1.00  0.00     0.018 C
HETATM    2  C2  UNL     1      -6.000   2.719  18.297  1.00  0.00    -0.077 C
HETATM    3  C3  UNL     1      -5.663   2.691  16.901  1.00  0.00     0.023 A
HETATM    4  C4  UNL     1      -5.026   1.574  16.402  1.00  0.00     0.023 A
HETATM    5  C5  UNL     1      -4.703   1.546  15.061  1.00  0.00     0.031 A
HETATM    6  C6  UNL     1      -5.014   2.625  14.228  1.00  0.00     0.041 A
HETATM    7  C22 UNL     1      -5.651   3.745  14.718  1.00  0.00    -0.011 A
HETATM    8  C25 UNL     1      -5.968   3.760  16.060  1.00  0.00    -0.034 A
HETATM    9  C26 UNL     1      -6.657   4.965  16.603  1.00  0.00     0.050 C
ENDROOT
BRANCH   7  10
HETATM   10  C23 UNL     1      -5.985   4.905  13.825  1.00  0.00     0.165 C
HETATM   11  C24 UNL     1      -4.825   5.788  13.672  1.00  0.00     0.063 C
HETATM   12  N7  UNL     1      -3.902   6.501  13.532  1.00  0.00    -0.197 NA
ENDBRANCH   7  10
BRANCH   6  13
HETATM   13  N1  UNL     1      -4.658   2.510  12.883  1.00  0.00    -0.341 N
ATOM     14  H1  UNL     1      -5.166   3.120  12.242  1.00  0.00     0.167 HD
BRANCH  13  15
HETATM   15  C7  UNL     1      -3.793   1.755  12.346  1.00  0.00     0.119 A
HETATM   16  N2  UNL     1      -3.934   0.448  12.122  1.00  0.00    -0.332 N
HETATM   17  C8  UNL     1      -2.943  -0.234  11.546  1.00  0.00     0.079 A
ATOM     18  H2  UNL     1      -4.796  -0.028  12.389  1.00  0.00     0.168 HD
HETATM   19  C9  UNL     1      -3.139  -1.691  11.313  1.00  0.00     0.089 C
HETATM   20  N3  UNL     1      -1.772   0.350  11.169  1.00  0.00    -0.345 N
HETATM   21  C10 UNL     1      -1.584   1.653  11.373  1.00  0.00     0.048 A
ATOM     22  H3  UNL     1      -1.039  -0.209  10.732  1.00  0.00     0.167 HD
HETATM   23  C11 UNL     1      -0.410   2.307  11.010  1.00  0.00     0.043 A
HETATM   24  C21 UNL     1      -2.596   2.378  11.967  1.00  0.00     0.035 A
HETATM   25  C12 UNL     1      -0.261   3.664  11.242  1.00  0.00    -0.017 A
HETATM   26  C19 UNL     1      -1.266   4.400  11.836  1.00  0.00     0.013 A
HETATM   27  C20 UNL     1      -2.420   3.739  12.189  1.00  0.00     0.018 A
BRANCH  25  28
HETATM   28  C13 UNL     1       0.952   4.352  10.866  1.00  0.00     0.061 A
HETATM   29  C14 UNL     1       1.736   5.207  11.606  1.00  0.00     0.128 A
HETATM   30  N4  UNL     1       2.754   5.595  10.833  1.00  0.00    -0.291 N
HETATM   31  N6  UNL     1       2.650   5.031   9.651  1.00  0.00    -0.264 N
HETATM   32  C18 UNL     1       1.566   4.265   9.630  1.00  0.00     0.272 A
ATOM     33  H6  UNL     1       3.298   5.161   8.874  1.00  0.00     0.190 HD
HETATM   34  O2  UNL     1       1.190   3.589   8.636  1.00  0.00    -0.266 OA
BRANCH  30  35
HETATM   35  C15 UNL     1       3.810   6.494  11.230  1.00  0.00     0.250 C
BRANCH  35  36
HETATM   36  C16 UNL     1       5.026   5.791  11.656  1.00  0.00     0.236 C
HETATM   37  O1  UNL     1       4.954   4.956  12.590  1.00  0.00    -0.272 OA
HETATM   38  N5  UNL     1       6.251   6.079  10.998  1.00  0.00    -0.364 N
HETATM   39  C17 UNL     1       7.470   5.387  11.412  1.00  0.00     0.149 C
ATOM     40  H5  UNL     1       6.280   6.763  10.243  1.00  0.00     0.161 HD
ENDBRANCH  35  36
ENDBRANCH  30  35
ENDBRANCH  25  28
ENDBRANCH  13  15
ENDBRANCH   6  13
TORSDOF 6
ENDMDL