MODEL 3
REMARK VINA RESULT: -8.990784931      2.391      5.321
REMARK  6 active torsions:
REMARK  status: ('A' for Active; 'I' for Inactive)
REMARK    1  A    between atoms: C4_9  and  C5_10
REMARK    2  A    between atoms: C5_10  and  C6_11
REMARK    3  A    between atoms: C5_10  and  C12_17
REMARK    4  A    between atoms: N3_20  and  C14_21
REMARK    5  A    between atoms: C14_21  and  C15_22
REMARK    6  A    between atoms: N4_35  and  O5_36
ROOT
HETATM    1  C12 UNL     1      -3.764   4.803  12.582  1.00  0.00     0.143 C
HETATM    2  C13 UNL     1      -4.149   5.383  11.359  1.00  0.00     0.281 C
HETATM    3  O2  UNL     1      -5.125   4.784  10.807  1.00  0.00    -0.265 OA
HETATM    4  N3  UNL     1      -3.710   6.429  10.654  1.00  0.00    -0.272 N
HETATM    5  C19 UNL     1      -3.067   7.488  11.171  1.00  0.00     0.263 C
HETATM    6  O4  UNL     1      -2.898   8.429  10.373  1.00  0.00    -0.267 OA
HETATM    7  C20 UNL     1      -2.568   7.673  12.465  1.00  0.00     0.061 A
HETATM    8  C21 UNL     1      -2.116   8.962  12.615  1.00  0.00     0.019 A
HETATM    9  C22 UNL     1      -1.584   9.302  13.852  1.00  0.00     0.001 A
HETATM   10  C23 UNL     1      -1.504   8.401  14.891  1.00  0.00     0.002 A
HETATM   11  C24 UNL     1      -1.977   7.123  14.669  1.00  0.00     0.033 A
HETATM   12  C25 UNL     1      -2.514   6.732  13.465  1.00  0.00     0.079 A
HETATM   13  N4  UNL     1      -2.928   5.441  13.418  1.00  0.00    -0.218 N
ENDROOT
BRANCH   1  14
HETATM   14  C5  UNL     1      -4.330   3.489  12.887  1.00  0.00     0.027 C
BRANCH  14  15
HETATM   15  C4  UNL     1      -4.870   3.369  14.255  1.00  0.00     0.070 A
HETATM   16  C2  UNL     1      -5.986   3.973  14.744  1.00  0.00     0.038 A
HETATM   17  C1  UNL     1      -6.953   4.898  14.088  1.00  0.00     0.071 C
HETATM   18  N1  UNL     1      -6.115   3.588  16.031  1.00  0.00    -0.301 N
HETATM   19  N2  UNL     1      -5.109   2.766  16.345  1.00  0.00    -0.266 N
ATOM     20  H1  UNL     1      -6.861   3.878  16.662  1.00  0.00     0.186 HD
HETATM   21  C3  UNL     1      -4.325   2.614  15.263  1.00  0.00     0.273 A
ATOM     22  H2  UNL     1      -4.961   2.328  17.254  1.00  0.00     0.190 HD
HETATM   23  O1  UNL     1      -3.285   1.888  15.252  1.00  0.00    -0.266 OA
ENDBRANCH  14  15
BRANCH  14  24
HETATM   24  C6  UNL     1      -3.638   2.299  12.406  1.00  0.00    -0.022 A
HETATM   25  C7  UNL     1      -2.313   2.360  11.981  1.00  0.00     0.012 A
HETATM   26  C8  UNL     1      -1.641   1.261  11.491  1.00  0.00     0.001 A
HETATM   27  C9  UNL     1      -2.280   0.033  11.407  1.00  0.00     0.000 A
HETATM   28  C10 UNL     1      -3.584  -0.070  11.815  1.00  0.00     0.001 A
HETATM   29  C11 UNL     1      -4.219   1.028  12.292  1.00  0.00     0.012 A
ENDBRANCH  14  24
ENDBRANCH   1  14
BRANCH  13  30
HETATM   30  O5  UNL     1      -2.381   4.694  14.405  1.00  0.00    -0.282 OA
ATOM     31  H5  UNL     1      -1.688   4.098  14.148  1.00  0.00     0.245 HD
ENDBRANCH  13  30
BRANCH   4  32
HETATM   32  C14 UNL     1      -3.933   6.409   9.237  1.00  0.00     0.200 C
BRANCH  32  33
HETATM   33  C15 UNL     1      -5.301   6.604   8.789  1.00  0.00     0.070 A
HETATM   34  C16 UNL     1      -6.168   7.595   9.146  1.00  0.00     0.036 A
HETATM   35  C17 UNL     1      -7.346   7.371   8.472  1.00  0.00     0.027 A
HETATM   36  C18 UNL     1      -7.154   6.247   7.727  1.00  0.00     0.142 A
HETATM   37  O3  UNL     1      -5.944   5.828   7.939  1.00  0.00    -0.325 OA
ENDBRANCH  32  33
ENDBRANCH   4  32
TORSDOF 6
ENDMDL