MODEL 3
REMARK VINA RESULT: -9.542094302      1.292      1.555
REMARK  6 active torsions:
REMARK  status: ('A' for Active; 'I' for Inactive)
REMARK       I    between atoms: C2_2  and  N1_4
REMARK    1  A    between atoms: N1_4  and  C3_6
REMARK    2  A    between atoms: N3_15  and  C9_16
REMARK    3  A    between atoms: C9_16  and  C10_17
REMARK       I    between atoms: C10_17  and  N4_19
REMARK    4  A    between atoms: N4_19  and  C11_21
REMARK    5  A    between atoms: C14_24  and  N5_25
REMARK    6  A    between atoms: C19_30  and  C20_31
ROOT
HETATM    1  C3  UNL     1      -4.321   1.454  12.398  1.00  0.00     0.687 A
HETATM    2  N2  UNL     1      -3.579   2.491  12.011  1.00  0.00    -0.175 N
ATOM      3  H2  UNL     1      -3.220   2.508  11.056  1.00  0.00     0.186 HD
HETATM    4  C4  UNL     1      -3.278   3.536  12.844  1.00  0.00     0.139 A
HETATM    5  C5  UNL     1      -3.761   3.536  14.160  1.00  0.00     0.037 A
HETATM    6  C6  UNL     1      -3.400   4.556  14.968  1.00  0.00     0.023 A
HETATM    7  C7  UNL     1      -2.572   5.569  14.455  1.00  0.00     0.075 A
HETATM    8  C8  UNL     1      -2.114   5.555  13.164  1.00  0.00     0.249 A
HETATM    9  O2  UNL     1      -1.384   6.478  12.755  1.00  0.00    -0.268 OA
HETATM   10  N3  UNL     1      -2.488   4.521  12.387  1.00  0.00    -0.290 N
HETATM   11  C19 UNL     1      -4.521   2.485  14.553  1.00  0.00     0.073 A
HETATM   12  N6  UNL     1      -4.772   1.471  13.646  1.00  0.00    -0.190 N
ATOM     13  H6  UNL     1      -5.342   0.683  13.957  1.00  0.00     0.184 HD
ENDROOT
BRANCH  10  14
HETATM   14  C9  UNL     1      -2.039   4.448  11.018  1.00  0.00     0.237 C
BRANCH  14  15
HETATM   15  C10 UNL     1      -3.139   4.942  10.122  1.00  0.00     0.240 C
HETATM   16  O3  UNL     1      -3.591   4.131   9.298  1.00  0.00    -0.271 OA
HETATM   17  N4  UNL     1      -3.606   6.252  10.236  1.00  0.00    -0.326 N
ATOM     18  H4  UNL     1      -3.145   6.814  10.952  1.00  0.00     0.169 HD
BRANCH  17  19
HETATM   19  C11 UNL     1      -4.620   6.920   9.513  1.00  0.00     0.034 A
HETATM   20  C12 UNL     1      -5.874   7.099  10.097  1.00  0.00     0.032 A
HETATM   21  C13 UNL     1      -6.856   7.729   9.406  1.00  0.00     0.031 A
HETATM   22  C14 UNL     1      -6.678   8.214   8.123  1.00  0.00     0.029 A
HETATM   23  C17 UNL     1      -5.441   8.024   7.578  1.00  0.00     0.031 A
HETATM   24  C18 UNL     1      -4.402   7.389   8.237  1.00  0.00     0.032 A
BRANCH  22  25
HETATM   25  N5  UNL     1      -7.734   8.867   7.437  1.00  0.00    -0.390 N
HETATM   26  C15 UNL     1      -7.455   9.609   6.227  1.00  0.00     0.149 C
HETATM   27  C16 UNL     1      -9.081   8.779   7.962  1.00  0.00     0.149 C
ENDBRANCH  22  25
ENDBRANCH  17  19
ENDBRANCH  14  15
ENDBRANCH  10  14
BRANCH   1  28
HETATM   28  N1  UNL     1      -4.608   0.460  11.620  1.00  0.00    -0.160 N
HETATM   29  C2  UNL     1      -3.690  -0.372  10.993  1.00  0.00     0.231 C
HETATM   30  C1  UNL     1      -3.051  -1.569  11.580  1.00  0.00     0.118 C
HETATM   31  O1  UNL     1      -3.357  -0.089   9.793  1.00  0.00    -0.273 OA
ATOM     32  H1  UNL     1      -5.597   0.272  11.451  1.00  0.00     0.187 HD
ENDBRANCH   1  28
BRANCH  11  33
HETATM   33  C20 UNL     1      -5.071   2.335  15.886  1.00  0.00    -0.008 A
HETATM   34  C21 UNL     1      -4.934   1.263  16.706  1.00  0.00     0.014 A
HETATM   35  C22 UNL     1      -5.532   1.117  17.955  1.00  0.00     0.001 A
HETATM   36  C23 UNL     1      -6.330   2.150  18.402  1.00  0.00     0.000 A
HETATM   37  C24 UNL     1      -6.491   3.255  17.599  1.00  0.00     0.001 A
HETATM   38  C25 UNL     1      -5.896   3.373  16.379  1.00  0.00     0.014 A
ENDBRANCH  11  33
TORSDOF 6
ENDMDL