MODEL 4
REMARK VINA RESULT: -9.647891328      1.450      1.723
REMARK  6 active torsions:
REMARK  status: ('A' for Active; 'I' for Inactive)
REMARK    1  A    between atoms: C3_3  and  C4_4
REMARK    2  A    between atoms: C4_4  and  C5_5
REMARK    3  A    between atoms: C8_8  and  N1_9
REMARK       I    between atoms: N1_9  and  C9_11
REMARK    4  A    between atoms: C9_11  and  C10_13
REMARK    5  A    between atoms: C10_13  and  N2_14
REMARK    6  A    between atoms: C13_21  and  C14_22
ROOT
HETATM    1  N2  UNL     1      -1.740   5.678  11.355  1.00  0.00    -0.258 N
HETATM    2  C11 UNL     1      -0.711   6.482  11.717  1.00  0.00     0.219 A
HETATM    3  N3  UNL     1      -0.684   6.577  13.060  1.00  0.00    -0.184 N
ATOM      4  H3  UNL     1      -0.020   7.114  13.618  1.00  0.00     0.185 HD
HETATM    5  C12 UNL     1      -1.710   5.820  13.531  1.00  0.00     0.705 A
HETATM    6  N4  UNL     1      -2.338   5.401  14.666  1.00  0.00    -0.188 N
ATOM      7  H4  UNL     1      -2.079   5.651  15.621  1.00  0.00     0.184 HD
HETATM    8  C13 UNL     1      -3.354   4.608  14.310  1.00  0.00     0.079 A
HETATM    9  C21 UNL     1      -3.352   4.535  12.937  1.00  0.00     0.166 A
HETATM   10  N7  UNL     1      -2.320   5.296  12.476  1.00  0.00    -0.092 N
ENDROOT
BRANCH   1  11
HETATM   11  C10 UNL     1      -2.054   5.363   9.989  1.00  0.00     0.254 C
BRANCH  11  12
HETATM   12  C9  UNL     1      -3.192   6.274   9.556  1.00  0.00     0.242 C
HETATM   13  N1  UNL     1      -4.479   5.771   9.709  1.00  0.00    -0.326 N
ATOM     14  H1  UNL     1      -4.567   4.834  10.103  1.00  0.00     0.169 HD
HETATM   15  O1  UNL     1      -2.864   7.390   9.102  1.00  0.00    -0.271 OA
BRANCH  13  16
HETATM   16  C8  UNL     1      -5.665   6.437   9.370  1.00  0.00     0.034 A
HETATM   17  C7  UNL     1      -6.284   6.107   8.147  1.00  0.00     0.030 A
HETATM   18  C6  UNL     1      -7.431   6.750   7.777  1.00  0.00     0.013 A
HETATM   19  C5  UNL     1      -8.030   7.729   8.554  1.00  0.00    -0.035 A
HETATM   20  C23 UNL     1      -7.399   8.025   9.741  1.00  0.00     0.013 A
HETATM   21  C22 UNL     1      -6.224   7.395  10.161  1.00  0.00     0.030 A
BRANCH  19  22
HETATM   22  C4  UNL     1      -9.257   8.357   8.164  1.00  0.00     0.025 C
BRANCH  22  23
HETATM   23  C3  UNL     1      -9.437   9.507   7.548  1.00  0.00    -0.008 A
HETATM   24  C2  UNL     1      -8.705  10.186   6.602  1.00  0.00     0.034 A
HETATM   25  C1  UNL     1      -7.575   9.833   6.043  1.00  0.00     0.044 C
HETATM   26  N8  UNL     1      -9.315  11.365   6.265  1.00  0.00    -0.361 N
HETATM   27  C25 UNL     1     -10.427  11.429   6.998  1.00  0.00     0.091 A
HETATM   28  C26 UNL     1      -8.883  12.369   5.318  1.00  0.00     0.155 C
HETATM   29  C24 UNL     1     -10.558  10.341   7.789  1.00  0.00     0.031 A
ENDBRANCH  22  23
ENDBRANCH  19  22
ENDBRANCH  13  16
ENDBRANCH  11  12
ENDBRANCH   1  11
BRANCH   8  30
HETATM   30  C14 UNL     1      -4.312   3.924  15.165  1.00  0.00     0.010 A
HETATM   31  C15 UNL     1      -5.436   4.581  15.664  1.00  0.00     0.017 A
HETATM   32  C16 UNL     1      -6.306   3.881  16.468  1.00  0.00     0.032 A
HETATM   33  C17 UNL     1      -6.122   2.540  16.809  1.00  0.00     0.057 A
HETATM   34  C18 UNL     1      -6.851   1.663  17.582  1.00  0.00     0.050 A
HETATM   35  N6  UNL     1      -5.030   1.936  16.313  1.00  0.00    -0.267 N
HETATM   36  C19 UNL     1      -6.154   0.482  17.539  1.00  0.00     0.110 A
HETATM   37  N5  UNL     1      -5.074   0.683  16.773  1.00  0.00    -0.305 N
ATOM     38  H5  UNL     1      -4.375  -0.030  16.566  1.00  0.00     0.186 HD
HETATM   39  C20 UNL     1      -4.166   2.602  15.525  1.00  0.00     0.130 A
ENDBRANCH   8  30
TORSDOF 6
ENDMDL