MODEL 4
REMARK VINA RESULT: -8.662298789      1.747      2.610
REMARK  6 active torsions:
REMARK  status: ('A' for Active; 'I' for Inactive)
REMARK    1  A    between atoms: C3_4  and  N1_5
REMARK       I    between atoms: N1_5  and  C4_7
REMARK    2  A    between atoms: C4_7  and  C5_9
REMARK    3  A    between atoms: C5_9  and  C6_10
REMARK    4  A    between atoms: C12_18  and  C13_19
REMARK    5  A    between atoms: C13_19  and  C14_20
REMARK    6  A    between atoms: C14_20  and  C15_21
REMARK       I    between atoms: C15_21  and  N3_23
ROOT
HETATM    1  C1  UNL     1      -2.992   0.107  10.097  1.00  0.00     0.058 C
HETATM    2  C2  UNL     1      -3.300   0.436  11.535  1.00  0.00     0.005 A
HETATM    3  S1  UNL     1      -4.161  -0.466  12.701  1.00  0.00    -0.057 SA
HETATM    4  C3  UNL     1      -4.008   0.607  14.017  1.00  0.00     0.151 A
HETATM    5  N2  UNL     1      -3.305   1.615  13.507  1.00  0.00    -0.339 N
ATOM      6  H2  UNL     1      -3.059   2.421  14.081  1.00  0.00     0.168 HD
HETATM    7  C12 UNL     1      -2.933   1.548  12.244  1.00  0.00     0.024 A
ENDROOT
BRANCH   7   8
HETATM    8  C13 UNL     1      -2.104   2.626  11.598  1.00  0.00     0.067 C
BRANCH   8   9
HETATM    9  C14 UNL     1      -2.677   3.965  11.578  1.00  0.00     0.109 C
BRANCH   9  10
HETATM   10  C15 UNL     1      -3.606   4.314  10.463  1.00  0.00     0.224 C
HETATM   11  O2  UNL     1      -4.076   3.470   9.660  1.00  0.00    -0.273 OA
HETATM   12  N3  UNL     1      -3.929   5.654  10.359  1.00  0.00    -0.306 N
HETATM   13  C16 UNL     1      -4.717   6.412   9.794  1.00  0.00     0.168 C
ATOM     14  H3  UNL     1      -3.302   6.199  10.952  1.00  0.00     0.171 HD
HETATM   15  N4  UNL     1      -5.729   6.007   8.896  1.00  0.00    -0.277 N
HETATM   16  S2  UNL     1      -4.628   8.200  10.150  1.00  0.00    -0.032 SA
HETATM   17  N5  UNL     1      -6.705   6.803   8.333  1.00  0.00    -0.292 N
ATOM     18  H4  UNL     1      -5.740   5.021   8.636  1.00  0.00     0.189 HD
HETATM   19  C17 UNL     1      -7.647   6.129   7.414  1.00  0.00     0.178 C
HETATM   20  C18 UNL     1      -6.840   8.181   8.575  1.00  0.00     0.085 A
HETATM   21  C19 UNL     1      -7.816   9.034   8.108  1.00  0.00     0.051 A
HETATM   22  C22 UNL     1      -6.042   8.944   9.384  1.00  0.00     0.107 A
HETATM   23  C20 UNL     1      -7.579  10.275   8.647  1.00  0.00     0.093 A
HETATM   24  N6  UNL     1      -6.497  10.215   9.426  1.00  0.00    -0.354 N
HETATM   25  C21 UNL     1      -5.927  11.319  10.176  1.00  0.00     0.156 C
ENDBRANCH   9  10
ENDBRANCH   8   9
ENDBRANCH   7   8
BRANCH   4  26
HETATM   26  N1  UNL     1      -4.497   0.367  15.186  1.00  0.00    -0.307 N
HETATM   27  C4  UNL     1      -5.169   1.234  16.036  1.00  0.00     0.227 C
HETATM   28  O1  UNL     1      -6.298   0.921  16.491  1.00  0.00    -0.273 OA
ATOM     29  H1  UNL     1      -4.373  -0.584  15.530  1.00  0.00     0.171 HD
BRANCH  27  30
HETATM   30  C5  UNL     1      -4.613   2.560  16.466  1.00  0.00     0.141 C
BRANCH  30  31
HETATM   31  C6  UNL     1      -4.880   3.633  15.508  1.00  0.00    -0.050 A
HETATM   32  C7  UNL     1      -6.042   3.725  14.798  1.00  0.00     0.007 A
HETATM   33  C8  UNL     1      -6.273   4.763  13.887  1.00  0.00     0.001 A
HETATM   34  C9  UNL     1      -5.295   5.727  13.699  1.00  0.00     0.000 A
HETATM   35  C10 UNL     1      -4.121   5.646  14.407  1.00  0.00     0.001 A
HETATM   36  C11 UNL     1      -3.904   4.606  15.312  1.00  0.00     0.007 A
ENDBRANCH  30  31
ENDBRANCH  27  30
ENDBRANCH   4  26
TORSDOF 6
ENDMDL