MODEL 1
REMARK VINA RESULT: -9.561468723      0.000      0.000
REMARK  4 active torsions:
REMARK  status: ('A' for Active; 'I' for Inactive)
REMARK    1  A    between atoms: N2_13  and  N3_14
REMARK    2  A    between atoms: N3_14  and  C9_16
REMARK    3  A    between atoms: N5_19  and  C10_20
REMARK    4  A    between atoms: C10_20  and  C11_21
ROOT
HETATM    1  C9  UNL     1       4.160   2.913 -17.617  1.00  0.00     0.148 A
HETATM    2  N4  UNL     1       3.968   3.369 -16.377  1.00  0.00    -0.281 N
ATOM      3  H4  UNL     1       3.238   4.031 -16.112  1.00  0.00     0.189 HD
HETATM    4  N5  UNL     1       4.858   2.847 -15.530  1.00  0.00    -0.286 N
HETATM    5  C16 UNL     1       5.679   2.015 -16.202  1.00  0.00     0.065 A
HETATM    6  C17 UNL     1       6.761   1.237 -15.780  1.00  0.00     0.032 A
HETATM    7  C18 UNL     1       7.396   0.489 -16.744  1.00  0.00     0.002 A
HETATM    8  C19 UNL     1       6.985   0.504 -18.072  1.00  0.00     0.001 A
HETATM    9  C20 UNL     1       5.919   1.279 -18.451  1.00  0.00     0.018 A
HETATM   10  C21 UNL     1       5.256   2.044 -17.512  1.00  0.00     0.039 A
ENDROOT
BRANCH   1  11
HETATM   11  N3  UNL     1       3.549   3.146 -18.720  1.00  0.00    -0.270 N
ATOM     12  H3  UNL     1       3.909   2.692 -19.560  1.00  0.00     0.189 HD
BRANCH  11  13
HETATM   13  N2  UNL     1       2.449   3.956 -18.866  1.00  0.00    -0.166 N
HETATM   14  C1  UNL     1       1.231   3.498 -19.200  1.00  0.00     0.349 A
HETATM   15  O1  UNL     1       1.088   2.281 -19.387  1.00  0.00    -0.245 OA
HETATM   16  N1  UNL     1       0.162   4.302 -19.339  1.00  0.00    -0.306 N
HETATM   17  C2  UNL     1       0.245   5.639 -19.150  1.00  0.00     0.052 A
ATOM     18  H1  UNL     1      -0.737   3.893 -19.595  1.00  0.00     0.171 HD
HETATM   19  C3  UNL     1      -0.857   6.469 -19.294  1.00  0.00     0.030 A
HETATM   20  C7  UNL     1       1.490   6.132 -18.805  1.00  0.00     0.061 A
HETATM   21  C4  UNL     1      -0.662   7.816 -19.078  1.00  0.00     0.002 A
HETATM   22  C5  UNL     1       0.570   8.347 -18.731  1.00  0.00     0.001 A
HETATM   23  C6  UNL     1       1.633   7.487 -18.600  1.00  0.00     0.019 A
HETATM   24  C8  UNL     1       2.584   5.279 -18.666  1.00  0.00     0.283 A
HETATM   25  O2  UNL     1       3.688   5.809 -18.348  1.00  0.00    -0.265 OA
ENDBRANCH  11  13
ENDBRANCH   1  11
BRANCH   4  26
HETATM   26  C10 UNL     1       4.954   3.104 -14.102  1.00  0.00     0.187 C
BRANCH  26  27
HETATM   27  C11 UNL     1       4.016   4.139 -13.623  1.00  0.00    -0.036 A
HETATM   28  C12 UNL     1       2.709   3.807 -13.282  1.00  0.00     0.026 A
HETATM   29  C13 UNL     1       1.804   4.748 -12.836  1.00  0.00     0.088 A
HETATM   30  N6  UNL     1       2.208   6.022 -12.732  1.00  0.00    -0.375 N
HETATM   31  C14 UNL     1       3.481   6.385 -13.058  1.00  0.00     0.088 A
ATOM     32  H6  UNL     1       1.552   6.731 -12.403  1.00  0.00     0.164 HD
HETATM   33  C15 UNL     1       4.397   5.455 -13.505  1.00  0.00     0.026 A
ENDBRANCH  26  27
ENDBRANCH   4  26
TORSDOF 4
ENDMDL