MODEL 2
REMARK VINA RESULT: -7.804481179      3.858      5.855
REMARK  6 active torsions:
REMARK  status: ('A' for Active; 'I' for Inactive)
REMARK    1  A    between atoms: C2_3  and  N2_4
REMARK    2  A    between atoms: N2_4  and  C3_6
REMARK    3  A    between atoms: C3_6  and  N3_8
REMARK       I    between atoms: N3_8  and  C4_10
REMARK    4  A    between atoms: C4_10  and  C5_12
REMARK    5  A    between atoms: N5_23  and  C13_24
REMARK    6  A    between atoms: C13_24  and  C14_25
ROOT
HETATM    1  C1  UNL     1       4.012   1.016 -15.056  1.00  0.00     0.180 C
HETATM    2  N1  UNL     1       3.484   1.244 -16.394  1.00  0.00    -0.276 N
HETATM    3  C2  UNL     1       3.458   2.469 -16.954  1.00  0.00     0.153 A
HETATM    4  C9  UNL     1       2.911   2.370 -18.216  1.00  0.00     0.106 A
HETATM    5  N4  UNL     1       2.551   3.019 -19.339  1.00  0.00    -0.361 N
ATOM      6  H4  UNL     1       2.656   4.021 -19.502  1.00  0.00     0.165 HD
HETATM    7  C10 UNL     1       2.030   2.137 -20.216  1.00  0.00     0.091 A
HETATM    8  C11 UNL     1       2.068   0.896 -19.618  1.00  0.00     0.050 A
HETATM    9  C12 UNL     1       2.617   1.012 -18.357  1.00  0.00     0.083 A
HETATM   10  N5  UNL     1       2.980   0.363 -17.230  1.00  0.00    -0.282 N
ENDROOT
BRANCH   3  11
HETATM   11  N2  UNL     1       3.879   3.549 -16.406  1.00  0.00    -0.316 N
ATOM     12  H2  UNL     1       4.872   3.761 -16.503  1.00  0.00     0.170 HD
BRANCH  11  13
HETATM   13  C3  UNL     1       3.106   4.462 -15.688  1.00  0.00     0.180 C
HETATM   14  S1  UNL     1       3.291   4.514 -14.050  1.00  0.00    -0.040 SA
BRANCH  13  15
HETATM   15  N3  UNL     1       2.174   5.345 -16.285  1.00  0.00    -0.298 N
HETATM   16  C4  UNL     1       2.415   5.962 -17.539  1.00  0.00     0.281 C
HETATM   17  O1  UNL     1       3.475   5.740 -18.162  1.00  0.00    -0.265 OA
ATOM     18  H3  UNL     1       1.300   5.543 -15.797  1.00  0.00     0.171 HD
BRANCH  16  19
HETATM   19  C5  UNL     1       1.447   6.869 -18.144  1.00  0.00     0.142 A
HETATM   20  C6  UNL     1       0.243   6.468 -18.699  1.00  0.00     0.045 A
HETATM   21  C7  UNL     1      -0.380   7.593 -19.158  1.00  0.00     0.027 A
HETATM   22  C8  UNL     1       0.467   8.641 -18.866  1.00  0.00     0.143 A
HETATM   23  O2  UNL     1       1.509   8.151 -18.278  1.00  0.00    -0.317 OA
ENDBRANCH  16  19
ENDBRANCH  13  15
ENDBRANCH  11  13
ENDBRANCH   3  11
BRANCH  10  24
HETATM   24  C13 UNL     1       2.835  -1.037 -17.018  1.00  0.00     0.188 C
BRANCH  24  25
HETATM   25  C14 UNL     1       1.476  -1.488 -16.726  1.00  0.00    -0.038 A
HETATM   26  C15 UNL     1       1.025  -1.526 -15.429  1.00  0.00     0.009 A
HETATM   27  C16 UNL     1      -0.272  -1.949 -15.115  1.00  0.00     0.001 A
HETATM   28  C17 UNL     1      -1.122  -2.337 -16.112  1.00  0.00     0.000 A
HETATM   29  C18 UNL     1      -0.687  -2.307 -17.421  1.00  0.00     0.001 A
HETATM   30  C19 UNL     1       0.586  -1.889 -17.713  1.00  0.00     0.009 A
ENDBRANCH  24  25
ENDBRANCH  10  24
TORSDOF 6
ENDMDL