MODEL 3
REMARK VINA RESULT: -7.617220020      2.041      4.845
REMARK  5 active torsions:
REMARK  status: ('A' for Active; 'I' for Inactive)
REMARK    1  A    between atoms: C4_4  and  N1_5
REMARK    2  A    between atoms: N1_5  and  C5_7
REMARK    3  A    between atoms: C8_12  and  N3_13
REMARK    4  A    between atoms: N3_13  and  C9_15
REMARK    5  A    between atoms: C11_17  and  C12_18
ROOT
HETATM    1  C1  UNL     1       6.146  -0.906 -12.797  1.00  0.00     0.104 C
HETATM    2  C2  UNL     1       6.354  -0.093 -13.689  1.00  0.00    -0.127 C
HETATM    3  C3  UNL     1       6.598   0.837 -14.743  1.00  0.00     0.119 A
HETATM    4  C4  UNL     1       5.827   1.945 -15.000  1.00  0.00     0.087 A
HETATM    5  C21 UNL     1       6.376   2.578 -16.077  1.00  0.00     0.139 A
HETATM    6  N6  UNL     1       7.452   1.857 -16.449  1.00  0.00    -0.307 N
ATOM      7  H6  UNL     1       8.069   2.084 -17.229  1.00  0.00     0.186 HD
HETATM    8  N7  UNL     1       7.590   0.806 -15.646  1.00  0.00    -0.287 N
HETATM    9  C22 UNL     1       8.621  -0.205 -15.718  1.00  0.00     0.178 C
ENDROOT
BRANCH   4  10
HETATM   10  N1  UNL     1       4.681   2.315 -14.253  1.00  0.00    -0.339 N
ATOM     11  H1  UNL     1       4.572   2.012 -13.285  1.00  0.00     0.167 HD
BRANCH  10  12
HETATM   12  C5  UNL     1       3.766   3.055 -14.828  1.00  0.00     0.107 C
HETATM   13  C6  UNL     1       3.418   4.232 -14.199  1.00  0.00     0.065 C
HETATM   14  C7  UNL     1       2.845   5.380 -14.749  1.00  0.00     0.093 C
HETATM   15  N2  UNL     1       2.392   5.518 -16.010  1.00  0.00    -0.350 N
HETATM   16  C8  UNL     1       2.480   4.700 -17.078  1.00  0.00     0.133 C
ATOM     17  H2  UNL     1       1.899   6.392 -16.188  1.00  0.00     0.166 HD
HETATM   18  C11 UNL     1       2.728   3.337 -17.010  1.00  0.00     0.091 C
HETATM   19  N5  UNL     1       3.246   2.604 -15.979  1.00  0.00    -0.339 N
ATOM     20  H5  UNL     1       3.235   1.592 -16.100  1.00  0.00     0.167 HD
BRANCH  16  21
HETATM   21  N3  UNL     1       2.333   5.151 -18.245  1.00  0.00    -0.354 N
ATOM     22  H3  UNL     1       2.684   4.547 -18.989  1.00  0.00     0.166 HD
BRANCH  21  23
HETATM   23  C9  UNL     1       1.758   6.361 -18.682  1.00  0.00     0.058 C
HETATM   24  C10 UNL     1       0.366   6.244 -19.243  1.00  0.00     0.054 C
ENDBRANCH  21  23
ENDBRANCH  16  21
BRANCH  18  25
HETATM   25  C12 UNL     1       2.382   2.583 -18.217  1.00  0.00     0.029 A
HETATM   26  C13 UNL     1       1.105   2.344 -18.653  1.00  0.00     0.019 A
HETATM   27  C14 UNL     1      -0.191   2.758 -18.058  1.00  0.00     0.069 C
HETATM   28  N4  UNL     1       1.205   1.625 -19.784  1.00  0.00    -0.358 N
HETATM   29  C15 UNL     1       2.486   1.389 -20.099  1.00  0.00     0.043 A
ATOM     30  H4  UNL     1       0.408   1.302 -20.332  1.00  0.00     0.166 HD
HETATM   31  C16 UNL     1       3.135   0.719 -21.126  1.00  0.00     0.030 A
HETATM   32  C20 UNL     1       3.244   1.989 -19.114  1.00  0.00     0.005 A
HETATM   33  C17 UNL     1       4.510   0.640 -21.188  1.00  0.00     0.002 A
HETATM   34  C18 UNL     1       5.258   1.252 -20.188  1.00  0.00     0.001 A
HETATM   35  C19 UNL     1       4.636   1.922 -19.158  1.00  0.00     0.014 A
ENDBRANCH  18  25
ENDBRANCH  10  12
ENDBRANCH   4  10
TORSDOF 5
ENDMDL