MODEL 4
REMARK VINA RESULT: -7.885681052      2.931      8.975
REMARK  4 active torsions:
REMARK  status: ('A' for Active; 'I' for Inactive)
REMARK    1  A    between atoms: C7_7  and  N1_8
REMARK    2  A    between atoms: N1_8  and  C8_10
REMARK    3  A    between atoms: C10_12  and  C11_13
REMARK       I    between atoms: N2_17  and  C15_19
REMARK    4  A    between atoms: C15_19  and  C16_21
ROOT
HETATM    1  C11 UNL     1       4.713   1.933 -17.747  1.00  0.00     0.006 A
HETATM    2  C12 UNL     1       5.056   2.744 -16.692  1.00  0.00     0.019 A
HETATM    3  C13 UNL     1       6.191   2.505 -15.921  1.00  0.00     0.049 A
HETATM    4  C14 UNL     1       6.986   1.424 -16.230  1.00  0.00     0.107 A
HETATM    5  N2  UNL     1       8.037   1.222 -15.498  1.00  0.00    -0.308 N
ATOM      6  H2  UNL     1       8.237   1.862 -14.730  1.00  0.00     0.170 HD
HETATM    7  C15 UNL     1       8.913   0.142 -15.735  1.00  0.00     0.275 C
HETATM    8  O1  UNL     1       8.853  -0.893 -15.044  1.00  0.00    -0.266 OA
HETATM    9  N5  UNL     1       6.654   0.628 -17.263  1.00  0.00    -0.351 N
ATOM     10  H5  UNL     1       7.248  -0.171 -17.487  1.00  0.00     0.166 HD
HETATM   11  C20 UNL     1       5.558   0.860 -18.006  1.00  0.00     0.103 A
ENDROOT
BRANCH   1  12
HETATM   12  C10 UNL     1       3.544   2.146 -18.572  1.00  0.00     0.048 A
HETATM   13  C9  UNL     1       2.522   2.987 -18.211  1.00  0.00     0.079 A
HETATM   14  C8  UNL     1       1.417   3.150 -19.056  1.00  0.00     0.108 A
HETATM   15  N7  UNL     1       1.344   2.491 -20.221  1.00  0.00    -0.339 N
HETATM   16  C21 UNL     1       2.356   1.667 -20.565  1.00  0.00     0.182 A
ATOM     17  H7  UNL     1       0.540   2.610 -20.836  1.00  0.00     0.168 HD
HETATM   18  N6  UNL     1       3.416   1.512 -19.753  1.00  0.00    -0.351 N
ATOM     19  H6  UNL     1       4.162   0.880 -20.047  1.00  0.00     0.166 HD
BRANCH  14  20
HETATM   20  N1  UNL     1       0.452   3.934 -18.731  1.00  0.00    -0.342 N
ATOM     21  H1  UNL     1      -0.411   3.538 -18.357  1.00  0.00     0.167 HD
BRANCH  20  22
HETATM   22  C7  UNL     1       0.564   5.342 -18.882  1.00  0.00     0.039 A
HETATM   23  C2  UNL     1       0.016   5.981 -19.977  1.00  0.00    -0.035 A
HETATM   24  C1  UNL     1      -0.706   5.235 -21.033  1.00  0.00     0.050 C
HETATM   25  C3  UNL     1       0.115   7.358 -20.145  1.00  0.00     0.009 A
HETATM   26  C4  UNL     1       0.763   8.132 -19.221  1.00  0.00     0.001 A
HETATM   27  C5  UNL     1       1.319   7.500 -18.114  1.00  0.00     0.002 A
HETATM   28  C6  UNL     1       1.219   6.134 -17.953  1.00  0.00     0.030 A
ENDBRANCH  20  22
ENDBRANCH  14  20
ENDBRANCH   1  12
BRANCH   7  29
HETATM   29  C16 UNL     1       9.894   0.238 -16.795  1.00  0.00     0.116 A
HETATM   30  C17 UNL     1      10.656  -0.857 -17.186  1.00  0.00     0.122 A
HETATM   31  N3  UNL     1      11.555  -0.734 -18.172  1.00  0.00    -0.372 N
HETATM   32  C18 UNL     1      11.766   0.427 -18.824  1.00  0.00     0.104 A
ATOM     33  H3  UNL     1      12.103  -1.552 -18.441  1.00  0.00     0.164 HD
HETATM   34  C19 UNL     1      11.015   1.517 -18.443  1.00  0.00     0.105 A
HETATM   35  N4  UNL     1      10.111   1.396 -17.454  1.00  0.00    -0.359 N
ATOM     36  H4  UNL     1       9.565   2.216 -17.190  1.00  0.00     0.165 HD
ENDBRANCH   7  29
TORSDOF 4
ENDMDL