MODEL 3
REMARK VINA RESULT: -7.660441199      1.992     11.593
REMARK  5 active torsions:
REMARK  status: ('A' for Active; 'I' for Inactive)
REMARK       I    between atoms: C1_2  and  N1_3
REMARK       I    between atoms: C1_2  and  N3_12
REMARK    1  A    between atoms: N1_3  and  C2_5
REMARK    2  A    between atoms: N3_12  and  C7_14
REMARK    3  A    between atoms: C10_17  and  N4_18
REMARK    4  A    between atoms: C13_21  and  C14_22
REMARK    5  A    between atoms: N5_23  and  N6_25
ROOT
HETATM    1  C7  UNL     1       1.898   1.616 -18.285  1.00  0.00     0.036 A
HETATM    2  C8  UNL     1       0.625   1.181 -18.088  1.00  0.00     0.032 A
HETATM    3  C9  UNL     1       0.370  -0.165 -17.775  1.00  0.00     0.032 A
HETATM    4  C10 UNL     1       1.385  -1.086 -17.656  1.00  0.00     0.038 A
HETATM    5  C21 UNL     1       2.655  -0.605 -17.861  1.00  0.00     0.032 A
HETATM    6  C22 UNL     1       2.953   0.688 -18.168  1.00  0.00     0.032 A
ENDROOT
BRANCH   4   7
HETATM    7  N4  UNL     1       1.076  -2.445 -17.336  1.00  0.00    -0.332 N
HETATM    8  C11 UNL     1       1.851  -3.312 -16.661  1.00  0.00     0.097 A
HETATM    9  C12 UNL     1       1.221  -4.531 -16.543  1.00  0.00     0.032 A
HETATM   10  C13 UNL     1      -0.021  -4.414 -17.182  1.00  0.00    -0.002 A
HETATM   11  C20 UNL     1      -0.047  -3.114 -17.645  1.00  0.00     0.109 A
BRANCH  10  12
HETATM   12  C14 UNL     1      -1.029  -5.451 -17.310  1.00  0.00     0.120 C
HETATM   13  N5  UNL     1      -2.050  -5.424 -16.546  1.00  0.00    -0.305 N
ATOM     14  H5  UNL     1      -2.141  -4.676 -15.858  1.00  0.00     0.186 HD
BRANCH  13  15
HETATM   15  N6  UNL     1      -3.041  -6.394 -16.631  1.00  0.00    -0.279 N
HETATM   16  C15 UNL     1      -4.011  -6.492 -15.703  1.00  0.00     0.119 A
HETATM   17  C16 UNL     1      -5.007  -7.436 -15.751  1.00  0.00     0.074 A
HETATM   18  C17 UNL     1      -5.008  -8.316 -16.797  1.00  0.00     0.174 A
HETATM   19  O2  UNL     1      -5.915  -9.207 -16.880  1.00  0.00    -0.288 OA
HETATM   20  C18 UNL     1      -4.015  -8.213 -17.743  1.00  0.00     0.074 A
HETATM   21  C19 UNL     1      -3.040  -7.258 -17.659  1.00  0.00     0.119 A
ENDBRANCH  13  15
ENDBRANCH  10  12
ENDBRANCH   4   7
BRANCH   1  22
HETATM   22  N3  UNL     1       2.223   2.928 -18.623  1.00  0.00    -0.309 N
HETATM   23  C1  UNL     1       2.604   3.910 -17.714  1.00  0.00     0.326 C
HETATM   24  O1  UNL     1       2.711   3.799 -16.491  1.00  0.00    -0.247 OA
HETATM   25  N1  UNL     1       2.918   5.226 -18.235  1.00  0.00    -0.294 N
ATOM     26  H1  UNL     1       3.880   5.525 -18.389  1.00  0.00     0.172 HD
ATOM     27  H3  UNL     1       2.179   3.187 -19.608  1.00  0.00     0.170 HD
BRANCH  25  28
HETATM   28  C2  UNL     1       1.927   5.995 -18.492  1.00  0.00     0.108 A
HETATM   29  C3  UNL     1       2.032   7.317 -18.081  1.00  0.00     0.049 A
HETATM   30  C4  UNL     1       0.971   8.152 -18.353  1.00  0.00     0.005 A
HETATM   31  C5  UNL     1      -0.133   7.669 -19.006  1.00  0.00     0.017 A
HETATM   32  C6  UNL     1      -0.204   6.356 -19.399  1.00  0.00     0.089 A
HETATM   33  N2  UNL     1       0.832   5.545 -19.132  1.00  0.00    -0.352 N
ATOM     34  H2  UNL     1       0.788   4.568 -19.420  1.00  0.00     0.166 HD
ENDBRANCH  25  28
ENDBRANCH   1  22
TORSDOF 5
ENDMDL