MODEL 5
REMARK VINA RESULT: -7.811532005      1.145      1.202
REMARK  5 active torsions:
REMARK  status: ('A' for Active; 'I' for Inactive)
REMARK    1  A    between atoms: C2_2  and  N1_3
REMARK    2  A    between atoms: N1_3  and  C3_5
REMARK    3  A    between atoms: C4_8  and  C5_9
REMARK       I    between atoms: C5_9  and  N3_11
REMARK    4  A    between atoms: N3_11  and  C6_13
REMARK    5  A    between atoms: C13_23  and  C14_24
ROOT
HETATM    1  C3  UNL     1       1.863   3.658 -14.586  1.00  0.00     0.679 A
HETATM    2  N2  UNL     1       2.518   2.519 -14.484  1.00  0.00    -0.185 N
ATOM      3  H2  UNL     1       2.570   2.085 -13.563  1.00  0.00     0.184 HD
HETATM    4  C4  UNL     1       3.139   1.871 -15.531  1.00  0.00     0.129 A
HETATM    5  C9  UNL     1       3.039   2.498 -16.743  1.00  0.00     0.025 A
HETATM    6  C10 UNL     1       3.619   1.912 -17.847  1.00  0.00     0.016 A
HETATM    7  C11 UNL     1       3.491   2.562 -19.066  1.00  0.00     0.002 A
HETATM    8  C12 UNL     1       2.822   3.738 -19.192  1.00  0.00     0.014 A
HETATM    9  C13 UNL     1       2.233   4.338 -18.084  1.00  0.00     0.004 A
HETATM   10  C19 UNL     1       2.338   3.722 -16.860  1.00  0.00     0.073 A
HETATM   11  N6  UNL     1       1.762   4.274 -15.765  1.00  0.00    -0.190 N
ATOM     12  H6  UNL     1       1.253   5.154 -15.841  1.00  0.00     0.184 HD
ENDROOT
BRANCH   4  13
HETATM   13  C5  UNL     1       3.818   0.632 -15.273  1.00  0.00     0.275 C
HETATM   14  O1  UNL     1       3.454  -0.498 -15.555  1.00  0.00    -0.266 OA
HETATM   15  N3  UNL     1       5.109   0.681 -14.593  1.00  0.00    -0.302 N
ATOM     16  H3  UNL     1       5.252   1.172 -13.710  1.00  0.00     0.171 HD
BRANCH  15  17
HETATM   17  C6  UNL     1       6.075   0.035 -15.216  1.00  0.00     0.151 A
HETATM   18  N4  UNL     1       6.369   0.095 -16.519  1.00  0.00    -0.346 N
HETATM   19  C7  UNL     1       7.377  -0.628 -16.955  1.00  0.00     0.097 A
ATOM     20  H4  UNL     1       5.829   0.682 -17.154  1.00  0.00     0.167 HD
HETATM   21  C8  UNL     1       8.056  -1.392 -16.047  1.00  0.00     0.070 A
HETATM   22  S1  UNL     1       7.229  -1.049 -14.597  1.00  0.00    -0.064 SA
ENDBRANCH  15  17
ENDBRANCH   4  13
BRANCH   1  23
HETATM   23  N1  UNL     1       1.289   4.237 -13.568  1.00  0.00    -0.226 N
ATOM     24  H1  UNL     1       0.274   4.335 -13.567  1.00  0.00     0.177 HD
BRANCH  23  25
HETATM   25  C2  UNL     1       2.032   4.740 -12.450  1.00  0.00     0.133 C
HETATM   26  C1  UNL     1       2.641   6.076 -12.820  1.00  0.00     0.027 C
ENDBRANCH  23  25
ENDBRANCH   1  23
BRANCH   9  27
HETATM   27  C14 UNL     1       1.561   5.634 -18.255  1.00  0.00    -0.008 A
HETATM   28  C15 UNL     1       0.309   5.739 -18.827  1.00  0.00     0.015 A
HETATM   29  C16 UNL     1      -0.282   6.983 -19.022  1.00  0.00     0.018 A
HETATM   30  C17 UNL     1       0.379   8.135 -18.644  1.00  0.00     0.087 A
HETATM   31  N5  UNL     1       1.594   8.020 -18.088  1.00  0.00    -0.374 N
HETATM   32  C18 UNL     1       2.178   6.805 -17.895  1.00  0.00     0.100 A
ATOM     33  H5  UNL     1       2.094   8.863 -17.804  1.00  0.00     0.164 HD
ENDBRANCH   9  27
TORSDOF 5
ENDMDL