MODEL 5
REMARK VINA RESULT: -8.725338766      1.979      6.319
REMARK  4 active torsions:
REMARK  status: ('A' for Active; 'I' for Inactive)
REMARK       I    between atoms: C1_2  and  N1_3
REMARK    1  A    between atoms: C1_2  and  C9_19
REMARK    2  A    between atoms: N1_3  and  C2_5
REMARK    3  A    between atoms: N5_27  and  C17_28
REMARK    4  A    between atoms: C17_28  and  C18_29
ROOT
HETATM    1  O1  UNL     1       0.920   2.886 -15.127  1.00  0.00    -0.266 OA
HETATM    2  C1  UNL     1       1.965   3.222 -15.781  1.00  0.00     0.274 C
HETATM    3  N1  UNL     1       1.954   4.398 -16.588  1.00  0.00    -0.307 N
ATOM      4  H1  UNL     1       2.474   5.214 -16.264  1.00  0.00     0.170 HD
ENDROOT
BRANCH   2   5
HETATM    5  C9  UNL     1       3.188   2.434 -15.734  1.00  0.00     0.105 A
HETATM    6  C10 UNL     1       3.297   1.160 -16.272  1.00  0.00     0.049 A
HETATM    7  C11 UNL     1       4.576   0.688 -16.062  1.00  0.00    -0.007 A
HETATM    8  C12 UNL     1       5.188  -0.508 -16.397  1.00  0.00     0.014 A
HETATM    9  C16 UNL     1       5.238   1.690 -15.391  1.00  0.00     0.045 A
HETATM   10  C13 UNL     1       6.492  -0.737 -16.068  1.00  0.00     0.001 A
HETATM   11  C14 UNL     1       7.195   0.261 -15.385  1.00  0.00     0.002 A
HETATM   12  C15 UNL     1       6.558   1.442 -15.065  1.00  0.00     0.030 A
HETATM   13  N5  UNL     1       4.379   2.722 -15.210  1.00  0.00    -0.336 N
BRANCH  13  14
HETATM   14  C17 UNL     1       4.769   3.925 -14.544  1.00  0.00     0.194 C
BRANCH  14  15
HETATM   15  C18 UNL     1       3.772   4.410 -13.541  1.00  0.00     0.070 A
HETATM   16  C19 UNL     1       3.347   5.741 -13.440  1.00  0.00     0.036 A
HETATM   17  C20 UNL     1       2.434   5.819 -12.416  1.00  0.00     0.027 A
HETATM   18  C21 UNL     1       2.328   4.535 -11.924  1.00  0.00     0.142 A
HETATM   19  O3  UNL     1       3.118   3.782 -12.612  1.00  0.00    -0.325 OA
ENDBRANCH  14  15
ENDBRANCH  13  14
ENDBRANCH   2   5
BRANCH   3  20
HETATM   20  C2  UNL     1       1.317   4.480 -17.707  1.00  0.00     0.126 A
HETATM   21  N2  UNL     1       0.939   3.345 -18.316  1.00  0.00    -0.351 N
HETATM   22  C3  UNL     1       0.274   3.404 -19.484  1.00  0.00     0.092 A
ATOM     23  H2  UNL     1       1.156   2.441 -17.896  1.00  0.00     0.166 HD
HETATM   24  C4  UNL     1      -0.007   4.651 -20.034  1.00  0.00     0.048 A
HETATM   25  C5  UNL     1       0.386   5.812 -19.402  1.00  0.00     0.053 A
HETATM   26  N3  UNL     1       0.112   7.012 -19.936  1.00  0.00    -0.351 N
HETATM   27  C8  UNL     1       1.073   5.747 -18.194  1.00  0.00     0.103 A
HETATM   28  C6  UNL     1       0.503   8.131 -19.305  1.00  0.00     0.183 A
ATOM     29  H3  UNL     1      -0.392   7.075 -20.820  1.00  0.00     0.166 HD
HETATM   30  N4  UNL     1       1.178   8.074 -18.119  1.00  0.00    -0.319 N
HETATM   31  C7  UNL     1       1.467   6.888 -17.559  1.00  0.00     0.262 A
ATOM     32  H4  UNL     1       1.464   8.937 -17.657  1.00  0.00     0.169 HD
HETATM   33  O2  UNL     1       2.085   6.784 -16.470  1.00  0.00    -0.267 OA
ENDBRANCH   3  20
TORSDOF 4
ENDMDL