MODEL 3
REMARK VINA RESULT: -8.330781929      2.948      5.180
REMARK  5 active torsions:
REMARK  status: ('A' for Active; 'I' for Inactive)
REMARK       I    between atoms: C1_2  and  N1_3
REMARK    1  A    between atoms: C1_2  and  C11_17
REMARK    2  A    between atoms: N1_3  and  C2_5
REMARK    3  A    between atoms: C4_9  and  C5_10
REMARK    4  A    between atoms: C15_21  and  N3_22
REMARK       I    between atoms: N3_22  and  C16_24
REMARK    5  A    between atoms: C16_24  and  C17_26
ROOT
HETATM    1  C11 UNL     1       2.916   4.766 -16.184  1.00  0.00     0.102 A
HETATM    2  C12 UNL     1       2.233   5.486 -15.223  1.00  0.00     0.035 A
HETATM    3  C13 UNL     1       2.617   5.419 -13.894  1.00  0.00     0.006 A
HETATM    4  C14 UNL     1       3.682   4.621 -13.579  1.00  0.00     0.049 A
HETATM    5  C15 UNL     1       4.345   3.913 -14.551  1.00  0.00     0.108 A
HETATM    6  N5  UNL     1       3.953   3.998 -15.825  1.00  0.00    -0.338 N
ATOM      7  H5  UNL     1       4.452   3.468 -16.538  1.00  0.00     0.167 HD
ENDROOT
BRANCH   1   8
HETATM    8  C1  UNL     1       2.535   4.819 -17.580  1.00  0.00     0.274 C
HETATM    9  O1  UNL     1       3.040   5.700 -18.316  1.00  0.00    -0.266 OA
HETATM   10  N1  UNL     1       1.600   3.862 -18.051  1.00  0.00    -0.302 N
ATOM     11  H1  UNL     1       0.643   3.832 -17.699  1.00  0.00     0.171 HD
BRANCH  10  12
HETATM   12  C2  UNL     1       2.025   3.016 -18.962  1.00  0.00     0.152 A
HETATM   13  N2  UNL     1       1.467   2.677 -20.118  1.00  0.00    -0.345 N
HETATM   14  C3  UNL     1       2.072   1.803 -20.878  1.00  0.00     0.110 A
ATOM     15  H2  UNL     1       0.581   3.091 -20.407  1.00  0.00     0.167 HD
HETATM   16  C4  UNL     1       3.256   1.283 -20.434  1.00  0.00     0.034 A
HETATM   17  S1  UNL     1       3.454   2.075 -18.935  1.00  0.00    -0.052 SA
BRANCH  16  18
HETATM   18  C5  UNL     1       4.132   0.302 -21.073  1.00  0.00    -0.018 A
HETATM   19  C6  UNL     1       3.911  -1.036 -20.874  1.00  0.00     0.013 A
HETATM   20  C7  UNL     1       4.743  -1.955 -21.482  1.00  0.00     0.001 A
HETATM   21  C8  UNL     1       5.799  -1.549 -22.288  1.00  0.00     0.000 A
HETATM   22  C9  UNL     1       6.021  -0.204 -22.487  1.00  0.00     0.001 A
HETATM   23  C10 UNL     1       5.177   0.715 -21.872  1.00  0.00     0.013 A
ENDBRANCH  16  18
ENDBRANCH  10  12
ENDBRANCH   1   8
BRANCH   5  24
HETATM   24  N3  UNL     1       5.354   3.159 -14.254  1.00  0.00    -0.307 N
HETATM   25  C16 UNL     1       5.683   2.006 -14.987  1.00  0.00     0.283 C
HETATM   26  O2  UNL     1       6.550   2.117 -15.892  1.00  0.00    -0.265 OA
ATOM     27  H3  UNL     1       5.935   3.412 -13.454  1.00  0.00     0.170 HD
BRANCH  25  28
HETATM   28  C17 UNL     1       5.025   0.753 -14.681  1.00  0.00     0.168 A
HETATM   29  C18 UNL     1       4.033   0.117 -15.418  1.00  0.00     0.064 A
HETATM   30  C19 UNL     1       3.732  -1.035 -14.724  1.00  0.00     0.117 A
HETATM   31  N4  UNL     1       4.514  -1.054 -13.647  1.00  0.00    -0.272 N
HETATM   32  O3  UNL     1       5.252  -0.008 -13.648  1.00  0.00    -0.233 OA
ATOM     33  H4  UNL     1       4.525  -1.785 -12.935  1.00  0.00     0.194 HD
ENDBRANCH  25  28
ENDBRANCH   5  24
TORSDOF 5
ENDMDL