MODEL 4
REMARK VINA RESULT: -8.461908574      2.196      2.325
REMARK  3 active torsions:
REMARK  status: ('A' for Active; 'I' for Inactive)
REMARK    1  A    between atoms: C3_3  and  C4_4
REMARK    2  A    between atoms: C10_10  and  C11_11
REMARK    3  A    between atoms: C17_21  and  C18_22
ROOT
HETATM    1  C1  UNL     1       3.283   2.293 -19.323  1.00  0.00     0.026 C
HETATM    2  C2  UNL     1       3.352   2.431 -18.017  1.00  0.00    -0.005 A
HETATM    3  C3  UNL     1       2.846   3.515 -17.286  1.00  0.00     0.013 A
HETATM    4  C10 UNL     1       3.138   3.241 -15.984  1.00  0.00     0.056 A
HETATM    5  N2  UNL     1       3.791   2.047 -15.909  1.00  0.00    -0.354 N
ATOM      6  H2  UNL     1       4.122   1.610 -15.050  1.00  0.00     0.166 HD
HETATM    7  C16 UNL     1       3.931   1.537 -17.145  1.00  0.00     0.045 A
HETATM    8  C17 UNL     1       4.528   0.385 -17.391  1.00  0.00     0.063 C
ENDROOT
BRANCH   8   9
HETATM    9  C18 UNL     1       5.096  -0.456 -16.353  1.00  0.00     0.076 A
HETATM   10  C19 UNL     1       6.401  -0.896 -16.367  1.00  0.00     0.122 A
HETATM   11  N3  UNL     1       6.627  -1.648 -15.282  1.00  0.00    -0.343 N
HETATM   12  C20 UNL     1       5.441  -1.665 -14.599  1.00  0.00     0.175 A
ATOM     13  H3  UNL     1       7.498  -2.110 -15.021  1.00  0.00     0.167 HD
HETATM   14  S1  UNL     1       4.628  -2.244 -13.217  1.00  0.00     0.011 SA
HETATM   15  N5  UNL     1       4.500  -0.960 -15.213  1.00  0.00    -0.229 N
HETATM   16  C21 UNL     1       3.110  -1.532 -13.524  1.00  0.00     0.306 A
HETATM   17  O1  UNL     1       2.022  -1.580 -12.843  1.00  0.00    -0.258 OA
HETATM   18  N4  UNL     1       3.326  -0.891 -14.674  1.00  0.00    -0.251 N
ATOM     19  H4  UNL     1       2.580  -0.357 -15.119  1.00  0.00     0.191 HD
ENDBRANCH   8   9
BRANCH   3  20
HETATM   20  C4  UNL     1       2.160   4.672 -17.839  1.00  0.00    -0.023 A
HETATM   21  C5  UNL     1       0.869   4.542 -18.280  1.00  0.00     0.012 A
HETATM   22  C6  UNL     1       0.200   5.644 -18.812  1.00  0.00     0.001 A
HETATM   23  C7  UNL     1       0.824   6.850 -18.898  1.00  0.00     0.000 A
HETATM   24  C8  UNL     1       2.125   7.015 -18.463  1.00  0.00     0.001 A
HETATM   25  C9  UNL     1       2.770   5.912 -17.939  1.00  0.00     0.012 A
ENDBRANCH   3  20
BRANCH   4  26
HETATM   26  C11 UNL     1       2.826   4.054 -14.819  1.00  0.00     0.007 A
HETATM   27  C12 UNL     1       3.575   5.141 -14.446  1.00  0.00     0.016 A
HETATM   28  C13 UNL     1       3.212   5.854 -13.335  1.00  0.00     0.018 A
HETATM   29  C14 UNL     1       2.117   5.493 -12.598  1.00  0.00     0.087 A
HETATM   30  N1  UNL     1       1.394   4.429 -12.975  1.00  0.00    -0.374 N
HETATM   31  C15 UNL     1       1.740   3.721 -14.063  1.00  0.00     0.101 A
ATOM     32  H1  UNL     1       0.576   4.154 -12.431  1.00  0.00     0.164 HD
ENDBRANCH   4  26
TORSDOF 3
ENDMDL