MODEL 5
REMARK VINA RESULT: -6.088333798      4.010      5.230
REMARK  5 active torsions:
REMARK  status: ('A' for Active; 'I' for Inactive)
REMARK    1  A    between atoms: N2_6  and  C4_8
REMARK    2  A    between atoms: C4_8  and  N3_10
REMARK    3  A    between atoms: N3_10  and  C5_12
REMARK    4  A    between atoms: C5_12  and  C6_13
REMARK    5  A    between atoms: C9_17  and  C10_18
ROOT
HETATM    1  C1  UNL     1       4.625   3.392 -14.014  1.00  0.00     0.069 C
HETATM    2  C2  UNL     1       4.508   3.140 -15.526  1.00  0.00     0.024 A
HETATM    3  N1  UNL     1       3.645   3.830 -16.250  1.00  0.00    -0.339 N
ATOM      4  H1  UNL     1       3.021   4.504 -15.807  1.00  0.00     0.168 HD
HETATM    5  C3  UNL     1       3.600   3.633 -17.564  1.00  0.00     0.151 A
HETATM    6  N2  UNL     1       2.874   4.162 -18.481  1.00  0.00    -0.313 N
ATOM      7  H2  UNL     1       3.095   3.785 -19.403  1.00  0.00     0.170 HD
HETATM    8  S2  UNL     1       4.830   2.420 -17.783  1.00  0.00    -0.052 SA
HETATM    9  C9  UNL     1       5.313   2.255 -16.158  1.00  0.00     0.032 A
ENDROOT
BRANCH   6  10
HETATM   10  C4  UNL     1       1.894   5.087 -18.544  1.00  0.00     0.177 C
HETATM   11  S1  UNL     1       2.227   6.685 -18.207  1.00  0.00    -0.040 SA
BRANCH  10  12
HETATM   12  N3  UNL     1       0.556   4.804 -18.907  1.00  0.00    -0.346 N
ATOM     13  H3  UNL     1      -0.172   5.196 -18.309  1.00  0.00     0.167 HD
BRANCH  12  14
HETATM   14  C5  UNL     1       0.123   4.042 -20.005  1.00  0.00     0.067 C
BRANCH  14  15
HETATM   15  C6  UNL     1       0.169   2.575 -19.984  1.00  0.00     0.016 C
HETATM   16  C7  UNL     1       0.027   1.868 -18.688  1.00  0.00     0.015 C
HETATM   17  C8  UNL     1       1.351   2.018 -20.788  1.00  0.00     0.015 C
ENDBRANCH  14  15
ENDBRANCH  12  14
ENDBRANCH  10  12
ENDBRANCH   6  10
BRANCH   9  18
HETATM   18  C10 UNL     1       6.330   1.319 -15.676  1.00  0.00     0.045 C
HETATM   19  C11 UNL     1       6.142   0.226 -15.020  1.00  0.00     0.077 C
HETATM   20  S3  UNL     1       7.492  -0.875 -14.455  1.00  0.00    -0.055 SA
HETATM   21  C14 UNL     1       4.989  -0.517 -14.555  1.00  0.00     0.266 C
HETATM   22  C12 UNL     1       6.549  -1.394 -12.977  1.00  0.00     0.148 C
HETATM   23  S4  UNL     1       7.173  -1.753 -11.545  1.00  0.00    -0.052 SA
HETATM   24  N4  UNL     1       5.218  -1.377 -13.462  1.00  0.00    -0.303 N
HETATM   25  C13 UNL     1       4.144  -2.203 -12.848  1.00  0.00     0.161 C
HETATM   26  O1  UNL     1       3.827  -0.408 -15.105  1.00  0.00    -0.266 OA
ENDBRANCH   9  18
TORSDOF 5
ENDMDL