MODEL 1
REMARK VINA RESULT: -6.461418009      0.000      0.000
REMARK  7 active torsions:
REMARK  status: ('A' for Active; 'I' for Inactive)
REMARK    1  A    between atoms: N1_1  and  N2_4
REMARK    2  A    between atoms: N3_6  and  C1_8
REMARK    3  A    between atoms: C1_8  and  C2_9
REMARK    4  A    between atoms: C2_9  and  N4_10
REMARK    5  A    between atoms: N4_10  and  C3_12
REMARK    6  A    between atoms: C3_12  and  N5_14
REMARK    7  A    between atoms: N5_14  and  C4_16
ROOT
HETATM    1  C3  UNL     1      27.214   8.431 -43.468  1.00  0.00     0.173 C
HETATM    2  S1  UNL     1      27.933   7.430 -44.529  1.00  0.00    -0.041 SA
ENDROOT
BRANCH   1   3
HETATM    3  N4  UNL     1      27.487   8.415 -42.090  1.00  0.00    -0.365 N
ATOM      4  H4  UNL     1      26.685   8.362 -41.462  1.00  0.00     0.161 HD
BRANCH   3   5
HETATM    5  C2  UNL     1      28.792   8.468 -41.478  1.00  0.00     0.143 C
BRANCH   5   6
HETATM    6  C1  UNL     1      29.555   9.622 -42.072  1.00  0.00     0.160 C
BRANCH   6   7
HETATM    7  N3  UNL     1      29.171  10.822 -41.315  1.00  0.00    -0.321 N
HETATM    8  N2  UNL     1      29.872  11.181 -40.372  1.00  0.00    -0.254 N
ATOM      9  H2  UNL     1      29.956  10.310 -39.848  1.00  0.00     0.207 HD
ATOM     10  H3  UNL     1      28.335  11.349 -41.570  1.00  0.00     0.181 HD
BRANCH   8  11
HETATM   11  N1  UNL     1      30.537  11.946 -39.668  1.00  0.00    -0.331 N
ATOM     12  H12 UNL     1      31.038  12.429 -40.413  1.00  0.00     0.178 HD
ATOM     13  H11 UNL     1      30.886  12.381 -38.814  1.00  0.00     0.178 HD
ENDBRANCH   8  11
ENDBRANCH   6   7
ENDBRANCH   5   6
ENDBRANCH   3   5
ENDBRANCH   1   3
BRANCH   1  14
HETATM   14  N5  UNL     1      26.262   9.343 -43.985  1.00  0.00    -0.318 N
ATOM     15  H5  UNL     1      25.293   9.238 -43.683  1.00  0.00     0.170 HD
BRANCH  14  16
HETATM   16  C4  UNL     1      26.527  10.292 -44.805  1.00  0.00     0.121 A
HETATM   17  C5  UNL     1      27.415  11.299 -44.519  1.00  0.00     0.051 A
HETATM   18  C6  UNL     1      27.659  12.291 -45.441  1.00  0.00     0.022 A
HETATM   19  C7  UNL     1      26.987  12.228 -46.637  1.00  0.00     0.107 A
HETATM   20  N6  UNL     1      26.142  11.220 -46.840  1.00  0.00    -0.310 N
HETATM   21  N7  UNL     1      25.883  10.263 -45.996  1.00  0.00    -0.286 N
ATOM     22  H6  UNL     1      25.653  11.195 -47.735  1.00  0.00     0.186 HD
ATOM     23  H7  UNL     1      25.221   9.521 -46.223  1.00  0.00     0.188 HD
ENDBRANCH  14  16
ENDBRANCH   1  14
TORSDOF 7
ENDMDL