MODEL 2
REMARK VINA RESULT: -6.966203667      0.066      1.184
REMARK  4 active torsions:
REMARK  status: ('A' for Active; 'I' for Inactive)
REMARK    1  A    between atoms: N1_1  and  C1_5
REMARK    2  A    between atoms: C1_5  and  C2_6
REMARK    3  A    between atoms: N2_7  and  C3_9
REMARK    4  A    between atoms: C6_12  and  C7_13
ROOT
HETATM    1  C3  UNL     1      27.302   9.436 -45.659  1.00  0.00     0.119 A
HETATM    2  C4  UNL     1      26.975   8.740 -44.525  1.00  0.00     0.052 A
HETATM    3  C5  UNL     1      27.828   7.727 -44.112  1.00  0.00     0.035 A
HETATM    4  C6  UNL     1      28.981   7.381 -44.775  1.00  0.00     0.058 A
HETATM    5  N3  UNL     1      29.237   8.115 -45.889  1.00  0.00    -0.298 N
ATOM      6  H3  UNL     1      30.081   7.904 -46.423  1.00  0.00     0.187 HD
HETATM    7  N4  UNL     1      28.468   9.069 -46.308  1.00  0.00    -0.285 N
ATOM      8  H4  UNL     1      28.733   9.573 -47.154  1.00  0.00     0.188 HD
ENDROOT
BRANCH   1   9
HETATM    9  N2  UNL     1      26.605  10.352 -46.100  1.00  0.00    -0.353 N
HETATM   10  C2  UNL     1      26.483  11.682 -46.374  1.00  0.00     0.089 C
ATOM     11  H2  UNL     1      25.725   9.923 -46.388  1.00  0.00     0.166 HD
BRANCH  10  12
HETATM   12  C1  UNL     1      27.627  12.593 -46.008  1.00  0.00     0.274 C
BRANCH  12  13
HETATM   13  N1  UNL     1      27.771  12.685 -44.549  1.00  0.00    -0.075 N
ATOM     14  H13 UNL     1      28.169  11.833 -44.154  1.00  0.00     0.274 HD
ATOM     15  H12 UNL     1      28.508  13.336 -44.283  1.00  0.00     0.274 HD
ATOM     16  H11 UNL     1      26.880  12.924 -44.113  1.00  0.00     0.274 HD
ENDBRANCH  12  13
ENDBRANCH  10  12
ENDBRANCH   1   9
BRANCH   4  17
HETATM   17  C7  UNL     1      29.882   6.319 -44.349  1.00  0.00    -0.008 A
HETATM   18  C8  UNL     1      29.393   5.245 -43.623  1.00  0.00     0.014 A
HETATM   19  C9  UNL     1      30.178   4.205 -43.184  1.00  0.00     0.001 A
HETATM   20  C10 UNL     1      31.517   4.240 -43.485  1.00  0.00     0.000 A
HETATM   21  C11 UNL     1      32.051   5.274 -44.197  1.00  0.00     0.001 A
HETATM   22  C12 UNL     1      31.223   6.317 -44.628  1.00  0.00     0.014 A
ENDBRANCH   4  17
TORSDOF 4
ENDMDL