MODEL 5
REMARK VINA RESULT: -6.371383892      2.824      5.052
REMARK  5 active torsions:
REMARK  status: ('A' for Active; 'I' for Inactive)
REMARK    1  A    between atoms: N1_1  and  C1_5
REMARK    2  A    between atoms: C1_5  and  C2_6
REMARK    3  A    between atoms: C2_6  and  O1_7
REMARK    4  A    between atoms: O1_7  and  C3_8
REMARK    5  A    between atoms: C5_10  and  S1_11
ROOT
HETATM    1  C3  UNL     1      28.528   5.226 -44.253  1.00  0.00     0.071 A
HETATM    2  C4  UNL     1      27.659   6.288 -44.108  1.00  0.00     0.059 A
HETATM    3  C5  UNL     1      28.192   7.551 -44.032  1.00  0.00     0.055 A
HETATM    4  C6  UNL     1      29.556   7.766 -44.096  1.00  0.00     0.061 A
HETATM    5  N4  UNL     1      30.298   8.882 -44.045  1.00  0.00    -0.364 N
ATOM      6  H4  UNL     1      29.940   9.832 -43.942  1.00  0.00     0.165 HD
HETATM    7  C7  UNL     1      31.593   8.538 -44.152  1.00  0.00     0.089 A
HETATM    8  C8  UNL     1      31.697   7.167 -44.278  1.00  0.00     0.031 A
HETATM    9  C9  UNL     1      30.391   6.674 -44.240  1.00  0.00    -0.004 A
HETATM   10  C10 UNL     1      29.894   5.392 -44.322  1.00  0.00     0.050 A
ENDROOT
BRANCH   1  11
HETATM   11  O1  UNL     1      27.965   3.944 -44.329  1.00  0.00    -0.349 OA
BRANCH  11  12
HETATM   12  C2  UNL     1      27.586   3.308 -43.144  1.00  0.00     0.203 C
BRANCH  12  13
HETATM   13  C1  UNL     1      27.432   1.827 -43.428  1.00  0.00     0.256 C
BRANCH  13  14
HETATM   14  N1  UNL     1      26.102   1.475 -43.807  1.00  0.00    -0.077 N
ATOM     15  H13 UNL     1      26.087   1.048 -44.734  1.00  0.00     0.274 HD
ATOM     16  H12 UNL     1      25.760   0.687 -43.257  1.00  0.00     0.274 HD
ATOM     17  H11 UNL     1      25.458   2.263 -43.757  1.00  0.00     0.274 HD
ENDBRANCH  13  14
ENDBRANCH  12  13
ENDBRANCH  11  12
ENDBRANCH   1  11
BRANCH   3  18
HETATM   18  S1  UNL     1      27.064   8.954 -43.841  1.00  0.00     0.034 SA
HETATM   19  N2  UNL     1      26.554  10.433 -43.277  1.00  0.00    -0.050 NA
HETATM   20  N3  UNL     1      26.151  10.107 -44.601  1.00  0.00    -0.050 NA
ENDBRANCH   3  18
TORSDOF 5
ENDMDL