MODEL 3
REMARK VINA RESULT: -7.265951550      0.498      1.304
REMARK  4 active torsions:
REMARK  status: ('A' for Active; 'I' for Inactive)
REMARK    1  A    between atoms: C2_5  and  N3_6
REMARK    2  A    between atoms: N3_6  and  C3_8
REMARK    3  A    between atoms: C3_8  and  C4_9
REMARK    4  A    between atoms: C4_9  and  C5_10
ROOT
HETATM    1  N3  UNL     1      29.523   8.849 -45.812  1.00  0.00    -0.376 N
ATOM      2  H3  UNL     1      30.337   9.277 -45.371  1.00  0.00     0.161 HD
ENDROOT
BRANCH   1   3
HETATM    3  C2  UNL     1      28.421   9.517 -45.813  1.00  0.00     0.104 A
HETATM    4  N2  UNL     1      28.319  10.668 -46.509  1.00  0.00    -0.317 N
HETATM    5  C1  UNL     1      27.196  11.398 -46.541  1.00  0.00     0.193 A
ATOM      6  H2  UNL     1      29.130  10.998 -47.032  1.00  0.00     0.170 HD
HETATM    7  N1  UNL     1      27.084  12.616 -47.275  1.00  0.00    -0.063 NA
HETATM    8  N4  UNL     1      26.093  11.008 -45.865  1.00  0.00    -0.340 N
HETATM    9  C12 UNL     1      26.122   9.859 -45.143  1.00  0.00     0.094 A
ATOM     10  H4  UNL     1      25.244  11.572 -45.898  1.00  0.00     0.167 HD
HETATM   11  C11 UNL     1      27.291   9.133 -45.132  1.00  0.00     0.065 A
ENDBRANCH   1   3
BRANCH   1  12
HETATM   12  C3  UNL     1      29.682   7.551 -46.386  1.00  0.00     0.126 C
BRANCH  12  13
HETATM   13  C4  UNL     1      30.948   6.943 -45.769  1.00  0.00     0.058 C
BRANCH  13  14
HETATM   14  C5  UNL     1      30.629   5.898 -44.789  1.00  0.00    -0.057 A
HETATM   15  C6  UNL     1      31.639   5.320 -44.046  1.00  0.00     0.007 A
HETATM   16  C7  UNL     1      31.289   4.345 -43.141  1.00  0.00     0.001 A
HETATM   17  C8  UNL     1      29.961   3.961 -42.987  1.00  0.00     0.000 A
HETATM   18  C9  UNL     1      28.959   4.546 -43.735  1.00  0.00     0.001 A
HETATM   19  C10 UNL     1      29.301   5.524 -44.644  1.00  0.00     0.007 A
ENDBRANCH  13  14
ENDBRANCH  12  13
ENDBRANCH   1  12
TORSDOF 4
ENDMDL