MODEL 4
REMARK VINA RESULT: -6.879486085      2.462      3.072
REMARK  4 active torsions:
REMARK  status: ('A' for Active; 'I' for Inactive)
REMARK    1  A    between atoms: C6_7  and  N2_8
REMARK    2  A    between atoms: N2_8  and  C7_10
REMARK    3  A    between atoms: C7_10  and  C8_11
REMARK    4  A    between atoms: C8_11  and  C9_12
ROOT
HETATM    1  N1  UNL     1      26.637   5.368 -42.297  1.00  0.00    -0.190 NA
HETATM    2  C1  UNL     1      27.255   5.846 -43.159  1.00  0.00     0.117 C
HETATM    3  C2  UNL     1      28.007   6.445 -44.229  1.00  0.00     0.115 A
HETATM    4  C3  UNL     1      29.069   5.771 -44.795  1.00  0.00     0.041 A
HETATM    5  C4  UNL     1      29.794   6.324 -45.812  1.00  0.00     0.007 A
HETATM    6  C5  UNL     1      29.481   7.586 -46.308  1.00  0.00     0.048 A
HETATM    7  C6  UNL     1      28.411   8.220 -45.711  1.00  0.00     0.101 A
HETATM    8  N5  UNL     1      27.699   7.676 -44.710  1.00  0.00    -0.334 N
ATOM      9  H5  UNL     1      26.917   8.193 -44.307  1.00  0.00     0.168 HD
ENDROOT
BRANCH   7  10
HETATM   10  N2  UNL     1      28.076   9.387 -46.128  1.00  0.00    -0.376 N
ATOM     11  H2  UNL     1      27.136   9.534 -46.494  1.00  0.00     0.161 HD
BRANCH  10  12
HETATM   12  C7  UNL     1      28.996  10.494 -46.091  1.00  0.00     0.127 C
BRANCH  12  13
HETATM   13  C8  UNL     1      28.332  11.638 -45.318  1.00  0.00     0.078 C
BRANCH  13  14
HETATM   14  C9  UNL     1      28.156  11.178 -43.917  1.00  0.00     0.027 A
HETATM   15  C10 UNL     1      27.007  11.055 -43.152  1.00  0.00     0.114 A
HETATM   16  N3  UNL     1      27.320  10.597 -41.929  1.00  0.00    -0.360 N
HETATM   17  C11 UNL     1      28.652  10.425 -41.903  1.00  0.00     0.180 A
ATOM     18  H3  UNL     1      26.670  10.415 -41.165  1.00  0.00     0.166 HD
HETATM   19  N4  UNL     1      29.149  10.779 -43.113  1.00  0.00    -0.355 N
ATOM     20  H4  UNL     1      30.135  10.746 -43.373  1.00  0.00     0.166 HD
ENDBRANCH  13  14
ENDBRANCH  12  13
ENDBRANCH  10  12
ENDBRANCH   7  10
TORSDOF 4
ENDMDL