MODEL 2
REMARK VINA RESULT: -6.086816105      0.146      1.223
REMARK  5 active torsions:
REMARK  status: ('A' for Active; 'I' for Inactive)
REMARK    1  A    between atoms: C3_3  and  N1_4
REMARK    2  A    between atoms: N1_4  and  C4_6
REMARK    3  A    between atoms: C4_6  and  C5_7
REMARK    4  A    between atoms: C5_7  and  N2_8
REMARK    5  A    between atoms: N2_8  and  C6_10
ROOT
HETATM    1  C4  UNL     1      28.717   4.292 -43.767  1.00  0.00     0.139 C
ENDROOT
BRANCH   1   2
HETATM    2  N1  UNL     1      28.244   5.635 -43.510  1.00  0.00    -0.388 N
ATOM      3  H1  UNL     1      27.798   5.871 -42.624  1.00  0.00     0.159 HD
BRANCH   2   4
HETATM    4  C3  UNL     1      28.400   6.518 -44.422  1.00  0.00     0.030 A
HETATM    5  C2  UNL     1      29.361   6.376 -45.421  1.00  0.00     0.046 A
HETATM    6  C1  UNL     1      29.528   7.324 -46.398  1.00  0.00     0.089 A
HETATM    7  N4  UNL     1      28.759   8.418 -46.411  1.00  0.00    -0.375 N
HETATM    8  C10 UNL     1      27.803   8.601 -45.454  1.00  0.00     0.089 A
ATOM      9  H4  UNL     1      28.887   9.120 -47.141  1.00  0.00     0.164 HD
HETATM   10  C9  UNL     1      27.624   7.652 -44.460  1.00  0.00     0.046 A
ENDBRANCH   2   4
ENDBRANCH   1   2
BRANCH   1  11
HETATM   11  C5  UNL     1      27.587   3.292 -43.811  1.00  0.00     0.141 C
BRANCH  11  12
HETATM   12  N2  UNL     1      28.008   1.971 -43.441  1.00  0.00    -0.369 N
ATOM     13  H2  UNL     1      28.920   1.807 -43.015  1.00  0.00     0.161 HD
BRANCH  12  14
HETATM   14  C6  UNL     1      27.175   0.981 -43.669  1.00  0.00     0.144 A
HETATM   15  N3  UNL     1      25.935   1.038 -44.153  1.00  0.00    -0.346 N
HETATM   16  C7  UNL     1      25.269  -0.069 -44.306  1.00  0.00     0.097 A
ATOM     17  H3  UNL     1      25.514   1.935 -44.400  1.00  0.00     0.167 HD
HETATM   18  C8  UNL     1      25.887  -1.242 -43.958  1.00  0.00     0.070 A
HETATM   19  S1  UNL     1      27.411  -0.691 -43.422  1.00  0.00    -0.065 SA
ENDBRANCH  12  14
ENDBRANCH  11  12
ENDBRANCH   1  11
TORSDOF 5
ENDMDL