MODEL 1
REMARK VINA RESULT: -5.799904885      0.000      0.000
REMARK  7 active torsions:
REMARK  status: ('A' for Active; 'I' for Inactive)
REMARK    1  A    between atoms: C2_2  and  C3_3
REMARK    2  A    between atoms: C3_3  and  N1_4
REMARK    3  A    between atoms: N1_4  and  C4_6
REMARK    4  A    between atoms: C4_6  and  N2_8
REMARK    5  A    between atoms: N2_8  and  C5_10
REMARK    6  A    between atoms: C7_14  and  N4_15
REMARK    7  A    between atoms: N4_15  and  O1_17
ROOT
HETATM    1  C5  UNL     1      25.536   0.191 -44.866  1.00  0.00     0.232 A
HETATM    2  N3  UNL     1      24.432  -0.582 -44.923  1.00  0.00    -0.328 N
ATOM      3  H3  UNL     1      23.629  -0.502 -44.300  1.00  0.00     0.169 HD
HETATM    4  C6  UNL     1      24.550  -1.473 -45.923  1.00  0.00     0.149 A
HETATM    5  C7  UNL     1      25.780  -1.221 -46.489  1.00  0.00     0.186 A
HETATM    6  O2  UNL     1      26.307  -0.238 -45.829  1.00  0.00    -0.259 OA
ENDROOT
BRANCH   1   7
HETATM    7  N2  UNL     1      25.764   1.161 -44.018  1.00  0.00    -0.299 N
ATOM      8  H2  UNL     1      24.993   1.688 -43.608  1.00  0.00     0.171 HD
BRANCH   7   9
HETATM    9  C4  UNL     1      27.110   1.464 -43.681  1.00  0.00     0.174 C
HETATM   10  S1  UNL     1      27.593   3.027 -43.471  1.00  0.00    -0.041 SA
BRANCH   9  11
HETATM   11  N1  UNL     1      28.073   0.428 -43.518  1.00  0.00    -0.364 N
ATOM     12  H1  UNL     1      28.893   0.404 -44.125  1.00  0.00     0.162 HD
BRANCH  11  13
HETATM   13  C3  UNL     1      27.910  -0.595 -42.505  1.00  0.00     0.148 C
BRANCH  13  14
HETATM   14  C2  UNL     1      28.673  -1.805 -42.904  1.00  0.00    -0.018 C
HETATM   15  C1  UNL     1      28.163  -2.623 -43.807  1.00  0.00     0.008 C
ENDBRANCH  13  14
ENDBRANCH  11  13
ENDBRANCH   9  11
ENDBRANCH   7   9
ENDBRANCH   1   7
BRANCH   5  16
HETATM   16  N4  UNL     1      26.389  -1.904 -47.606  1.00  0.00    -0.246 N
ATOM     17  H4  UNL     1      25.936  -2.084 -48.502  1.00  0.00     0.196 HD
BRANCH  16  18
HETATM   18  O1  UNL     1      27.638  -2.265 -47.289  1.00  0.00    -0.288 OA
ATOM     19  H1  UNL     1      27.862  -3.071 -47.737  1.00  0.00     0.244 HD
ENDBRANCH  16  18
ENDBRANCH   5  16
TORSDOF 7
ENDMDL