MODEL 3
REMARK VINA RESULT: -6.748688188      1.914      2.475
REMARK  4 active torsions:
REMARK  status: ('A' for Active; 'I' for Inactive)
REMARK    1  A    between atoms: C5_6  and  N2_7
REMARK    2  A    between atoms: N2_7  and  C6_9
REMARK    3  A    between atoms: C6_9  and  C7_10
REMARK    4  A    between atoms: C7_10  and  C8_11
ROOT
HETATM    1  N1  UNL     1      32.200   4.945 -44.084  1.00  0.00    -0.191 NA
HETATM    2  C1  UNL     1      31.541   5.813 -44.501  1.00  0.00     0.101 C
HETATM    3  C2  UNL     1      30.748   6.893 -45.018  1.00  0.00     0.060 A
HETATM    4  C3  UNL     1      30.908   8.163 -44.503  1.00  0.00     0.028 A
HETATM    5  C4  UNL     1      30.159   9.217 -44.981  1.00  0.00     0.050 A
HETATM    6  C5  UNL     1      29.244   8.987 -45.985  1.00  0.00     0.100 A
HETATM    7  N5  UNL     1      29.090   7.741 -46.487  1.00  0.00    -0.351 N
ATOM      8  H5  UNL     1      28.410   7.582 -47.230  1.00  0.00     0.166 HD
HETATM    9  C11 UNL     1      29.822   6.699 -46.022  1.00  0.00     0.112 A
ENDROOT
BRANCH   6  10
HETATM   10  N2  UNL     1      28.564   9.982 -46.409  1.00  0.00    -0.376 N
ATOM     11  H2  UNL     1      28.695  10.245 -47.386  1.00  0.00     0.161 HD
BRANCH  10  12
HETATM   12  C6  UNL     1      27.638  10.760 -45.650  1.00  0.00     0.127 C
BRANCH  12  13
HETATM   13  C7  UNL     1      26.420   9.982 -45.202  1.00  0.00     0.078 C
BRANCH  13  14
HETATM   14  C8  UNL     1      26.821   9.242 -43.964  1.00  0.00     0.027 A
HETATM   15  C9  UNL     1      26.600   7.886 -43.706  1.00  0.00     0.114 A
HETATM   16  N3  UNL     1      27.098   7.581 -42.494  1.00  0.00    -0.360 N
HETATM   17  C10 UNL     1      27.627   8.706 -41.981  1.00  0.00     0.180 A
ATOM     18  H3  UNL     1      27.078   6.664 -42.046  1.00  0.00     0.166 HD
HETATM   19  N4  UNL     1      27.452   9.694 -42.874  1.00  0.00    -0.355 N
ATOM     20  H4  UNL     1      27.758  10.658 -42.740  1.00  0.00     0.166 HD
ENDBRANCH  13  14
ENDBRANCH  12  13
ENDBRANCH  10  12
ENDBRANCH   6  10
TORSDOF 4
ENDMDL