MODEL 4
REMARK VINA RESULT: -5.766856788      1.811      3.014
REMARK  4 active torsions:
REMARK  status: ('A' for Active; 'I' for Inactive)
REMARK    1  A    between atoms: N1_2  and  C3_4
REMARK    2  A    between atoms: C3_4  and  C4_5
REMARK    3  A    between atoms: C4_5  and  N2_6
REMARK    4  A    between atoms: N2_6  and  C5_8
ROOT
HETATM    1  C5  UNL     1      27.823   7.051 -44.474  1.00  0.00     0.131 A
HETATM    2  N3  UNL     1      28.786   6.646 -45.305  1.00  0.00    -0.337 N
ATOM      3  H3  UNL     1      29.122   5.688 -45.207  1.00  0.00     0.168 HD
HETATM    4  C6  UNL     1      29.348   7.410 -46.265  1.00  0.00     0.182 A
HETATM    5  N4  UNL     1      28.911   8.672 -46.398  1.00  0.00    -0.350 N
ATOM      6  H4  UNL     1      29.324   9.265 -47.118  1.00  0.00     0.166 HD
HETATM    7  C7  UNL     1      27.939   9.179 -45.606  1.00  0.00     0.065 A
HETATM    8  C8  UNL     1      27.346  10.432 -45.571  1.00  0.00     0.049 A
HETATM    9  C9  UNL     1      26.424  10.348 -44.552  1.00  0.00     0.091 A
HETATM   10  N5  UNL     1      26.460   9.115 -44.006  1.00  0.00    -0.361 N
ATOM     11  H5  UNL     1      25.875   8.799 -43.232  1.00  0.00     0.165 HD
HETATM   12  C10 UNL     1      27.380   8.370 -44.630  1.00  0.00     0.103 A
ENDROOT
BRANCH   1  13
HETATM   13  N2  UNL     1      27.262   6.383 -43.560  1.00  0.00    -0.373 N
ATOM     14  H2  UNL     1      26.540   6.866 -43.026  1.00  0.00     0.161 HD
BRANCH  13  15
HETATM   15  C4  UNL     1      27.527   5.012 -43.183  1.00  0.00     0.151 C
BRANCH  15  16
HETATM   16  C3  UNL     1      28.303   5.053 -41.898  1.00  0.00     0.290 C
BRANCH  16  17
HETATM   17  N1  UNL     1      29.695   4.848 -42.054  1.00  0.00     0.081 N
HETATM   18  C1  UNL     1      29.983   3.963 -43.132  1.00  0.00     0.309 C
HETATM   19  C2  UNL     1      30.511   6.011 -41.957  1.00  0.00     0.309 C
ENDBRANCH  16  17
ENDBRANCH  15  16
ENDBRANCH  13  15
ENDBRANCH   1  13
TORSDOF 4
ENDMDL