MODEL 2
REMARK VINA RESULT: -6.094952334      1.462      1.937
REMARK  3 active torsions:
REMARK  status: ('A' for Active; 'I' for Inactive)
REMARK    1  A    between atoms: S1_2  and  C2_3
REMARK    2  A    between atoms: C5_6  and  C6_7
REMARK    3  A    between atoms: C6_7  and  N1_8
ROOT
HETATM    1  C2  UNL     1      28.182   5.873 -44.062  1.00  0.00     0.024 A
HETATM    2  C3  UNL     1      28.691   6.727 -45.013  1.00  0.00     0.021 A
HETATM    3  C4  UNL     1      28.141   7.989 -45.223  1.00  0.00     0.010 A
HETATM    4  C5  UNL     1      27.060   8.426 -44.479  1.00  0.00    -0.036 A
HETATM    5  C9  UNL     1      26.571   7.545 -43.531  1.00  0.00     0.036 A
HETATM    6  C10 UNL     1      27.103   6.305 -43.318  1.00  0.00     0.063 A
HETATM    7  N4  UNL     1      26.554   5.436 -42.322  1.00  0.00    -0.101 NA
ENDROOT
BRANCH   4   8
HETATM    8  C6  UNL     1      26.513   9.754 -44.729  1.00  0.00     0.188 C
BRANCH   8   9
HETATM    9  N1  UNL     1      27.407  10.836 -44.454  1.00  0.00    -0.283 N
HETATM   10  C7  UNL     1      27.973  11.028 -43.248  1.00  0.00     0.201 A
HETATM   11  N2  UNL     1      28.749  12.123 -43.338  1.00  0.00    -0.346 N
HETATM   12  C8  UNL     1      28.677  12.622 -44.588  1.00  0.00     0.198 A
ATOM     13  H2  UNL     1      29.305  12.515 -42.578  1.00  0.00     0.167 HD
HETATM   14  N3  UNL     1      27.838  11.799 -45.253  1.00  0.00    -0.293 N
ATOM     15  H3  UNL     1      27.573  11.905 -46.232  1.00  0.00     0.188 HD
ENDBRANCH   8   9
ENDBRANCH   4   8
BRANCH   1  16
HETATM   16  S1  UNL     1      28.838   4.252 -43.746  1.00  0.00    -0.133 SA
HETATM   17  C1  UNL     1      30.562   4.392 -43.212  1.00  0.00     0.095 C
ENDBRANCH   1  16
TORSDOF 3
ENDMDL