MODEL 5
REMARK VINA RESULT: -7.156738759      3.140      3.914
REMARK  13 active torsions:
REMARK  status: ('A' for Active; 'I' for Inactive)
REMARK    1  A    between atoms: C2_2  and  N1_3
REMARK    2  A    between atoms: N1_3  and  C4_5
REMARK    3  A    between atoms: N1_3  and  C6_9
REMARK    4  A    between atoms: C4_5  and  C5_6
REMARK    5  A    between atoms: C5_6  and  O1_7
REMARK    6  A    between atoms: C6_9  and  N2_10
REMARK    7  A    between atoms: N2_10  and  C7_13
REMARK    8  A    between atoms: C7_13  and  C8_14
REMARK    9  A    between atoms: C8_14  and  S1_15
REMARK   10  A    between atoms: S1_15  and  C10_17
REMARK   11  A    between atoms: C10_17  and  C11_18
REMARK   12  A    between atoms: C11_18  and  C12_19
REMARK   13  A    between atoms: C12_19  and  N3_20
ROOT
HETATM    1  S1  UNL     1      31.166  -6.556  46.443  1.00  0.00    -0.222 SA
HETATM    2  C9  UNL     1      31.534  -8.072  45.645  1.00  0.00     0.078 C
ENDROOT
BRANCH   1   3
HETATM    3  C8  UNL     1      29.633  -6.618  47.293  1.00  0.00     0.090 C
BRANCH   3   4
HETATM    4  C7  UNL     1      28.698  -7.596  46.681  1.00  0.00     0.243 C
BRANCH   4   5
HETATM    5  N2  UNL     1      28.511  -8.850  47.368  1.00  0.00    -0.050 N
ATOM      6  H22 UNL     1      28.286  -8.719  48.354  1.00  0.00     0.279 HD
ATOM      7  H21 UNL     1      29.387  -9.360  47.483  1.00  0.00     0.279 HD
BRANCH   5   8
HETATM    8  C6  UNL     1      27.506  -9.638  46.678  1.00  0.00     0.467 C
BRANCH   8   9
HETATM    9  N1  UNL     1      27.721 -11.038  46.638  1.00  0.00    -0.046 N
HETATM   10  C3  UNL     1      29.102 -11.320  46.949  1.00  0.00     0.274 C
BRANCH   9  11
HETATM   11  C2  UNL     1      26.958 -11.696  47.701  1.00  0.00     0.234 C
HETATM   12  C1  UNL     1      27.143 -13.171  47.738  1.00  0.00     0.035 C
ENDBRANCH   9  11
BRANCH   9  13
HETATM   13  C4  UNL     1      27.466 -11.649  45.357  1.00  0.00     0.264 C
BRANCH  13  14
HETATM   14  C5  UNL     1      27.365 -10.724  44.202  1.00  0.00     0.192 C
BRANCH  14  15
HETATM   15  O1  UNL     1      26.288 -11.194  43.410  1.00  0.00    -0.399 OA
ATOM     16  H1  UNL     1      25.937 -10.434  42.961  1.00  0.00     0.209 HD
ENDBRANCH  14  15
ENDBRANCH  13  14
ENDBRANCH   9  13
ENDBRANCH   8   9
ENDBRANCH   5   8
ENDBRANCH   4   5
ENDBRANCH   3   4
ENDBRANCH   1   3
BRANCH   1  17
HETATM   17  C10 UNL     1      31.091  -5.206  45.265  1.00  0.00     0.065 C
BRANCH  17  18
HETATM   18  C11 UNL     1      31.612  -5.637  43.930  1.00  0.00     0.038 C
BRANCH  18  19
HETATM   19  C12 UNL     1      30.903  -5.100  42.741  1.00  0.00     0.251 C
BRANCH  19  20
HETATM   20  N3  UNL     1      29.949  -5.945  42.096  1.00  0.00    -0.005 N
HETATM   21  C13 UNL     1      29.847  -5.745  40.662  1.00  0.00     0.287 C
HETATM   22  C14 UNL     1      30.036  -7.307  42.376  1.00  0.00     0.211 A
HETATM   23  C15 UNL     1      28.955  -7.723  42.994  1.00  0.00     0.046 A
HETATM   24  C16 UNL     1      28.064  -6.611  43.157  1.00  0.00     0.086 A
HETATM   25  C17 UNL     1      28.659  -5.527  42.613  1.00  0.00     0.229 A
HETATM   26  C19 UNL     1      26.798  -6.425  43.719  1.00  0.00     0.260 A
HETATM   27  N4  UNL     1      28.057  -4.320  42.614  1.00  0.00    -0.331 N
HETATM   28  C18 UNL     1      26.825  -4.188  43.173  1.00  0.00     0.185 A
ATOM     29  H4  UNL     1      28.523  -3.512  42.200  1.00  0.00     0.168 HD
HETATM   30  N5  UNL     1      26.186  -5.228  43.727  1.00  0.00    -0.319 N
ATOM     31  H5  UNL     1      25.261  -5.115  44.142  1.00  0.00     0.169 HD
HETATM   32  O2  UNL     1      26.241  -7.423  44.224  1.00  0.00    -0.267 OA
ENDBRANCH  19  20
ENDBRANCH  18  19
ENDBRANCH  17  18
ENDBRANCH   1  17
TORSDOF 13
ENDMDL