MODEL 4
REMARK VINA RESULT: -7.394269876      4.293      7.486
REMARK  13 active torsions:
REMARK  status: ('A' for Active; 'I' for Inactive)
REMARK    1  A    between atoms: C3_3  and  N1_4
REMARK    2  A    between atoms: N3_12  and  C7_13
REMARK    3  A    between atoms: C7_13  and  C8_14
REMARK    4  A    between atoms: C8_14  and  C9_15
REMARK    5  A    between atoms: C9_15  and  C10_16
REMARK    6  A    between atoms: C10_16  and  C11_17
REMARK    7  A    between atoms: C11_17  and  C12_18
REMARK    8  A    between atoms: C12_18  and  C13_19
REMARK    9  A    between atoms: C13_19  and  C14_20
REMARK   10  A    between atoms: C14_20  and  C15_21
REMARK   11  A    between atoms: C15_21  and  C16_22
REMARK   12  A    between atoms: C19_27  and  N5_28
REMARK   13  A    between atoms: N5_28  and  C20_30
ROOT
HETATM    1  C1  UNL     1      26.794  -4.872  39.577  1.00  0.00     0.014 C
HETATM    2  C2  UNL     1      26.473  -6.021  39.441  1.00  0.00    -0.096 C
HETATM    3  C3  UNL     1      26.108  -7.399  39.294  1.00  0.00     0.247 C
ENDROOT
BRANCH   3   4
HETATM    4  N1  UNL     1      27.155  -8.238  38.839  1.00  0.00    -0.227 N
HETATM    5  C4  UNL     1      27.217  -8.695  37.469  1.00  0.00     0.338 C
HETATM    6  O1  UNL     1      26.267  -8.337  36.744  1.00  0.00    -0.245 OA
HETATM    7  N2  UNL     1      28.269  -9.484  36.983  1.00  0.00    -0.333 N
HETATM    8  C5  UNL     1      29.552  -9.430  37.653  1.00  0.00     0.229 C
ATOM      9  H2  UNL     1      28.133 -10.086  36.171  1.00  0.00     0.164 HD
HETATM   10  C6  UNL     1      29.276  -9.442  39.105  1.00  0.00     0.256 C
HETATM   11  O2  UNL     1      29.933 -10.133  39.895  1.00  0.00    -0.270 OA
HETATM   12  N3  UNL     1      28.208  -8.627  39.664  1.00  0.00    -0.253 N
BRANCH  12  13
HETATM   13  C7  UNL     1      28.325  -8.240  41.049  1.00  0.00     0.152 C
BRANCH  13  14
HETATM   14  C8  UNL     1      29.399  -7.199  41.194  1.00  0.00     0.022 C
BRANCH  14  15
HETATM   15  C9  UNL     1      29.103  -6.179  42.286  1.00  0.00     0.002 C
BRANCH  15  16
HETATM   16  C10 UNL     1      30.340  -5.365  42.536  1.00  0.00     0.000 C
BRANCH  16  17
HETATM   17  C11 UNL     1      30.175  -4.430  43.718  1.00  0.00     0.000 C
BRANCH  17  18
HETATM   18  C12 UNL     1      31.264  -4.587  44.746  1.00  0.00     0.000 C
BRANCH  18  19
HETATM   19  C13 UNL     1      31.640  -6.009  44.987  1.00  0.00     0.004 C
BRANCH  19  20
HETATM   20  C14 UNL     1      31.562  -6.464  46.409  1.00  0.00     0.031 C
BRANCH  20  21
HETATM   21  C15 UNL     1      30.191  -6.293  46.927  1.00  0.00     0.022 C
BRANCH  21  22
HETATM   22  C16 UNL     1      29.219  -7.179  46.689  1.00  0.00     0.103 A
HETATM   23  N4  UNL     1      28.340  -7.160  45.662  1.00  0.00    -0.340 N
HETATM   24  C17 UNL     1      27.503  -8.197  45.730  1.00  0.00     0.068 A
ATOM     25  H4  UNL     1      28.320  -6.448  44.932  1.00  0.00     0.167 HD
HETATM   26  C18 UNL     1      26.511  -8.548  44.939  1.00  0.00     0.047 C
HETATM   27  C19 UNL     1      27.882  -8.893  46.855  1.00  0.00     0.129 A
HETATM   28  N6  UNL     1      28.915  -8.261  47.415  1.00  0.00    -0.327 N
ATOM     29  H6  UNL     1      29.399  -8.557  48.263  1.00  0.00     0.169 HD
BRANCH  27  30
HETATM   30  N5  UNL     1      27.303  -9.971  47.260  1.00  0.00    -0.375 N
ATOM     31  H5  UNL     1      26.326  -9.943  47.550  1.00  0.00     0.161 HD
BRANCH  30  32
HETATM   32  C20 UNL     1      28.021 -11.206  47.303  1.00  0.00     0.116 C
HETATM   33  C21 UNL     1      27.101 -12.335  47.736  1.00  0.00     0.026 C
ENDBRANCH  30  32
ENDBRANCH  27  30
ENDBRANCH  21  22
ENDBRANCH  20  21
ENDBRANCH  19  20
ENDBRANCH  18  19
ENDBRANCH  17  18
ENDBRANCH  16  17
ENDBRANCH  15  16
ENDBRANCH  14  15
ENDBRANCH  13  14
ENDBRANCH  12  13
ENDBRANCH   3   4
TORSDOF 13
ENDMDL