MODEL 1
REMARK VINA RESULT: -8.502500910      0.000      0.000
REMARK  13 active torsions:
REMARK  status: ('A' for Active; 'I' for Inactive)
REMARK    1  A    between atoms: C2_2  and  C3_3
REMARK    2  A    between atoms: C3_3  and  C4_4
REMARK    3  A    between atoms: C4_4  and  C5_5
REMARK    4  A    between atoms: C5_5  and  C6_6
REMARK    5  A    between atoms: C6_6  and  C7_7
REMARK    6  A    between atoms: N2_14  and  C10_15
REMARK    7  A    between atoms: C10_15  and  C11_16
REMARK    8  A    between atoms: C11_16  and  C12_17
REMARK    9  A    between atoms: C12_17  and  C13_18
REMARK   10  A    between atoms: C16_25  and  C17_26
REMARK   11  A    between atoms: C17_26  and  C18_27
REMARK   12  A    between atoms: C18_27  and  C19_28
REMARK   13  A    between atoms: C19_28  and  C20_29
ROOT
HETATM    1  C11 UNL     1      29.307  -8.538  43.648  1.00  0.00     0.051 C
ENDROOT
BRANCH   1   2
HETATM    2  C10 UNL     1      29.190  -9.965  44.176  1.00  0.00     0.132 C
BRANCH   2   3
HETATM    3  N2  UNL     1      28.438  -9.975  45.416  1.00  0.00    -0.322 N
HETATM    4  C7  UNL     1      28.852  -9.559  46.742  1.00  0.00     0.190 C
HETATM    5  N1  UNL     1      28.110 -10.451  47.608  1.00  0.00    -0.332 N
HETATM    6  C8  UNL     1      26.841 -10.737  46.983  1.00  0.00     0.311 C
ATOM      7  H1  UNL     1      28.430 -10.816  48.505  1.00  0.00     0.165 HD
HETATM    8  O1  UNL     1      25.786 -11.151  47.491  1.00  0.00    -0.262 OA
HETATM    9  C9  UNL     1      27.075 -10.423  45.565  1.00  0.00     0.313 C
HETATM   10  O2  UNL     1      26.253 -10.515  44.613  1.00  0.00    -0.262 OA
BRANCH   4  11
HETATM   11  C6  UNL     1      28.473  -8.120  47.015  1.00  0.00     0.047 C
BRANCH  11  12
HETATM   12  C5  UNL     1      29.641  -7.271  47.377  1.00  0.00     0.004 C
BRANCH  12  13
HETATM   13  C4  UNL     1      29.851  -6.106  46.451  1.00  0.00     0.004 C
BRANCH  13  14
HETATM   14  C3  UNL     1      31.314  -6.154  46.006  1.00  0.00     0.026 C
BRANCH  14  15
HETATM   15  C2  UNL     1      31.639  -5.070  45.058  1.00  0.00    -0.037 C
HETATM   16  C1  UNL     1      30.697  -4.283  44.543  1.00  0.00     0.007 C
ENDBRANCH  14  15
ENDBRANCH  13  14
ENDBRANCH  12  13
ENDBRANCH  11  12
ENDBRANCH   4  11
ENDBRANCH   2   3
ENDBRANCH   1   2
BRANCH   1  17
HETATM   17  C12 UNL     1      27.998  -7.897  43.557  1.00  0.00     0.023 C
BRANCH  17  18
HETATM   18  C13 UNL     1      27.675  -6.946  42.729  1.00  0.00     0.104 A
HETATM   19  N3  UNL     1      27.626  -5.666  43.140  1.00  0.00    -0.306 N
HETATM   20  C14 UNL     1      27.290  -4.672  42.279  1.00  0.00     0.299 A
ATOM     21  H3  UNL     1      27.844  -5.440  44.111  1.00  0.00     0.170 HD
HETATM   22  O3  UNL     1      27.251  -3.481  42.692  1.00  0.00    -0.264 OA
HETATM   23  C15 UNL     1      26.994  -4.979  40.967  1.00  0.00     0.265 A
HETATM   24  O4  UNL     1      26.682  -4.076  40.161  1.00  0.00    -0.280 OA
HETATM   25  C16 UNL     1      27.043  -6.292  40.538  1.00  0.00     0.086 A
HETATM   26  N4  UNL     1      27.381  -7.233  41.429  1.00  0.00    -0.340 N
ATOM     27  H4  UNL     1      27.421  -8.205  41.122  1.00  0.00     0.167 HD
BRANCH  25  28
HETATM   28  C17 UNL     1      26.756  -6.566  39.275  1.00  0.00     0.007 C
BRANCH  28  29
HETATM   29  C18 UNL     1      25.654  -7.467  38.948  1.00  0.00     0.029 C
BRANCH  29  30
HETATM   30  C19 UNL     1      24.343  -6.766  38.727  1.00  0.00     0.003 C
BRANCH  30  31
HETATM   31  C20 UNL     1      24.468  -5.594  37.787  1.00  0.00    -0.004 C
HETATM   32  C21 UNL     1      23.161  -5.295  37.088  1.00  0.00     0.005 C
ENDBRANCH  30  31
ENDBRANCH  29  30
ENDBRANCH  28  29
ENDBRANCH  25  28
ENDBRANCH  17  18
ENDBRANCH   1  17
TORSDOF 13
ENDMDL