MODEL 1
REMARK VINA RESULT: -7.576329639      0.000      0.000
REMARK  15 active torsions:
REMARK  status: ('A' for Active; 'I' for Inactive)
REMARK    1  A    between atoms: C2_2  and  C20_30
REMARK    2  A    between atoms: C3_3  and  C4_4
REMARK    3  A    between atoms: C4_4  and  C5_5
REMARK    4  A    between atoms: C6_6  and  C8_8
REMARK    5  A    between atoms: C8_8  and  N1_9
REMARK    6  A    between atoms: C8_8  and  C16_23
REMARK    7  A    between atoms: N1_9  and  C9_11
REMARK    8  A    between atoms: C9_11  and  O1_12
REMARK    9  A    between atoms: C9_11  and  C10_14
REMARK   10  A    between atoms: C10_14  and  C11_15
REMARK   11  A    between atoms: C10_14  and  N3_19
REMARK   12  A    between atoms: C11_15  and  C12_16
REMARK       I    between atoms: C16_23  and  N4_25
REMARK   13  A    between atoms: N4_25  and  C17_27
REMARK   14  A    between atoms: C20_30  and  N5_31
REMARK   15  A    between atoms: N5_31  and  N6_33
ROOT
HETATM    1  C8  UNL     1      26.966  -7.869  44.167  1.00  0.00     0.109 C
ENDROOT
BRANCH   1   2
HETATM    2  C6  UNL     1      27.557  -7.595  42.841  1.00  0.00    -0.022 C
HETATM    3  C5  UNL     1      27.086  -6.577  42.105  1.00  0.00     0.064 C
HETATM    4  C7  UNL     1      28.606  -8.447  42.258  1.00  0.00     0.051 C
BRANCH   3   5
HETATM    5  C4  UNL     1      27.396  -6.149  40.813  1.00  0.00    -0.127 C
BRANCH   5   6
HETATM    6  C3  UNL     1      27.675  -5.749  39.646  1.00  0.00     0.063 C
HETATM    7  C2  UNL     1      28.886  -5.788  38.892  1.00  0.00    -0.038 C
HETATM    8  C1  UNL     1      30.212  -6.246  39.389  1.00  0.00     0.050 C
BRANCH   7   9
HETATM    9  C20 UNL     1      28.886  -5.325  37.632  1.00  0.00     0.113 C
BRANCH   9  10
HETATM   10  N5  UNL     1      28.238  -5.851  36.515  1.00  0.00    -0.318 N
ATOM     11  H5  UNL     1      28.665  -6.682  36.106  1.00  0.00     0.185 HD
BRANCH  10  12
HETATM   12  N6  UNL     1      27.207  -5.439  35.952  1.00  0.00    -0.345 N
ATOM     13  H62 UNL     1      27.005  -4.451  36.107  1.00  0.00     0.176 HD
ATOM     14  H61 UNL     1      26.554  -5.959  35.365  1.00  0.00     0.176 HD
ENDBRANCH  10  12
ENDBRANCH   9  10
ENDBRANCH   7   9
ENDBRANCH   5   6
ENDBRANCH   3   5
ENDBRANCH   1   2
BRANCH   1  15
HETATM   15  N1  UNL     1      27.115  -6.750  45.036  1.00  0.00    -0.331 N
ATOM     16  H1  UNL     1      26.249  -6.307  45.344  1.00  0.00     0.168 HD
BRANCH  15  17
HETATM   17  C9  UNL     1      28.290  -6.185  45.519  1.00  0.00     0.172 C
BRANCH  17  18
HETATM   18  O1  UNL     1      28.779  -6.704  46.619  1.00  0.00    -0.345 OA
ATOM     19  H1  UNL     1      29.630  -7.119  46.549  1.00  0.00     0.219 HD
ENDBRANCH  17  18
BRANCH  17  20
HETATM   20  C10 UNL     1      29.024  -5.061  44.952  1.00  0.00     0.171 C
BRANCH  20  21
HETATM   21  C11 UNL     1      28.042  -4.065  44.468  1.00  0.00     0.169 C
BRANCH  21  22
HETATM   22  C12 UNL     1      28.195  -2.658  44.800  1.00  0.00     0.236 C
HETATM   23  N2  UNL     1      27.555  -2.126  45.999  1.00  0.00    -0.062 NA
HETATM   24  O2  UNL     1      28.843  -1.853  44.132  1.00  0.00    -0.277 OA
ENDBRANCH  21  22
ENDBRANCH  20  21
BRANCH  20  25
HETATM   25  N3  UNL     1      30.251  -5.298  44.322  1.00  0.00    -0.048 N
HETATM   26  C13 UNL     1      30.748  -6.690  44.428  1.00  0.00     0.278 C
HETATM   27  C14 UNL     1      30.334  -5.001  42.899  1.00  0.00     0.278 C
HETATM   28  C15 UNL     1      31.351  -4.496  44.916  1.00  0.00     0.278 C
ENDBRANCH  20  25
ENDBRANCH  17  20
ENDBRANCH  15  17
ENDBRANCH   1  15
BRANCH   1  29
HETATM   29  C16 UNL     1      27.020  -9.216  44.711  1.00  0.00     0.269 C
HETATM   30  O3  UNL     1      26.365 -10.118  44.092  1.00  0.00    -0.266 OA
HETATM   31  N4  UNL     1      27.761  -9.562  45.871  1.00  0.00    -0.352 N
ATOM     32  H4  UNL     1      28.234  -8.781  46.324  1.00  0.00     0.163 HD
BRANCH  31  33
HETATM   33  C17 UNL     1      27.951 -10.818  46.503  1.00  0.00     0.076 C
HETATM   34  C18 UNL     1      26.788 -11.257  47.403  1.00  0.00     0.032 C
HETATM   35  C19 UNL     1      29.203 -10.943  47.287  1.00  0.00     0.032 C
ENDBRANCH  31  33
ENDBRANCH   1  29
TORSDOF 15
ENDMDL