MODEL 3
REMARK VINA RESULT: -6.570439040      2.754      4.335
REMARK  12 active torsions:
REMARK  status: ('A' for Active; 'I' for Inactive)
REMARK    1  A    between atoms: C2_2  and  C3_3
REMARK    2  A    between atoms: C3_3  and  N1_4
REMARK    3  A    between atoms: C5_9  and  C6_10
REMARK    4  A    between atoms: C6_10  and  C7_11
REMARK    5  A    between atoms: C9_16  and  C10_17
REMARK       I    between atoms: C10_17  and  N5_19
REMARK    6  A    between atoms: N5_19  and  C12_21
REMARK    7  A    between atoms: C12_21  and  C14_23
REMARK    8  A    between atoms: C12_21  and  C20_30
REMARK    9  A    between atoms: C14_23  and  C15_24
REMARK   10  A    between atoms: C15_24  and  C16_25
REMARK   11  A    between atoms: C16_25  and  N6_26
REMARK   12  A    between atoms: C20_30  and  N7_31
ROOT
HETATM    1  C10 UNL     1      29.191  -7.587  39.893  1.00  0.00     0.254 C
HETATM    2  O1  UNL     1      29.052  -8.625  39.211  1.00  0.00    -0.271 OA
HETATM    3  N5  UNL     1      29.391  -7.577  41.290  1.00  0.00    -0.341 N
HETATM    4  C11 UNL     1      29.560  -6.310  41.968  1.00  0.00     0.154 C
ENDROOT
BRANCH   1   5
HETATM    5  C9  UNL     1      29.129  -6.302  39.106  1.00  0.00     0.311 C
HETATM    6  C3  UNL     1      27.708  -5.957  38.658  1.00  0.00     0.115 C
HETATM    7  C5  UNL     1      28.296  -5.880  37.318  1.00  0.00     0.221 C
HETATM    8  N4  UNL     1      29.512  -6.588  37.731  1.00  0.00    -0.052 N
ATOM      9  H42 UNL     1      29.698  -7.542  37.423  1.00  0.00     0.278 HD
ATOM     10  H41 UNL     1      30.427  -6.319  37.371  1.00  0.00     0.278 HD
BRANCH   6  11
HETATM   11  C2  UNL     1      27.247  -4.732  39.341  1.00  0.00    -0.002 C
HETATM   12  C1  UNL     1      26.832  -4.670  40.584  1.00  0.00     0.009 C
ENDBRANCH   6  11
BRANCH   6  13
HETATM   13  N1  UNL     1      26.833  -7.044  38.949  1.00  0.00    -0.350 N
HETATM   14  C4  UNL     1      25.756  -7.422  38.465  1.00  0.00     0.198 C
HETATM   15  N2  UNL     1      25.130  -8.586  39.012  1.00  0.00    -0.067 NA
HETATM   16  N3  UNL     1      25.086  -6.792  37.402  1.00  0.00    -0.067 NA
ATOM     17  H1  UNL     1      27.161  -7.634  39.714  1.00  0.00     0.163 HD
ENDBRANCH   6  13
BRANCH   7  18
HETATM   18  C6  UNL     1      28.658  -4.611  36.662  1.00  0.00     0.036 C
BRANCH  18  19
HETATM   19  C7  UNL     1      27.985  -4.320  35.345  1.00  0.00    -0.002 C
HETATM   20  C8  UNL     1      28.311  -2.866  35.018  1.00  0.00     0.005 C
ENDBRANCH  18  19
ENDBRANCH   7  18
ENDBRANCH   1   5
BRANCH   3  21
HETATM   21  C12 UNL     1      29.485  -8.877  41.966  1.00  0.00     0.063 C
HETATM   22  C13 UNL     1      28.079  -9.493  41.864  1.00  0.00     0.044 C
BRANCH  21  23
HETATM   23  C14 UNL     1      29.752  -8.747  43.425  1.00  0.00     0.038 C
BRANCH  23  24
HETATM   24  C15 UNL     1      29.367  -9.921  44.278  1.00  0.00     0.031 C
BRANCH  24  25
HETATM   25  C16 UNL     1      28.692  -9.578  45.546  1.00  0.00     0.236 C
BRANCH  25  26
HETATM   26  N6  UNL     1      27.718 -10.459  46.073  1.00  0.00    -0.079 N
HETATM   27  C17 UNL     1      26.374  -9.888  46.104  1.00  0.00     0.271 C
HETATM   28  C18 UNL     1      27.645 -11.601  45.149  1.00  0.00     0.271 C
HETATM   29  C19 UNL     1      28.038 -11.004  47.373  1.00  0.00     0.271 C
ENDBRANCH  25  26
ENDBRANCH  24  25
ENDBRANCH  23  24
ENDBRANCH  21  23
BRANCH  21  30
HETATM   30  C20 UNL     1      30.518  -9.715  41.275  1.00  0.00     0.086 C
BRANCH  30  31
HETATM   31  N7  UNL     1      30.223 -11.022  40.864  1.00  0.00    -0.404 N
HETATM   32  C21 UNL     1      31.103 -12.092  41.081  1.00  0.00     0.145 C
ATOM     33  H7  UNL     1      29.337 -11.201  40.391  1.00  0.00     0.158 HD
ENDBRANCH  30  31
ENDBRANCH  21  30
ENDBRANCH   3  21
TORSDOF 12
ENDMDL