MODEL 1
REMARK VINA RESULT: -7.643736461      0.000      0.000
REMARK  14 active torsions:
REMARK  status: ('A' for Active; 'I' for Inactive)
REMARK    1  A    between atoms: C3_3  and  C4_4
REMARK    2  A    between atoms: C4_4  and  C5_5
REMARK    3  A    between atoms: C5_5  and  C6_6
REMARK    4  A    between atoms: C6_6  and  C7_7
REMARK       I    between atoms: C7_7  and  N1_9
REMARK    5  A    between atoms: C9_14  and  N3_15
REMARK       I    between atoms: N3_15  and  C10_17
REMARK    6  A    between atoms: N5_19  and  C11_21
REMARK    7  A    between atoms: C11_21  and  C12_22
REMARK    8  A    between atoms: C12_22  and  C13_23
REMARK    9  A    between atoms: C13_23  and  C14_24
REMARK   10  A    between atoms: C14_24  and  C15_25
REMARK   11  A    between atoms: C15_25  and  N6_26
REMARK   12  A    between atoms: C16_30  and  C17_31
REMARK   13  A    between atoms: C17_31  and  C18_32
REMARK   14  A    between atoms: C18_32  and  C19_33
ROOT
HETATM    1  C1  UNL     1      30.177  -6.078  41.012  1.00  0.00     0.045 C
HETATM    2  C2  UNL     1      29.278  -6.545  41.856  1.00  0.00     0.051 A
HETATM    3  C3  UNL     1      28.426  -7.546  41.505  1.00  0.00     0.056 A
HETATM    4  N2  UNL     1      27.533  -7.966  42.439  1.00  0.00    -0.339 N
ATOM      5  H2  UNL     1      26.883  -8.715  42.204  1.00  0.00     0.167 HD
HETATM    6  C9  UNL     1      27.485  -7.425  43.653  1.00  0.00     0.131 A
HETATM    7  C16 UNL     1      28.367  -6.386  44.026  1.00  0.00     0.056 A
HETATM    8  N7  UNL     1      29.246  -5.964  43.120  1.00  0.00    -0.350 N
HETATM    9  C21 UNL     1      30.183  -4.880  43.337  1.00  0.00     0.156 C
ENDROOT
BRANCH   6  10
HETATM   10  N3  UNL     1      26.608  -7.849  44.518  1.00  0.00    -0.315 N
HETATM   11  C10 UNL     1      26.694  -9.151  45.036  1.00  0.00     0.189 C
HETATM   12  N4  UNL     1      26.356 -10.337  44.328  1.00  0.00    -0.063 NA
HETATM   13  N5  UNL     1      27.111  -9.294  46.252  1.00  0.00    -0.364 N
ATOM     14  H5  UNL     1      27.356  -8.452  46.773  1.00  0.00     0.162 HD
ATOM     15  H3  UNL     1      25.854  -7.232  44.820  1.00  0.00     0.170 HD
BRANCH  13  16
HETATM   16  C11 UNL     1      27.253 -10.560  46.921  1.00  0.00     0.122 C
BRANCH  16  17
HETATM   17  C12 UNL     1      28.700 -10.856  47.269  1.00  0.00     0.020 C
BRANCH  17  18
HETATM   18  C13 UNL     1      28.991 -12.292  46.891  1.00  0.00     0.003 C
BRANCH  18  19
HETATM   19  C14 UNL     1      27.837 -12.916  46.142  1.00  0.00     0.027 C
BRANCH  19  20
HETATM   20  C15 UNL     1      28.327 -13.343  44.780  1.00  0.00     0.229 C
BRANCH  20  21
HETATM   21  N6  UNL     1      28.772 -12.252  43.967  1.00  0.00    -0.079 N
ATOM     22  H63 UNL     1      28.000 -11.869  43.421  1.00  0.00     0.274 HD
ATOM     23  H62 UNL     1      28.993 -11.439  44.542  1.00  0.00     0.274 HD
ATOM     24  H61 UNL     1      29.558 -12.491  43.362  1.00  0.00     0.274 HD
ENDBRANCH  20  21
ENDBRANCH  19  20
ENDBRANCH  18  19
ENDBRANCH  17  18
ENDBRANCH  16  17
ENDBRANCH  13  16
ENDBRANCH   6  10
BRANCH   7  25
HETATM   25  C17 UNL     1      28.244  -5.817  45.370  1.00  0.00     0.061 C
BRANCH  25  26
HETATM   26  C18 UNL     1      29.390  -6.029  46.291  1.00  0.00     0.006 C
BRANCH  26  27
HETATM   27  C19 UNL     1      29.953  -7.398  46.428  1.00  0.00    -0.004 C
HETATM   28  C20 UNL     1      31.328  -7.610  45.894  1.00  0.00     0.005 C
ENDBRANCH  26  27
ENDBRANCH  25  26
ENDBRANCH   7  25
BRANCH   3  29
HETATM   29  C4  UNL     1      28.438  -8.106  40.323  1.00  0.00     0.006 C
BRANCH  29  30
HETATM   30  C5  UNL     1      27.144  -8.229  39.540  1.00  0.00     0.039 C
BRANCH  30  31
HETATM   31  C6  UNL     1      26.629  -6.877  39.160  1.00  0.00     0.106 C
BRANCH  31  32
HETATM   32  C7  UNL     1      25.223  -6.902  38.709  1.00  0.00     0.217 C
HETATM   33  O1  UNL     1      24.493  -7.854  39.023  1.00  0.00    -0.274 OA
HETATM   34  N1  UNL     1      24.739  -5.840  37.927  1.00  0.00    -0.365 N
HETATM   35  C8  UNL     1      23.360  -5.834  37.466  1.00  0.00     0.149 C
ATOM     36  H1  UNL     1      25.359  -5.068  37.681  1.00  0.00     0.161 HD
ENDBRANCH  31  32
ENDBRANCH  30  31
ENDBRANCH  29  30
ENDBRANCH   3  29
TORSDOF 14
ENDMDL