MODEL 4
REMARK VINA RESULT: -7.217379462      3.691      6.285
REMARK  14 active torsions:
REMARK  status: ('A' for Active; 'I' for Inactive)
REMARK    1  A    between atoms: C4_6  and  C5_7
REMARK    2  A    between atoms: C5_7  and  C6_8
REMARK    3  A    between atoms: C6_8  and  C7_9
REMARK    4  A    between atoms: C7_9  and  C8_10
REMARK    5  A    between atoms: C8_10  and  C9_11
REMARK    6  A    between atoms: C9_11  and  C10_12
REMARK    7  A    between atoms: C10_12  and  C11_13
REMARK    8  A    between atoms: C11_13  and  C12_14
REMARK    9  A    between atoms: C12_14  and  C13_15
REMARK   10  A    between atoms: C16_22  and  C17_23
REMARK   11  A    between atoms: C17_23  and  C18_24
REMARK   12  A    between atoms: C18_24  and  C19_25
REMARK   13  A    between atoms: C18_24  and  N4_29
REMARK   14  A    between atoms: C19_25  and  S1_26
ROOT
HETATM    1  C1  UNL     1      29.036 -10.156  42.718  1.00  0.00     0.045 C
HETATM    2  C2  UNL     1      29.151  -9.399  43.795  1.00  0.00     0.053 A
HETATM    3  N1  UNL     1      30.176  -8.560  44.020  1.00  0.00    -0.339 N
ATOM      4  H1  UNL     1      30.970  -8.412  43.397  1.00  0.00     0.167 HD
HETATM    5  C3  UNL     1      29.983  -7.948  45.200  1.00  0.00     0.140 A
HETATM    6  C4  UNL     1      30.529  -7.035  46.071  1.00  0.00     0.057 A
HETATM    7  C15 UNL     1      29.619  -6.984  47.145  1.00  0.00     0.270 A
HETATM    8  O1  UNL     1      29.788  -6.248  48.147  1.00  0.00    -0.266 OA
HETATM    9  N2  UNL     1      28.620  -7.833  46.872  1.00  0.00    -0.257 N
ATOM     10  H2  UNL     1      27.820  -7.998  47.482  1.00  0.00     0.191 HD
HETATM   11  N3  UNL     1      28.810  -8.430  45.703  1.00  0.00    -0.234 N
HETATM   12  C16 UNL     1      28.260  -9.329  44.869  1.00  0.00     0.082 A
ENDROOT
BRANCH  12  13
HETATM   13  C17 UNL     1      27.148 -10.036  44.951  1.00  0.00     0.034 C
BRANCH  13  14
HETATM   14  C18 UNL     1      26.755 -10.848  46.133  1.00  0.00     0.135 C
BRANCH  14  15
HETATM   15  C19 UNL     1      28.033 -11.228  46.901  1.00  0.00     0.139 C
BRANCH  15  16
HETATM   16  S1  UNL     1      28.467 -12.920  46.559  1.00  0.00     0.013 S
HETATM   17  C20 UNL     1      28.338 -13.265  44.820  1.00  0.00     0.127 C
HETATM   18  O2  UNL     1      30.075 -13.105  47.079  1.00  0.00    -0.258 OA
ENDBRANCH  15  16
ENDBRANCH  14  15
BRANCH  14  19
HETATM   19  N4  UNL     1      26.019 -10.010  47.040  1.00  0.00    -0.334 N
HETATM   20  N5  UNL     1      25.305 -10.458  47.957  1.00  0.00    -0.349 N
ATOM     21  H52 UNL     1      25.250 -11.473  48.055  1.00  0.00     0.176 HD
ATOM     22  H51 UNL     1      24.783  -9.863  48.601  1.00  0.00     0.176 HD
ATOM     23  H4  UNL     1      26.086  -8.999  46.928  1.00  0.00     0.180 HD
ENDBRANCH  14  19
ENDBRANCH  13  14
ENDBRANCH  12  13
BRANCH   6  24
HETATM   24  C5  UNL     1      31.753  -6.211  46.014  1.00  0.00     0.048 C
BRANCH  24  25
HETATM   25  C6  UNL     1      31.664  -4.953  45.244  1.00  0.00     0.005 C
BRANCH  25  26
HETATM   26  C7  UNL     1      31.510  -5.027  43.776  1.00  0.00     0.000 C
BRANCH  26  27
HETATM   27  C8  UNL     1      30.160  -4.565  43.282  1.00  0.00     0.000 C
BRANCH  27  28
HETATM   28  C9  UNL     1      29.447  -3.719  44.316  1.00  0.00     0.000 C
BRANCH  28  29
HETATM   29  C10 UNL     1      28.213  -4.378  44.856  1.00  0.00     0.000 C
BRANCH  29  30
HETATM   30  C11 UNL     1      27.676  -5.447  43.942  1.00  0.00     0.000 C
BRANCH  30  31
HETATM   31  C12 UNL     1      26.578  -4.913  43.038  1.00  0.00    -0.000 C
BRANCH  31  32
HETATM   32  C13 UNL     1      26.900  -5.365  41.615  1.00  0.00    -0.005 C
HETATM   33  C14 UNL     1      27.517  -6.765  41.645  1.00  0.00     0.005 C
ENDBRANCH  31  32
ENDBRANCH  30  31
ENDBRANCH  29  30
ENDBRANCH  28  29
ENDBRANCH  27  28
ENDBRANCH  26  27
ENDBRANCH  25  26
ENDBRANCH  24  25
ENDBRANCH   6  24
TORSDOF 14
ENDMDL