MODEL 3
REMARK VINA RESULT: -7.345487008      0.890      1.685
REMARK  12 active torsions:
REMARK  status: ('A' for Active; 'I' for Inactive)
REMARK    1  A    between atoms: C2_2  and  C3_3
REMARK    2  A    between atoms: C3_3  and  C4_4
REMARK    3  A    between atoms: C4_4  and  C5_5
REMARK    4  A    between atoms: C5_5  and  C6_6
REMARK    5  A    between atoms: C6_6  and  C7_7
REMARK    6  A    between atoms: C7_7  and  N1_8
REMARK       I    between atoms: C8_10  and  N3_12
REMARK    7  A    between atoms: N3_12  and  C9_14
REMARK    8  A    between atoms: C9_14  and  C10_15
REMARK    9  A    between atoms: C10_15  and  N4_16
REMARK   10  A    between atoms: N4_16  and  C13_19
REMARK   11  A    between atoms: C13_19  and  C14_20
REMARK   12  A    between atoms: C19_30  and  N8_31
ROOT
HETATM    1  C9  UNL     1      29.058  -7.007  39.166  1.00  0.00     0.108 C
HETATM    2  C15 UNL     1      30.612  -7.250  39.312  1.00  0.00     0.065 C
HETATM    3  C16 UNL     1      30.776  -8.330  38.260  1.00  0.00     0.242 C
HETATM    4  N7  UNL     1      29.631  -9.185  38.367  1.00  0.00    -0.048 N
HETATM    5  C17 UNL     1      29.111  -9.640  37.127  1.00  0.00     0.274 C
HETATM    6  C18 UNL     1      30.071 -10.405  39.072  1.00  0.00     0.274 C
HETATM    7  C19 UNL     1      28.702  -8.435  39.194  1.00  0.00     0.361 C
ENDROOT
BRANCH   1   8
HETATM    8  N3  UNL     1      28.791  -6.291  40.396  1.00  0.00    -0.350 N
HETATM    9  C8  UNL     1      28.334  -6.827  41.610  1.00  0.00     0.184 C
HETATM   10  N1  UNL     1      29.185  -7.106  42.532  1.00  0.00    -0.365 N
HETATM   11  N2  UNL     1      26.969  -7.067  41.875  1.00  0.00    -0.064 NA
ATOM     12  H1  UNL     1      30.175  -6.938  42.352  1.00  0.00     0.162 HD
ATOM     13  H3  UNL     1      28.955  -5.284  40.379  1.00  0.00     0.163 HD
BRANCH  10  14
HETATM   14  C7  UNL     1      28.794  -7.651  43.816  1.00  0.00     0.122 C
BRANCH  14  15
HETATM   15  C6  UNL     1      29.737  -8.727  44.282  1.00  0.00     0.020 C
BRANCH  15  16
HETATM   16  C5  UNL     1      30.127  -8.594  45.725  1.00  0.00     0.002 C
BRANCH  16  17
HETATM   17  C4  UNL     1      31.433  -7.879  45.866  1.00  0.00     0.000 C
BRANCH  17  18
HETATM   18  C3  UNL     1      31.224  -6.467  46.395  1.00  0.00    -0.000 C
BRANCH  18  19
HETATM   19  C2  UNL     1      31.805  -5.429  45.465  1.00  0.00    -0.005 C
HETATM   20  C1  UNL     1      30.751  -4.627  44.774  1.00  0.00     0.005 C
ENDBRANCH  18  19
ENDBRANCH  17  18
ENDBRANCH  16  17
ENDBRANCH  15  16
ENDBRANCH  14  15
ENDBRANCH  10  14
ENDBRANCH   1   8
BRANCH   1  21
HETATM   21  C10 UNL     1      28.982  -6.207  37.954  1.00  0.00     0.272 C
BRANCH  21  22
HETATM   22  N4  UNL     1      27.899  -5.391  37.586  1.00  0.00    -0.066 N
HETATM   23  C11 UNL     1      27.261  -4.588  38.567  1.00  0.00     0.272 C
HETATM   24  C12 UNL     1      28.413  -4.409  36.595  1.00  0.00     0.272 C
BRANCH  22  25
HETATM   25  C13 UNL     1      26.874  -6.109  36.828  1.00  0.00     0.308 C
BRANCH  25  26
HETATM   26  C14 UNL     1      25.492  -5.873  37.266  1.00  0.00     0.113 C
HETATM   27  N5  UNL     1      24.866  -4.775  36.907  1.00  0.00    -0.390 N
ATOM     28  H52 UNL     1      25.417  -4.149  36.319  1.00  0.00     0.157 HD
ATOM     29  H51 UNL     1      23.907  -4.610  37.212  1.00  0.00     0.157 HD
HETATM   30  N6  UNL     1      24.725  -6.745  38.085  1.00  0.00    -0.086 NA
ENDBRANCH  25  26
ENDBRANCH  22  25
ENDBRANCH  21  22
ENDBRANCH   1  21
BRANCH   7  31
HETATM   31  N8  UNL     1      27.359  -8.836  39.042  1.00  0.00    -0.168 N
HETATM   32  N9  UNL     1      26.241  -8.962  39.651  1.00  0.00    -0.207 N
HETATM   33  N10 UNL     1      26.208  -9.318  38.418  1.00  0.00    -0.207 N
ATOM     34  H9  UNL     1      25.725  -8.854  40.525  1.00  0.00     0.211 HD
ATOM     35  H10 UNL     1      25.715  -9.679  37.602  1.00  0.00     0.211 HD
ENDBRANCH   7  31
TORSDOF 12
ENDMDL