MODEL 3
REMARK VINA RESULT: -7.033524074      2.302      4.972
REMARK  11 active torsions:
REMARK  status: ('A' for Active; 'I' for Inactive)
REMARK    1  A    between atoms: C2_2  and  C3_4
REMARK    2  A    between atoms: C3_4  and  C4_5
REMARK    3  A    between atoms: C4_5  and  N1_6
REMARK    4  A    between atoms: N1_6  and  C5_8
REMARK    5  A    between atoms: C5_8  and  N4_21
REMARK    6  A    between atoms: C6_9  and  C7_10
REMARK    7  A    between atoms: C7_10  and  C8_11
REMARK    8  A    between atoms: C7_10  and  C12_16
REMARK    9  A    between atoms: C8_11  and  N2_12
REMARK   10  A    between atoms: C12_16  and  N3_17
REMARK       I    between atoms: N4_21  and  C16_23
REMARK   11  A    between atoms: C16_23  and  C17_25
ROOT
HETATM    1  C5  UNL     1      27.066  -3.639  44.054  1.00  0.00     0.103 C
HETATM    2  C6  UNL     1      27.996  -4.244  44.856  1.00  0.00     0.030 C
ENDROOT
BRANCH   1   3
HETATM    3  N1  UNL     1      26.492  -4.245  43.020  1.00  0.00    -0.356 N
ATOM      4  H1  UNL     1      25.621  -4.705  43.284  1.00  0.00     0.166 HD
BRANCH   3   5
HETATM    5  C4  UNL     1      26.773  -4.409  41.683  1.00  0.00     0.063 C
BRANCH   5   6
HETATM    6  C3  UNL     1      27.074  -5.803  41.217  1.00  0.00     0.060 C
BRANCH   6   7
HETATM    7  C2  UNL     1      27.535  -5.884  39.783  1.00  0.00     0.059 C
HETATM    8  C1  UNL     1      27.107  -4.711  38.964  1.00  0.00     0.022 C
HETATM    9  S1  UNL     1      29.340  -6.033  39.769  1.00  0.00    -0.092 SA
ENDBRANCH   6   7
ENDBRANCH   5   6
ENDBRANCH   3   5
ENDBRANCH   1   3
BRANCH   1  10
HETATM   10  N4  UNL     1      26.892  -2.284  44.372  1.00  0.00    -0.312 N
HETATM   11  C16 UNL     1      27.541  -1.064  44.337  1.00  0.00     0.254 C
HETATM   12  O1  UNL     1      28.699  -0.782  43.978  1.00  0.00    -0.271 OA
ATOM     13  H4  UNL     1      25.961  -2.153  44.766  1.00  0.00     0.170 HD
BRANCH  11  14
HETATM   14  C17 UNL     1      26.703   0.118  44.828  1.00  0.00     0.282 C
HETATM   15  N5  UNL     1      25.306  -0.392  45.041  1.00  0.00    -0.061 N
HETATM   16  C18 UNL     1      25.170   0.416  46.237  1.00  0.00     0.240 C
ATOM     17  H52 UNL     1      24.618  -0.305  44.293  1.00  0.00     0.278 HD
ATOM     18  H51 UNL     1      25.138  -1.397  45.089  1.00  0.00     0.278 HD
HETATM   19  C19 UNL     1      26.724   0.277  46.355  1.00  0.00     0.047 C
HETATM   20  C20 UNL     1      27.239   1.567  46.894  1.00  0.00     0.014 C
ENDBRANCH  11  14
ENDBRANCH   1  10
BRANCH   2  21
HETATM   21  C7  UNL     1      28.507  -5.591  44.730  1.00  0.00     0.064 C
BRANCH  21  22
HETATM   22  C8  UNL     1      29.825  -5.718  45.529  1.00  0.00     0.246 C
BRANCH  22  23
HETATM   23  N2  UNL     1      30.989  -6.113  44.836  1.00  0.00    -0.078 N
HETATM   24  C9  UNL     1      30.999  -5.976  43.414  1.00  0.00     0.271 C
HETATM   25  C10 UNL     1      31.595  -7.354  45.289  1.00  0.00     0.271 C
HETATM   26  C11 UNL     1      31.994  -5.084  45.287  1.00  0.00     0.271 C
ENDBRANCH  22  23
ENDBRANCH  21  22
BRANCH  21  27
HETATM   27  C12 UNL     1      27.550  -6.602  45.274  1.00  0.00     0.246 C
BRANCH  27  28
HETATM   28  N3  UNL     1      27.658  -7.979  45.127  1.00  0.00    -0.078 N
HETATM   29  C13 UNL     1      28.143  -8.474  46.453  1.00  0.00     0.271 C
HETATM   30  C14 UNL     1      26.255  -8.572  45.159  1.00  0.00     0.271 C
HETATM   31  C15 UNL     1      28.410  -8.690  44.199  1.00  0.00     0.271 C
ENDBRANCH  27  28
ENDBRANCH  21  27
ENDBRANCH   2  21
TORSDOF 11
ENDMDL