MODEL 5
REMARK VINA RESULT: -7.494033304      3.810      9.003
REMARK  12 active torsions:
REMARK  status: ('A' for Active; 'I' for Inactive)
REMARK    1  A    between atoms: C2_2  and  C3_3
REMARK    2  A    between atoms: C3_3  and  C4_4
REMARK    3  A    between atoms: C4_4  and  N1_5
REMARK    4  A    between atoms: N1_5  and  C5_6
REMARK    5  A    between atoms: N1_5  and  C7_8
REMARK    6  A    between atoms: C7_8  and  C8_9
REMARK    7  A    between atoms: C8_9  and  C9_10
REMARK    8  A    between atoms: C9_10  and  C10_11
REMARK    9  A    between atoms: C10_11  and  N2_12
REMARK       I    between atoms: N2_12  and  C11_14
REMARK       I    between atoms: C11_14  and  N3_15
REMARK       I    between atoms: C11_14  and  N9_30
REMARK   10  A    between atoms: N3_15  and  C12_17
REMARK   11  A    between atoms: C12_17  and  C13_18
REMARK   12  A    between atoms: C13_18  and  C14_19
REMARK       I    between atoms: C14_19  and  N4_21
REMARK       I    between atoms: C15_23  and  N6_25
ROOT
HETATM    1  N2  UNL     1      30.209  -6.621  42.000  1.00  0.00    -0.206 N
ATOM      2  H2  UNL     1      30.869  -7.374  42.194  1.00  0.00     0.183 HD
HETATM    3  C11 UNL     1      29.938  -6.225  43.112  1.00  0.00     0.674 C
HETATM    4  N3  UNL     1      30.540  -6.834  44.280  1.00  0.00    -0.226 N
ATOM      5  H3  UNL     1      30.541  -7.851  44.366  1.00  0.00     0.177 HD
HETATM    6  N9  UNL     1      29.027  -5.173  43.370  1.00  0.00    -0.227 N
HETATM    7  C17 UNL     1      27.625  -5.385  43.201  1.00  0.00     0.168 C
HETATM    8  C18 UNL     1      29.513  -3.888  43.808  1.00  0.00     0.168 C
ENDROOT
BRANCH   1   9
HETATM    9  C10 UNL     1      30.139  -6.639  40.647  1.00  0.00     0.079 C
BRANCH   9  10
HETATM   10  C9  UNL     1      31.231  -5.978  39.835  1.00  0.00     0.046 C
BRANCH  10  11
HETATM   11  C8  UNL     1      30.757  -5.347  38.561  1.00  0.00     0.025 C
BRANCH  11  12
HETATM   12  C7  UNL     1      29.430  -5.961  38.214  1.00  0.00     0.122 C
BRANCH  12  13
HETATM   13  N1  UNL     1      28.606  -5.157  37.394  1.00  0.00    -0.394 N
BRANCH  13  14
HETATM   14  C4  UNL     1      29.292  -4.491  36.356  1.00  0.00     0.122 C
BRANCH  14  15
HETATM   15  C3  UNL     1      28.341  -3.649  35.506  1.00  0.00     0.019 C
BRANCH  15  16
HETATM   16  C2  UNL     1      28.976  -2.291  35.203  1.00  0.00    -0.003 C
HETATM   17  C1  UNL     1      28.235  -1.616  34.073  1.00  0.00     0.005 C
ENDBRANCH  15  16
ENDBRANCH  14  15
ENDBRANCH  13  14
BRANCH  13  18
HETATM   18  C5  UNL     1      27.451  -4.575  37.933  1.00  0.00     0.054 C
HETATM   19  C6  UNL     1      27.138  -4.804  39.365  1.00  0.00     0.054 C
ENDBRANCH  13  18
ENDBRANCH  12  13
ENDBRANCH  11  12
ENDBRANCH  10  11
ENDBRANCH   9  10
ENDBRANCH   1   9
BRANCH   4  20
HETATM   20  C12 UNL     1      31.131  -6.045  45.317  1.00  0.00     0.147 C
BRANCH  20  21
HETATM   21  C13 UNL     1      30.891  -6.709  46.661  1.00  0.00     0.123 C
BRANCH  21  22
HETATM   22  C14 UNL     1      29.474  -7.057  46.878  1.00  0.00     0.225 C
HETATM   23  O1  UNL     1      28.579  -6.271  46.459  1.00  0.00    -0.273 OA
HETATM   24  N4  UNL     1      29.060  -8.239  47.538  1.00  0.00    -0.301 N
HETATM   25  C15 UNL     1      29.211  -9.368  46.956  1.00  0.00     0.197 C
ATOM     26  H4  UNL     1      28.644  -8.191  48.468  1.00  0.00     0.171 HD
HETATM   27  N5  UNL     1      29.784  -9.453  45.671  1.00  0.00    -0.063 NA
HETATM   28  N6  UNL     1      28.816 -10.588  47.585  1.00  0.00    -0.307 N
HETATM   29  C16 UNL     1      28.360 -11.597  46.939  1.00  0.00     0.203 C
ATOM     30  H6  UNL     1      28.900 -10.660  48.599  1.00  0.00     0.170 HD
HETATM   31  N7  UNL     1      27.990 -12.766  47.639  1.00  0.00    -0.066 NA
HETATM   32  N8  UNL     1      28.237 -11.500  45.523  1.00  0.00    -0.066 NA
ENDBRANCH  21  22
ENDBRANCH  20  21
ENDBRANCH   4  20
TORSDOF 12
ENDMDL