MODEL 4
REMARK VINA RESULT: -8.526606626      2.467      4.054
REMARK  15 active torsions:
REMARK  status: ('A' for Active; 'I' for Inactive)
REMARK    1  A    between atoms: N1_2  and  C4_5
REMARK    2  A    between atoms: C4_5  and  C5_6
REMARK    3  A    between atoms: C5_6  and  C6_7
REMARK    4  A    between atoms: C6_7  and  C7_8
REMARK    5  A    between atoms: C7_8  and  C8_9
REMARK    6  A    between atoms: C8_9  and  C9_10
REMARK       I    between atoms: C9_10  and  N2_12
REMARK       I    between atoms: C10_14  and  N3_15
REMARK       I    between atoms: C10_14  and  N7_26
REMARK    7  A    between atoms: N3_15  and  C11_17
REMARK    8  A    between atoms: C11_17  and  C12_18
REMARK    9  A    between atoms: C12_18  and  C13_19
REMARK   10  A    between atoms: C13_19  and  C14_20
REMARK   11  A    between atoms: C14_20  and  N4_21
REMARK   12  A    between atoms: N7_26  and  C16_28
REMARK   13  A    between atoms: C16_28  and  C17_29
REMARK   14  A    between atoms: C17_29  and  N8_30
REMARK       I    between atoms: N8_30  and  C18_32
REMARK   15  A    between atoms: C18_32  and  C19_34
ROOT
HETATM    1  C9  UNL     1      31.189  -9.056 -24.603  1.00  0.00     0.235 C
HETATM    2  O1  UNL     1      32.105  -9.684 -25.179  1.00  0.00    -0.273 OA
HETATM    3  N2  UNL     1      29.937  -8.935 -25.209  1.00  0.00    -0.160 N
ATOM      4  H2  UNL     1      29.141  -8.888 -24.573  1.00  0.00     0.187 HD
HETATM    5  C10 UNL     1      29.656  -8.876 -26.444  1.00  0.00     0.676 C
HETATM    6  N3  UNL     1      28.270  -8.752 -26.786  1.00  0.00    -0.226 N
ATOM      7  H3  UNL     1      27.763  -9.550 -27.170  1.00  0.00     0.177 HD
HETATM    8  N7  UNL     1      30.665  -8.931 -27.425  1.00  0.00    -0.225 N
ATOM      9  H7  UNL     1      31.576  -8.501 -27.264  1.00  0.00     0.177 HD
ENDROOT
BRANCH   6  10
HETATM   10  C11 UNL     1      27.599  -7.501 -26.586  1.00  0.00     0.138 C
BRANCH  10  11
HETATM   11  C12 UNL     1      28.541  -6.378 -26.929  1.00  0.00     0.022 C
BRANCH  11  12
HETATM   12  C13 UNL     1      28.029  -5.103 -26.323  1.00  0.00     0.021 C
BRANCH  12  13
HETATM   13  C14 UNL     1      28.948  -4.527 -25.287  1.00  0.00     0.122 C
BRANCH  13  14
HETATM   14  N4  UNL     1      28.204  -4.006 -24.169  1.00  0.00    -0.367 N
HETATM   15  C15 UNL     1      28.132  -2.742 -23.993  1.00  0.00     0.196 C
HETATM   16  N5  UNL     1      28.779  -1.834 -24.887  1.00  0.00    -0.067 NA
HETATM   17  N6  UNL     1      27.391  -2.247 -22.878  1.00  0.00    -0.067 NA
ATOM     18  H4  UNL     1      27.737  -4.641 -23.522  1.00  0.00     0.161 HD
ENDBRANCH  13  14
ENDBRANCH  12  13
ENDBRANCH  11  12
ENDBRANCH  10  11
ENDBRANCH   6  10
BRANCH   8  19
HETATM   19  C16 UNL     1      30.377  -9.610 -28.662  1.00  0.00     0.157 C
BRANCH  19  20
HETATM   20  C17 UNL     1      30.766  -8.699 -29.804  1.00  0.00     0.143 C
BRANCH  20  21
HETATM   21  N8  UNL     1      29.698  -7.753 -30.021  1.00  0.00    -0.359 N
HETATM   22  C18 UNL     1      28.633  -8.067 -30.928  1.00  0.00     0.221 C
HETATM   23  O2  UNL     1      28.683  -9.177 -31.504  1.00  0.00    -0.273 OA
ATOM     24  H8  UNL     1      29.701  -6.859 -29.529  1.00  0.00     0.162 HD
BRANCH  22  25
HETATM   25  C19 UNL     1      27.514  -7.100 -31.165  1.00  0.00     0.078 C
HETATM   26  C20 UNL     1      26.591  -7.108 -29.985  1.00  0.00     0.018 C
HETATM   27  C21 UNL     1      25.773  -5.847 -29.863  1.00  0.00    -0.013 C
HETATM   28  C22 UNL     1      25.120  -5.596 -31.199  1.00  0.00     0.005 C
HETATM   29  C25 UNL     1      26.745  -4.699 -29.714  1.00  0.00     0.009 C
HETATM   30  C23 UNL     1      25.935  -4.534 -31.896  1.00  0.00     0.005 C
HETATM   31  C24 UNL     1      27.246  -4.593 -31.136  1.00  0.00    -0.013 C
HETATM   32  C26 UNL     1      28.007  -5.782 -31.594  1.00  0.00     0.018 C
ENDBRANCH  22  25
ENDBRANCH  20  21
ENDBRANCH  19  20
ENDBRANCH   8  19
BRANCH   1  33
HETATM   33  C8  UNL     1      31.424  -8.444 -23.287  1.00  0.00     0.103 C
BRANCH  33  34
HETATM   34  C7  UNL     1      30.538  -7.206 -23.175  1.00  0.00     0.009 C
BRANCH  34  35
HETATM   35  C6  UNL     1      29.628  -7.261 -21.984  1.00  0.00     0.002 C
BRANCH  35  36
HETATM   36  C5  UNL     1      28.966  -8.578 -21.757  1.00  0.00     0.028 C
BRANCH  36  37
HETATM   37  C4  UNL     1      27.688  -8.813 -22.464  1.00  0.00     0.236 C
BRANCH  37  38
HETATM   38  N1  UNL     1      27.285 -10.164 -22.684  1.00  0.00    -0.079 N
HETATM   39  C1  UNL     1      26.295 -10.671 -21.770  1.00  0.00     0.271 C
HETATM   40  C2  UNL     1      26.660 -10.242 -24.027  1.00  0.00     0.271 C
HETATM   41  C3  UNL     1      28.365 -11.101 -22.719  1.00  0.00     0.271 C
ENDBRANCH  37  38
ENDBRANCH  36  37
ENDBRANCH  35  36
ENDBRANCH  34  35
ENDBRANCH  33  34
ENDBRANCH   1  33
TORSDOF 15
ENDMDL