MODEL 2
REMARK VINA RESULT: -8.418529883      1.686      2.089
REMARK  14 active torsions:
REMARK  status: ('A' for Active; 'I' for Inactive)
REMARK    1  A    between atoms: C2_2  and  C3_3
REMARK    2  A    between atoms: C3_3  and  C4_4
REMARK    3  A    between atoms: C4_4  and  C5_5
REMARK    4  A    between atoms: C5_5  and  C6_6
REMARK    5  A    between atoms: C6_6  and  C7_7
REMARK    6  A    between atoms: C7_7  and  C8_8
REMARK    7  A    between atoms: C8_8  and  C9_9
REMARK    8  A    between atoms: C9_9  and  N1_10
REMARK       I    between atoms: C10_12  and  N3_14
REMARK    9  A    between atoms: C14_20  and  C15_21
REMARK   10  A    between atoms: C15_21  and  N5_22
REMARK   11  A    between atoms: N6_25  and  C18_26
REMARK   12  A    between atoms: C18_26  and  C19_27
REMARK   13  A    between atoms: C19_27  and  C20_28
REMARK   14  A    between atoms: C20_28  and  N7_29
REMARK       I    between atoms: N7_29  and  C21_31
ROOT
HETATM    1  N1  UNL     1      30.438  -5.849 -24.932  1.00  0.00    -0.364 N
ATOM      2  H1  UNL     1      30.019  -4.920 -24.886  1.00  0.00     0.162 HD
HETATM    3  C10 UNL     1      29.755  -6.785 -25.474  1.00  0.00     0.187 C
HETATM    4  N2  UNL     1      30.309  -8.081 -25.553  1.00  0.00    -0.064 NA
HETATM    5  N3  UNL     1      28.470  -6.555 -25.995  1.00  0.00    -0.343 N
HETATM    6  C11 UNL     1      27.303  -7.064 -25.343  1.00  0.00     0.170 C
HETATM    7  C12 UNL     1      26.445  -5.882 -24.957  1.00  0.00     0.075 C
HETATM    8  N4  UNL     1      26.317  -4.918 -25.977  1.00  0.00    -0.399 N
ATOM      9  H4  UNL     1      25.425  -4.453 -26.143  1.00  0.00     0.158 HD
HETATM   10  C13 UNL     1      27.455  -4.606 -26.770  1.00  0.00     0.145 C
HETATM   11  C14 UNL     1      28.284  -5.771 -27.245  1.00  0.00     0.131 C
ENDROOT
BRANCH  11  12
HETATM   12  C15 UNL     1      27.707  -6.669 -28.240  1.00  0.00     0.264 C
BRANCH  12  13
HETATM   13  N5  UNL     1      28.450  -7.515 -29.078  1.00  0.00    -0.056 N
HETATM   14  C16 UNL     1      29.857  -7.410 -29.139  1.00  0.00     0.266 C
HETATM   15  C17 UNL     1      30.396  -8.237 -30.321  1.00  0.00     0.265 C
HETATM   16  N6  UNL     1      29.576  -9.381 -30.503  1.00  0.00    -0.062 N
HETATM   17  C22 UNL     1      29.249  -9.857 -29.154  1.00  0.00     0.265 C
HETATM   18  C24 UNL     1      28.254  -8.913 -30.996  1.00  0.00     0.270 C
HETATM   19  C23 UNL     1      28.237  -8.925 -28.548  1.00  0.00     0.266 C
HETATM   20  C25 UNL     1      27.845  -7.603 -30.386  1.00  0.00     0.212 C
HETATM   21  C26 UNL     1      28.048  -6.450 -31.295  1.00  0.00     0.042 C
BRANCH  16  22
HETATM   22  C18 UNL     1      29.967 -10.369 -31.416  1.00  0.00     0.239 C
BRANCH  22  23
HETATM   23  C19 UNL     1      30.051 -11.789 -31.071  1.00  0.00     0.048 C
BRANCH  23  24
HETATM   24  C20 UNL     1      29.633 -12.732 -32.158  1.00  0.00     0.124 C
BRANCH  24  25
HETATM   25  N7  UNL     1      28.264 -13.187 -31.942  1.00  0.00    -0.365 N
HETATM   26  C21 UNL     1      27.393 -13.425 -32.995  1.00  0.00     0.181 C
HETATM   27  N8  UNL     1      27.831 -13.626 -34.181  1.00  0.00    -0.374 N
HETATM   28  N9  UNL     1      25.997 -13.450 -32.772  1.00  0.00    -0.064 NA
ATOM     29  H82 UNL     1      28.838 -13.607 -34.342  1.00  0.00     0.158 HD
ATOM     30  H81 UNL     1      27.191 -13.801 -34.956  1.00  0.00     0.158 HD
ATOM     31  H7  UNL     1      27.937 -13.334 -30.987  1.00  0.00     0.162 HD
ENDBRANCH  24  25
ENDBRANCH  23  24
ENDBRANCH  22  23
ENDBRANCH  16  22
ENDBRANCH  12  13
ENDBRANCH  11  12
BRANCH   1  32
HETATM   32  C9  UNL     1      31.754  -6.016 -24.382  1.00  0.00     0.122 C
BRANCH  32  33
HETATM   33  C8  UNL     1      31.680  -5.867 -22.891  1.00  0.00     0.020 C
BRANCH  33  34
HETATM   34  C7  UNL     1      31.138  -7.057 -22.177  1.00  0.00     0.002 C
BRANCH  34  35
HETATM   35  C6  UNL     1      29.850  -6.845 -21.476  1.00  0.00     0.000 C
BRANCH  35  36
HETATM   36  C5  UNL     1      28.753  -7.784 -21.921  1.00  0.00     0.000 C
BRANCH  36  37
HETATM   37  C4  UNL     1      29.250  -9.152 -22.250  1.00  0.00     0.000 C
BRANCH  37  38
HETATM   38  C3  UNL     1      28.161 -10.143 -21.896  1.00  0.00    -0.000 C
BRANCH  38  39
HETATM   39  C2  UNL     1      26.824  -9.732 -22.472  1.00  0.00    -0.005 C
HETATM   40  C1  UNL     1      26.546 -10.340 -23.810  1.00  0.00     0.005 C
ENDBRANCH  38  39
ENDBRANCH  37  38
ENDBRANCH  36  37
ENDBRANCH  35  36
ENDBRANCH  34  35
ENDBRANCH  33  34
ENDBRANCH  32  33
ENDBRANCH   1  32
TORSDOF 14
ENDMDL