MODEL 3
REMARK VINA RESULT: -8.607064232      3.370      4.370
REMARK  16 active torsions:
REMARK  status: ('A' for Active; 'I' for Inactive)
REMARK    1  A    between atoms: C2_2  and  N1_3
REMARK    2  A    between atoms: N1_3  and  C3_4
REMARK    3  A    between atoms: C3_4  and  C4_5
REMARK    4  A    between atoms: C4_5  and  C5_6
REMARK    5  A    between atoms: C5_6  and  C6_7
REMARK    6  A    between atoms: C6_7  and  C7_8
REMARK    7  A    between atoms: C7_8  and  C8_9
REMARK    8  A    between atoms: C8_9  and  N3_13
REMARK    9  A    between atoms: N3_13  and  C9_15
REMARK       I    between atoms: N4_17  and  C11_18
REMARK   10  A    between atoms: C11_18  and  C12_20
REMARK   11  A    between atoms: C12_20  and  C13_21
REMARK   12  A    between atoms: C13_21  and  C14_22
REMARK   13  A    between atoms: C14_22  and  C15_23
REMARK   14  A    between atoms: C15_23  and  C16_24
REMARK   15  A    between atoms: C16_24  and  N5_25
REMARK   16  A    between atoms: C20_32  and  C21_33
ROOT
HETATM    1  C9  UNL     1      29.216  -6.056 -26.833  1.00  0.00     0.113 C
HETATM    2  C10 UNL     1      30.236  -6.974 -27.571  1.00  0.00     0.151 C
HETATM    3  N4  UNL     1      29.456  -7.842 -28.411  1.00  0.00    -0.350 N
HETATM    4  C11 UNL     1      29.889  -8.261 -29.697  1.00  0.00     0.219 C
HETATM    5  O1  UNL     1      31.003  -7.856 -30.105  1.00  0.00    -0.273 OA
HETATM    6  C18 UNL     1      28.162  -8.311 -27.922  1.00  0.00     0.127 C
HETATM    7  C19 UNL     1      27.241  -7.131 -27.653  1.00  0.00     0.035 C
HETATM    8  C20 UNL     1      28.125  -5.880 -27.852  1.00  0.00     0.101 C
ENDROOT
BRANCH   1   9
HETATM    9  N3  UNL     1      29.891  -4.864 -26.421  1.00  0.00    -0.373 N
ATOM     10  H3  UNL     1      29.691  -3.991 -26.910  1.00  0.00     0.161 HD
BRANCH   9  11
HETATM   11  C8  UNL     1      30.822  -4.854 -25.365  1.00  0.00     0.070 C
HETATM   12  N2  UNL     1      32.085  -4.542 -25.559  1.00  0.00    -0.389 N
ATOM     13  H22 UNL     1      32.759  -4.535 -24.794  1.00  0.00     0.157 HD
ATOM     14  H21 UNL     1      32.360  -4.323 -26.517  1.00  0.00     0.157 HD
BRANCH  11  15
HETATM   15  C7  UNL     1      30.423  -5.170 -23.977  1.00  0.00     0.075 C
BRANCH  15  16
HETATM   16  C6  UNL     1      31.433  -6.071 -23.298  1.00  0.00     0.007 C
BRANCH  16  17
HETATM   17  C5  UNL     1      30.857  -6.748 -22.092  1.00  0.00     0.002 C
BRANCH  17  18
HETATM   18  C4  UNL     1      29.361  -6.930 -22.142  1.00  0.00     0.028 C
BRANCH  18  19
HETATM   19  C3  UNL     1      28.991  -8.346 -21.784  1.00  0.00     0.237 C
BRANCH  19  20
HETATM   20  N1  UNL     1      28.629  -9.126 -22.928  1.00  0.00    -0.067 N
HETATM   21  C22 UNL     1      28.179  -8.216 -23.968  1.00  0.00     0.237 C
HETATM   22  C23 UNL     1      26.668  -8.267 -23.941  1.00  0.00     0.029 C
HETATM   23  C24 UNL     1      26.450  -9.753 -23.634  1.00  0.00     0.029 C
HETATM   24  C25 UNL     1      27.532  -9.980 -22.593  1.00  0.00     0.237 C
BRANCH  20  25
HETATM   25  C2  UNL     1      29.696  -9.917 -23.484  1.00  0.00     0.233 C
HETATM   26  C1  UNL     1      30.192  -9.418 -24.803  1.00  0.00     0.035 C
ENDBRANCH  20  25
ENDBRANCH  19  20
ENDBRANCH  18  19
ENDBRANCH  17  18
ENDBRANCH  16  17
ENDBRANCH  15  16
ENDBRANCH  11  15
ENDBRANCH   9  11
ENDBRANCH   1   9
BRANCH   8  27
HETATM   27  C21 UNL     1      27.329  -4.670 -27.797  1.00  0.00     0.237 C
HETATM   28  N8  UNL     1      26.937  -3.941 -26.654  1.00  0.00    -0.062 NA
HETATM   29  O2  UNL     1      26.913  -4.171 -28.906  1.00  0.00    -0.276 OA
ENDBRANCH   8  27
BRANCH   4  30
HETATM   30  C12 UNL     1      29.099  -9.144 -30.572  1.00  0.00     0.103 C
BRANCH  30  31
HETATM   31  C13 UNL     1      29.919 -10.230 -31.200  1.00  0.00     0.009 C
BRANCH  31  32
HETATM   32  C14 UNL     1      30.147 -11.353 -30.237  1.00  0.00     0.002 C
BRANCH  32  33
HETATM   33  C15 UNL     1      30.050 -12.723 -30.845  1.00  0.00     0.020 C
BRANCH  33  34
HETATM   34  C16 UNL     1      29.319 -12.580 -32.170  1.00  0.00     0.122 C
BRANCH  34  35
HETATM   35  N5  UNL     1      28.044 -13.250 -32.131  1.00  0.00    -0.367 N
HETATM   36  C17 UNL     1      27.199 -13.307 -33.080  1.00  0.00     0.196 C
HETATM   37  N6  UNL     1      25.988 -14.040 -32.797  1.00  0.00    -0.067 NA
HETATM   38  N7  UNL     1      27.355 -12.722 -34.348  1.00  0.00    -0.067 NA
ATOM     39  H5  UNL     1      27.796 -13.722 -31.261  1.00  0.00     0.161 HD
ENDBRANCH  34  35
ENDBRANCH  33  34
ENDBRANCH  32  33
ENDBRANCH  31  32
ENDBRANCH  30  31
ENDBRANCH   4  30
TORSDOF 16
ENDMDL