MODEL 5
REMARK VINA RESULT: -8.079006667      1.031      1.742
REMARK  16 active torsions:
REMARK  status: ('A' for Active; 'I' for Inactive)
REMARK    1  A    between atoms: N1_2  and  C2_5
REMARK    2  A    between atoms: C2_5  and  C3_6
REMARK    3  A    between atoms: C3_6  and  C4_7
REMARK    4  A    between atoms: C4_7  and  C5_8
REMARK    5  A    between atoms: C5_8  and  C6_9
REMARK    6  A    between atoms: C6_9  and  C7_10
REMARK    7  A    between atoms: C7_10  and  C8_11
REMARK    8  A    between atoms: C8_11  and  C9_12
REMARK    9  A    between atoms: C9_12  and  C10_13
REMARK   10  A    between atoms: C10_13  and  N2_14
REMARK   11  A    between atoms: N3_17  and  C13_18
REMARK   12  A    between atoms: C13_18  and  C14_19
REMARK   13  A    between atoms: C14_19  and  N4_20
REMARK   14  A    between atoms: N5_23  and  C17_24
REMARK   15  A    between atoms: C17_24  and  C18_25
REMARK       I    between atoms: C18_25  and  N6_27
REMARK   16  A    between atoms: N6_27  and  N7_29
REMARK       I    between atoms: N7_29  and  C19_31
ROOT
HETATM    1  C13 UNL     1      26.541  -5.038 -26.133  1.00  0.00     0.169 C
ENDROOT
BRANCH   1   2
HETATM    2  N3  UNL     1      27.555  -5.088 -25.120  1.00  0.00    -0.215 N
HETATM    3  C12 UNL     1      28.464  -4.126 -24.568  1.00  0.00     0.161 C
HETATM    4  C11 UNL     1      28.743  -4.596 -23.176  1.00  0.00     0.161 C
HETATM    5  N2  UNL     1      28.590  -6.018 -23.226  1.00  0.00    -0.217 N
HETATM    6  C24 UNL     1      27.888  -6.317 -24.383  1.00  0.00     0.672 C
HETATM    7  N10 UNL     1      27.537  -7.486 -24.819  1.00  0.00    -0.235 N
ATOM      8 2H10 UNL     1      27.767  -8.337 -24.308  1.00  0.00     0.174 HD
ATOM      9 1H10 UNL     1      27.020  -7.706 -25.670  1.00  0.00     0.174 HD
BRANCH   5  10
HETATM   10  C10 UNL     1      29.112  -6.935 -22.200  1.00  0.00     0.141 C
BRANCH  10  11
HETATM   11  C9  UNL     1      30.590  -6.888 -22.133  1.00  0.00     0.020 C
BRANCH  11  12
HETATM   12  C8  UNL     1      31.367  -7.379 -23.271  1.00  0.00     0.002 C
BRANCH  12  13
HETATM   13  C7  UNL     1      31.543  -8.805 -23.555  1.00  0.00     0.000 C
BRANCH  13  14
HETATM   14  C6  UNL     1      30.630  -9.536 -24.441  1.00  0.00     0.000 C
BRANCH  14  15
HETATM   15  C5  UNL     1      29.970 -10.758 -23.826  1.00  0.00     0.000 C
BRANCH  15  16
HETATM   16  C4  UNL     1      28.654 -10.431 -23.200  1.00  0.00     0.002 C
BRANCH  16  17
HETATM   17  C3  UNL     1      28.659 -10.840 -21.755  1.00  0.00     0.027 C
BRANCH  17  18
HETATM   18  C2  UNL     1      27.537 -11.762 -21.380  1.00  0.00     0.231 C
BRANCH  18  19
HETATM   19  N1  UNL     1      27.728 -13.092 -21.953  1.00  0.00    -0.079 N
HETATM   20  C1  UNL     1      27.148 -14.045 -21.048  1.00  0.00     0.266 C
ATOM     21  H12 UNL     1      28.705 -13.295 -22.168  1.00  0.00     0.276 HD
ATOM     22  H11 UNL     1      27.361 -13.173 -22.901  1.00  0.00     0.276 HD
ENDBRANCH  18  19
ENDBRANCH  17  18
ENDBRANCH  16  17
ENDBRANCH  15  16
ENDBRANCH  14  15
ENDBRANCH  13  14
ENDBRANCH  12  13
ENDBRANCH  11  12
ENDBRANCH  10  11
ENDBRANCH   5  10
ENDBRANCH   1   2
BRANCH   1  23
HETATM   23  C14 UNL     1      26.861  -4.565 -27.479  1.00  0.00     0.258 C
BRANCH  23  24
HETATM   24  N4  UNL     1      27.530  -5.327 -28.449  1.00  0.00    -0.061 N
HETATM   25  C15 UNL     1      27.448  -4.914 -29.817  1.00  0.00     0.266 C
HETATM   26  C16 UNL     1      27.457  -6.203 -30.676  1.00  0.00     0.271 C
HETATM   27  N5  UNL     1      28.504  -7.004 -30.097  1.00  0.00    -0.037 N
HETATM   28  C20 UNL     1      27.770  -7.739 -28.991  1.00  0.00     0.271 C
HETATM   29  C22 UNL     1      29.518  -6.271 -29.388  1.00  0.00     0.271 C
HETATM   30  C21 UNL     1      26.932  -6.707 -28.324  1.00  0.00     0.266 C
HETATM   31  C23 UNL     1      28.946  -5.590 -28.150  1.00  0.00     0.266 C
BRANCH  27  32
HETATM   32  C17 UNL     1      29.015  -7.971 -30.983  1.00  0.00     0.278 C
BRANCH  32  33
HETATM   33  C18 UNL     1      29.682  -9.154 -30.489  1.00  0.00     0.283 C
HETATM   34  O1  UNL     1      30.974  -9.063 -30.460  1.00  0.00    -0.265 OA
HETATM   35  N6  UNL     1      29.114 -10.350 -30.053  1.00  0.00    -0.263 N
ATOM     36  H6  UNL     1      28.102 -10.475 -30.058  1.00  0.00     0.190 HD
BRANCH  35  37
HETATM   37  N7  UNL     1      29.969 -11.397 -29.601  1.00  0.00    -0.271 N
HETATM   38  C19 UNL     1      30.307 -12.398 -30.531  1.00  0.00     0.200 C
HETATM   39  N8  UNL     1      29.420 -13.086 -31.178  1.00  0.00    -0.372 N
HETATM   40  N9  UNL     1      31.685 -12.649 -30.757  1.00  0.00    -0.062 NA
ATOM     41  H82 UNL     1      28.429 -12.905 -31.016  1.00  0.00     0.158 HD
ATOM     42  H81 UNL     1      29.665 -13.811 -31.851  1.00  0.00     0.158 HD
ATOM     43  H7  UNL     1      30.320 -11.420 -28.644  1.00  0.00     0.189 HD
ENDBRANCH  35  37
ENDBRANCH  32  33
ENDBRANCH  27  32
ENDBRANCH  23  24
ENDBRANCH   1  23
TORSDOF 16
ENDMDL