MODEL 5
REMARK VINA RESULT: -8.405951473      3.058      5.094
REMARK  18 active torsions:
REMARK  status: ('A' for Active; 'I' for Inactive)
REMARK    1  A    between atoms: C2_2  and  C3_3
REMARK    2  A    between atoms: C3_3  and  C4_4
REMARK    3  A    between atoms: C4_4  and  C5_5
REMARK    4  A    between atoms: C5_5  and  C6_6
REMARK    5  A    between atoms: C6_6  and  C7_7
REMARK    6  A    between atoms: C7_7  and  C8_8
REMARK    7  A    between atoms: C8_8  and  C9_9
REMARK    8  A    between atoms: C9_9  and  C10_10
REMARK    9  A    between atoms: C10_10  and  C11_11
REMARK   10  A    between atoms: C11_11  and  C12_12
REMARK   11  A    between atoms: C12_12  and  C13_13
REMARK   12  A    between atoms: C13_13  and  C14_14
REMARK       I    between atoms: C14_14  and  N1_16
REMARK       I    between atoms: C15_18  and  N3_20
REMARK   13  A    between atoms: N3_20  and  C16_22
REMARK   14  A    between atoms: C16_22  and  C17_26
REMARK   15  A    between atoms: C17_26  and  C18_27
REMARK   16  A    between atoms: C18_27  and  N5_28
REMARK       I    between atoms: C19_30  and  N7_32
REMARK   17  A    between atoms: C20_34  and  N8_36
REMARK   18  A    between atoms: C23_38  and  O2_39
ROOT
HETATM    1  C14 UNL     1      27.461 -11.035 -22.066  1.00  0.00     0.224 C
HETATM    2  O1  UNL     1      28.114 -11.247 -21.028  1.00  0.00    -0.273 OA
HETATM    3  N1  UNL     1      27.385 -12.136 -22.994  1.00  0.00    -0.301 N
ATOM      4  H1  UNL     1      26.549 -12.720 -23.044  1.00  0.00     0.171 HD
HETATM    5  C15 UNL     1      28.376 -12.364 -23.745  1.00  0.00     0.196 C
HETATM    6  N2  UNL     1      28.298 -13.457 -24.664  1.00  0.00    -0.063 NA
HETATM    7  N3  UNL     1      29.536 -11.560 -23.678  1.00  0.00    -0.320 N
ATOM      8  H3  UNL     1      30.178 -11.649 -22.891  1.00  0.00     0.169 HD
ENDROOT
BRANCH   7   9
HETATM    9  C16 UNL     1      29.803 -10.625 -24.715  1.00  0.00     0.078 C
HETATM   10  N4  UNL     1      30.980 -10.146 -24.882  1.00  0.00    -0.389 N
ATOM     11  H42 UNL     1      31.749 -10.428 -24.274  1.00  0.00     0.157 HD
ATOM     12  H41 UNL     1      31.172  -9.475 -25.626  1.00  0.00     0.157 HD
BRANCH   9  13
HETATM   13  C17 UNL     1      28.683 -10.213 -25.600  1.00  0.00     0.096 C
BRANCH  13  14
HETATM   14  C18 UNL     1      29.257  -9.221 -26.595  1.00  0.00     0.130 C
BRANCH  14  15
HETATM   15  N5  UNL     1      29.541  -9.926 -27.819  1.00  0.00    -0.364 N
HETATM   16  C19 UNL     1      30.491  -9.631 -28.624  1.00  0.00     0.189 C
HETATM   17  N6  UNL     1      31.395  -8.562 -28.412  1.00  0.00    -0.064 NA
HETATM   18  N7  UNL     1      30.632 -10.433 -29.790  1.00  0.00    -0.320 N
HETATM   19  C20 UNL     1      29.930 -10.124 -30.820  1.00  0.00     0.093 C
ATOM     20  H7  UNL     1      31.270 -11.229 -29.809  1.00  0.00     0.169 HD
HETATM   21  C21 UNL     1      28.983  -8.955 -30.816  1.00  0.00     0.090 C
ATOM     22  H5  UNL     1      28.943 -10.716 -28.061  1.00  0.00     0.162 HD
BRANCH  19  23
HETATM   23  N8  UNL     1      30.049 -10.906 -31.999  1.00  0.00    -0.282 N
HETATM   24  C22 UNL     1      28.951 -11.587 -32.652  1.00  0.00     0.179 C
HETATM   25  C23 UNL     1      29.368 -11.445 -34.123  1.00  0.00     0.154 C
HETATM   26  C24 UNL     1      30.870 -11.617 -34.001  1.00  0.00     0.168 C
HETATM   27  N9  UNL     1      31.235 -11.123 -32.686  1.00  0.00    -0.135 NA
BRANCH  25  28
HETATM   28  O2  UNL     1      28.783 -12.425 -34.904  1.00  0.00    -0.393 OA
ATOM     29  H2  UNL     1      28.874 -13.281 -34.503  1.00  0.00     0.210 HD
ENDBRANCH  25  28
ENDBRANCH  19  23
ENDBRANCH  14  15
ENDBRANCH  13  14
ENDBRANCH   9  13
ENDBRANCH   7   9
BRANCH   1  30
HETATM   30  C13 UNL     1      26.810  -9.752 -22.336  1.00  0.00     0.103 C
BRANCH  30  31
HETATM   31  C12 UNL     1      27.715  -8.591 -22.152  1.00  0.00     0.009 C
BRANCH  31  32
HETATM   32  C11 UNL     1      27.807  -7.632 -23.287  1.00  0.00     0.000 C
BRANCH  32  33
HETATM   33  C10 UNL     1      26.574  -7.634 -24.162  1.00  0.00     0.000 C
BRANCH  33  34
HETATM   34  C9  UNL     1      26.464  -6.333 -24.914  1.00  0.00     0.000 C
BRANCH  34  35
HETATM   35  C8  UNL     1      27.461  -5.337 -24.430  1.00  0.00     0.000 C
BRANCH  35  36
HETATM   36  C7  UNL     1      28.118  -4.519 -25.493  1.00  0.00     0.000 C
BRANCH  36  37
HETATM   37  C6  UNL     1      29.066  -5.313 -26.349  1.00  0.00     0.000 C
BRANCH  37  38
HETATM   38  C5  UNL     1      30.293  -5.792 -25.641  1.00  0.00     0.000 C
BRANCH  38  39
HETATM   39  C4  UNL     1      31.050  -4.643 -24.986  1.00  0.00     0.000 C
BRANCH  39  40
HETATM   40  C3  UNL     1      31.715  -5.185 -23.723  1.00  0.00    -0.000 C
BRANCH  40  41
HETATM   41  C2  UNL     1      31.397  -6.657 -23.648  1.00  0.00    -0.005 C
HETATM   42  C1  UNL     1      31.223  -7.044 -22.200  1.00  0.00     0.005 C
ENDBRANCH  40  41
ENDBRANCH  39  40
ENDBRANCH  38  39
ENDBRANCH  37  38
ENDBRANCH  36  37
ENDBRANCH  35  36
ENDBRANCH  34  35
ENDBRANCH  33  34
ENDBRANCH  32  33
ENDBRANCH  31  32
ENDBRANCH  30  31
ENDBRANCH   1  30
TORSDOF 18
ENDMDL