MODEL 5
REMARK VINA RESULT: -8.542387964      1.904      3.580
REMARK  14 active torsions:
REMARK  status: ('A' for Active; 'I' for Inactive)
REMARK    1  A    between atoms: C2_2  and  C4_4
REMARK    2  A    between atoms: C4_4  and  C5_5
REMARK       I    between atoms: C5_5  and  N1_7
REMARK    3  A    between atoms: N1_7  and  C6_9
REMARK    4  A    between atoms: C6_9  and  C7_10
REMARK    5  A    between atoms: C7_10  and  C8_11
REMARK    6  A    between atoms: C8_11  and  C9_12
REMARK    7  A    between atoms: C9_12  and  C10_13
REMARK    8  A    between atoms: C10_13  and  C11_14
REMARK    9  A    between atoms: C11_14  and  C12_15
REMARK   10  A    between atoms: C12_15  and  N2_16
REMARK       I    between atoms: N2_16  and  C13_18
REMARK       I    between atoms: C13_18  and  N4_22
REMARK   11  A    between atoms: N4_22  and  C14_24
REMARK   12  A    between atoms: C15_25  and  N5_26
REMARK   13  A    between atoms: N5_26  and  C16_27
REMARK   14  A    between atoms: C17_28  and  C18_29
ROOT
HETATM    1  N2  UNL     1      28.370  -2.267 -24.819  1.00  0.00    -0.227 N
ATOM      2  H2  UNL     1      28.575  -2.125 -25.808  1.00  0.00     0.177 HD
HETATM    3  C13 UNL     1      27.616  -1.272 -24.148  1.00  0.00     0.671 C
HETATM    4  N3  UNL     1      27.362  -1.350 -22.922  1.00  0.00    -0.235 N
ATOM      5  H31 UNL     1      26.819  -0.634 -22.439  1.00  0.00     0.174 HD
ATOM      6  H32 UNL     1      27.685  -2.118 -22.334  1.00  0.00     0.174 HD
HETATM    7  N4  UNL     1      27.160  -0.191 -24.976  1.00  0.00    -0.201 N
ATOM      8  H4  UNL     1      26.199  -0.238 -25.315  1.00  0.00     0.183 HD
ENDROOT
BRANCH   1   9
HETATM    9  C12 UNL     1      28.871  -3.480 -24.185  1.00  0.00     0.138 C
BRANCH   9  10
HETATM   10  C11 UNL     1      29.919  -4.115 -25.048  1.00  0.00     0.020 C
BRANCH  10  11
HETATM   11  C10 UNL     1      31.150  -4.472 -24.198  1.00  0.00     0.002 C
BRANCH  11  12
HETATM   12  C9  UNL     1      31.276  -5.930 -23.972  1.00  0.00     0.000 C
BRANCH  12  13
HETATM   13  C8  UNL     1      30.960  -6.482 -22.642  1.00  0.00     0.002 C
BRANCH  13  14
HETATM   14  C7  UNL     1      29.585  -6.516 -22.118  1.00  0.00     0.020 C
BRANCH  14  15
HETATM   15  C6  UNL     1      28.540  -6.982 -23.049  1.00  0.00     0.122 C
BRANCH  15  16
HETATM   16  N1  UNL     1      27.844  -8.168 -22.544  1.00  0.00    -0.361 N
HETATM   17  C5  UNL     1      26.877  -8.838 -23.387  1.00  0.00     0.217 C
HETATM   18  O1  UNL     1      26.597  -8.454 -24.507  1.00  0.00    -0.274 OA
ATOM     19  H1  UNL     1      28.039  -8.518 -21.606  1.00  0.00     0.162 HD
BRANCH  17  20
HETATM   20  C4  UNL     1      26.241 -10.041 -22.778  1.00  0.00     0.106 C
BRANCH  20  21
HETATM   21  C2  UNL     1      27.302 -10.934 -22.220  1.00  0.00    -0.014 C
HETATM   22  C1  UNL     1      27.783 -11.886 -23.294  1.00  0.00     0.010 C
HETATM   23  C3  UNL     1      26.767 -11.710 -21.024  1.00  0.00     0.010 C
ENDBRANCH  20  21
ENDBRANCH  17  20
ENDBRANCH  15  16
ENDBRANCH  14  15
ENDBRANCH  13  14
ENDBRANCH  12  13
ENDBRANCH  11  12
ENDBRANCH  10  11
ENDBRANCH   9  10
ENDBRANCH   1   9
BRANCH   7  24
HETATM   24  C14 UNL     1      27.927   0.933 -25.361  1.00  0.00     0.131 C
HETATM   25  C15 UNL     1      28.478   1.887 -24.429  1.00  0.00     0.225 C
BRANCH  25  26
HETATM   26  N5  UNL     1      27.702   2.780 -23.634  1.00  0.00    -0.022 N
HETATM   27  C19 UNL     1      27.876   2.304 -22.260  1.00  0.00     0.276 C
HETATM   28  C20 UNL     1      26.962   2.896 -21.249  1.00  0.00     0.266 C
HETATM   29  N7  UNL     1      25.572   2.719 -21.533  1.00  0.00    -0.064 N
HETATM   30  C21 UNL     1      24.860   2.043 -20.463  1.00  0.00     0.237 C
HETATM   31  C24 UNL     1      24.850   3.967 -21.705  1.00  0.00     0.237 C
HETATM   32  C25 UNL     1      25.500   1.948 -22.767  1.00  0.00     0.266 C
HETATM   33  C22 UNL     1      24.629   3.191 -19.486  1.00  0.00     0.029 C
HETATM   34  C23 UNL     1      24.097   4.252 -20.440  1.00  0.00     0.029 C
HETATM   35  C26 UNL     1      26.249   2.677 -23.846  1.00  0.00     0.276 C
BRANCH  26  36
HETATM   36  C16 UNL     1      27.988   4.161 -23.739  1.00  0.00     0.213 C
HETATM   37  C17 UNL     1      27.400   5.126 -24.631  1.00  0.00     0.096 C
BRANCH  37  38
HETATM   38  C18 UNL     1      27.501   5.138 -26.057  1.00  0.00     0.256 C
HETATM   39  N6  UNL     1      26.509   4.450 -26.890  1.00  0.00    -0.058 NA
HETATM   40  O2  UNL     1      28.376   5.695 -26.725  1.00  0.00    -0.272 OA
ENDBRANCH  37  38
ENDBRANCH  26  36
ENDBRANCH  25  26
ENDBRANCH   7  24
TORSDOF 14
ENDMDL