MODEL 2
REMARK VINA RESULT: -9.136625672      1.243      1.707
REMARK  15 active torsions:
REMARK  status: ('A' for Active; 'I' for Inactive)
REMARK    1  A    between atoms: C2_2  and  N1_3
REMARK       I    between atoms: C3_5  and  N3_7
REMARK    2  A    between atoms: N3_7  and  C4_9
REMARK    3  A    between atoms: C4_9  and  C5_10
REMARK    4  A    between atoms: N4_13  and  C9_15
REMARK    5  A    between atoms: C9_15  and  C10_16
REMARK    6  A    between atoms: C10_16  and  C11_17
REMARK    7  A    between atoms: C11_17  and  C12_18
REMARK       I    between atoms: C12_18  and  N5_20
REMARK    8  A    between atoms: C13_22  and  C14_23
REMARK       I    between atoms: C14_23  and  N6_25
REMARK    9  A    between atoms: N6_25  and  C16_27
REMARK   10  A    between atoms: C16_27  and  C17_28
REMARK   11  A    between atoms: C17_28  and  C18_29
REMARK   12  A    between atoms: C18_29  and  C19_30
REMARK   13  A    between atoms: C19_30  and  C20_31
REMARK   14  A    between atoms: C20_31  and  C21_32
REMARK   15  A    between atoms: C21_32  and  N7_33
REMARK       I    between atoms: N7_33  and  C22_35
ROOT
HETATM    1  C12 UNL     1      27.461  -1.589 -24.449  1.00  0.00     0.221 C
HETATM    2  O1  UNL     1      28.400  -0.970 -24.985  1.00  0.00    -0.273 OA
HETATM    3  N5  UNL     1      27.084  -2.821 -25.064  1.00  0.00    -0.332 N
ATOM      4  H5  UNL     1      26.478  -2.843 -25.884  1.00  0.00     0.168 HD
HETATM    5  C13 UNL     1      27.546  -3.912 -24.531  1.00  0.00     0.165 C
ENDROOT
BRANCH   1   6
HETATM    6  C11 UNL     1      26.753  -1.109 -23.238  1.00  0.00     0.105 C
BRANCH   6   7
HETATM    7  C10 UNL     1      26.181   0.247 -23.505  1.00  0.00     0.037 C
BRANCH   7   8
HETATM    8  C9  UNL     1      24.971   0.654 -22.768  1.00  0.00     0.237 C
BRANCH   8   9
HETATM    9  N4  UNL     1      25.022   1.845 -21.974  1.00  0.00    -0.071 N
HETATM   10  C7  UNL     1      23.973   1.942 -20.999  1.00  0.00     0.237 C
HETATM   11  C6  UNL     1      24.058   3.236 -20.247  1.00  0.00     0.034 C
HETATM   12  C5  UNL     1      25.397   3.556 -19.678  1.00  0.00     0.006 C
HETATM   13  C24 UNL     1      26.557   2.887 -20.318  1.00  0.00     0.034 C
HETATM   14  C23 UNL     1      26.272   1.724 -21.186  1.00  0.00     0.237 C
HETATM   15  C8  UNL     1      25.219   2.991 -22.800  1.00  0.00     0.272 C
BRANCH  12  16
HETATM   16  C4  UNL     1      25.362   3.324 -18.159  1.00  0.00     0.127 C
BRANCH  16  17
HETATM   17  N3  UNL     1      24.439   4.201 -17.519  1.00  0.00    -0.364 N
HETATM   18  C3  UNL     1      24.770   5.127 -16.516  1.00  0.00     0.183 C
HETATM   19  N1  UNL     1      25.920   5.437 -16.170  1.00  0.00    -0.365 N
HETATM   20  N2  UNL     1      23.689   5.794 -15.800  1.00  0.00    -0.064 NA
ATOM     21  H1  UNL     1      25.911   6.128 -15.420  1.00  0.00     0.162 HD
ATOM     22  H3  UNL     1      23.463   4.152 -17.810  1.00  0.00     0.162 HD
BRANCH  19  23
HETATM   23  C2  UNL     1      27.228   5.092 -16.536  1.00  0.00     0.118 C
HETATM   24  C1  UNL     1      27.861   4.156 -15.503  1.00  0.00     0.026 C
ENDBRANCH  19  23
ENDBRANCH  16  17
ENDBRANCH  12  16
ENDBRANCH   8   9
ENDBRANCH   7   8
ENDBRANCH   6   7
ENDBRANCH   1   6
BRANCH   5  25
HETATM   25  C14 UNL     1      27.173  -5.169 -25.144  1.00  0.00     0.258 C
HETATM   26  O2  UNL     1      26.511  -5.166 -26.208  1.00  0.00    -0.267 OA
HETATM   27  N6  UNL     1      27.562  -6.387 -24.536  1.00  0.00    -0.352 N
HETATM   28  C15 UNL     1      27.225  -7.679 -25.152  1.00  0.00     0.152 C
BRANCH  27  29
HETATM   29  C16 UNL     1      28.266  -6.367 -23.287  1.00  0.00     0.125 C
BRANCH  29  30
HETATM   30  C17 UNL     1      28.320  -7.705 -22.634  1.00  0.00     0.020 C
BRANCH  30  31
HETATM   31  C18 UNL     1      29.695  -7.993 -22.091  1.00  0.00     0.002 C
BRANCH  31  32
HETATM   32  C19 UNL     1      30.750  -7.626 -23.110  1.00  0.00     0.002 C
BRANCH  32  33
HETATM   33  C20 UNL     1      31.665  -8.743 -23.476  1.00  0.00     0.020 C
BRANCH  33  34
HETATM   34  C21 UNL     1      31.123  -9.465 -24.712  1.00  0.00     0.122 C
BRANCH  34  35
HETATM   35  N7  UNL     1      30.689 -10.774 -24.305  1.00  0.00    -0.365 N
HETATM   36  C22 UNL     1      29.331 -11.144 -24.417  1.00  0.00     0.181 C
HETATM   37  N8  UNL     1      28.783 -11.197 -25.590  1.00  0.00    -0.374 N
HETATM   38  N9  UNL     1      28.543 -11.460 -23.283  1.00  0.00    -0.064 NA
ATOM     39  H82 UNL     1      29.351 -10.970 -26.407  1.00  0.00     0.158 HD
ATOM     40  H81 UNL     1      27.802 -11.464 -25.672  1.00  0.00     0.158 HD
ATOM     41  H7  UNL     1      31.366 -11.440 -23.931  1.00  0.00     0.162 HD
ENDBRANCH  34  35
ENDBRANCH  33  34
ENDBRANCH  32  33
ENDBRANCH  31  32
ENDBRANCH  30  31
ENDBRANCH  29  30
ENDBRANCH  27  29
ENDBRANCH   5  25
TORSDOF 15
ENDMDL