MODEL 1
REMARK VINA RESULT: -8.923764048      0.000      0.000
REMARK  16 active torsions:
REMARK  status: ('A' for Active; 'I' for Inactive)
REMARK    1  A    between atoms: C2_2  and  C3_3
REMARK    2  A    between atoms: C3_3  and  C4_4
REMARK    3  A    between atoms: C4_4  and  N1_5
REMARK    4  A    between atoms: N1_5  and  C5_7
REMARK    5  A    between atoms: C5_7  and  C6_8
REMARK    6  A    between atoms: C6_8  and  C7_9
REMARK    7  A    between atoms: C7_9  and  C8_10
REMARK    8  A    between atoms: C8_10  and  N2_11
REMARK    9  A    between atoms: N2_11  and  C9_14
REMARK   10  A    between atoms: C9_14  and  C10_15
REMARK   11  A    between atoms: C10_15  and  C11_16
REMARK   12  A    between atoms: C11_16  and  N3_17
REMARK       I    between atoms: N3_17  and  C12_19
REMARK   13  A    between atoms: C12_19  and  C13_21
REMARK   14  A    between atoms: C21_29  and  O2_30
REMARK   15  A    between atoms: C32_42  and  O3_43
REMARK   16  A    between atoms: C35_47  and  O4_48
ROOT
HETATM    1  C13 UNL     1      27.943   0.153  23.088  1.00  0.00     0.214 C
HETATM    2  C14 UNL     1      28.495  -0.992  23.932  1.00  0.00     0.053 C
HETATM    3  C15 UNL     1      27.498  -2.108  23.571  1.00  0.00    -0.015 C
HETATM    4  C16 UNL     1      26.404  -2.006  24.578  1.00  0.00     0.018 C
HETATM    5  C17 UNL     1      28.112  -3.448  23.440  1.00  0.00     0.012 C
HETATM    6  C18 UNL     1      28.312  -3.899  22.034  1.00  0.00     0.007 C
HETATM    7  C19 UNL     1      27.128  -3.766  21.118  1.00  0.00     0.003 C
HETATM    8  C20 UNL     1      26.338  -2.490  21.357  1.00  0.00     0.049 C
HETATM    9  C21 UNL     1      24.933  -2.728  21.788  1.00  0.00     0.125 C
HETATM   10  C22 UNL     1      24.247  -3.579  20.785  1.00  0.00     0.040 C
HETATM   11  C23 UNL     1      25.049  -4.723  20.224  1.00  0.00     0.031 C
HETATM   12  C24 UNL     1      26.326  -5.005  20.943  1.00  0.00    -0.033 C
HETATM   13  C25 UNL     1      27.154  -5.919  20.015  1.00  0.00     0.016 C
HETATM   14  C26 UNL     1      26.132  -5.823  22.197  1.00  0.00     0.010 C
HETATM   15  C27 UNL     1      25.267  -7.016  21.965  1.00  0.00     0.009 C
HETATM   16  C28 UNL     1      23.948  -6.648  21.384  1.00  0.00     0.031 C
HETATM   17  C29 UNL     1      22.996  -7.775  21.238  1.00  0.00    -0.015 C
HETATM   18  C30 UNL     1      21.561  -7.292  21.454  1.00  0.00     0.018 C
HETATM   19  C31 UNL     1      23.265  -8.780  22.365  1.00  0.00     0.018 C
HETATM   20  C32 UNL     1      23.087  -8.537  19.954  1.00  0.00     0.126 C
HETATM   21  C33 UNL     1      23.142  -7.640  18.733  1.00  0.00     0.035 C
HETATM   22  C34 UNL     1      24.416  -6.797  18.916  1.00  0.00     0.041 C
HETATM   23  C35 UNL     1      24.123  -5.891  20.094  1.00  0.00     0.067 C
HETATM   24  C36 UNL     1      27.163  -1.616  22.194  1.00  0.00     0.137 C
HETATM   25  O5  UNL     1      26.786  -0.335  22.447  1.00  0.00    -0.370 OA
ENDROOT
BRANCH   1  26
HETATM   26  C12 UNL     1      27.675   1.358  23.905  1.00  0.00     0.246 C
HETATM   27  N3  UNL     1      26.392   1.805  24.250  1.00  0.00    -0.359 N
ATOM     28  H3  UNL     1      25.594   1.266  23.912  1.00  0.00     0.162 HD
HETATM   29  O1  UNL     1      28.686   1.992  24.292  1.00  0.00    -0.271 OA
BRANCH  27  30
HETATM   30  C11 UNL     1      26.126   2.965  25.044  1.00  0.00     0.124 C
BRANCH  30  31
HETATM   31  C10 UNL     1      26.007   4.200  24.224  1.00  0.00     0.047 C
BRANCH  31  32
HETATM   32  C9  UNL     1      27.002   5.263  24.645  1.00  0.00     0.234 C
BRANCH  32  33
HETATM   33  N2  UNL     1      28.337   4.996  24.209  1.00  0.00    -0.075 N
ATOM     34  H22 UNL     1      28.638   4.071  24.515  1.00  0.00     0.277 HD
ATOM     35  H21 UNL     1      29.006   5.570  24.721  1.00  0.00     0.277 HD
BRANCH  33  36
HETATM   36  C8  UNL     1      28.516   5.146  22.793  1.00  0.00     0.232 C
BRANCH  36  37
HETATM   37  C7  UNL     1      28.314   6.603  22.421  1.00  0.00     0.029 C
BRANCH  37  38
HETATM   38  C6  UNL     1      29.352   7.087  21.464  1.00  0.00     0.021 C
BRANCH  38  39
HETATM   39  C5  UNL     1      29.492   8.598  21.511  1.00  0.00     0.118 C
BRANCH  39  40
HETATM   40  N1  UNL     1      28.686   9.258  20.542  1.00  0.00    -0.402 N
ATOM     41  H1  UNL     1      28.545   8.867  19.611  1.00  0.00     0.158 HD
BRANCH  40  42
HETATM   42  C4  UNL     1      28.093  10.474  20.924  1.00  0.00     0.059 C
BRANCH  42  43
HETATM   43  C3  UNL     1      26.657  10.390  21.353  1.00  0.00     0.070 C
BRANCH  43  44
HETATM   44  C2  UNL     1      26.436  10.341  22.787  1.00  0.00    -0.032 C
HETATM   45  C1  UNL     1      27.309  10.757  23.668  1.00  0.00     0.007 C
ENDBRANCH  43  44
ENDBRANCH  42  43
ENDBRANCH  40  42
ENDBRANCH  39  40
ENDBRANCH  38  39
ENDBRANCH  37  38
ENDBRANCH  36  37
ENDBRANCH  33  36
ENDBRANCH  32  33
ENDBRANCH  31  32
ENDBRANCH  30  31
ENDBRANCH  27  30
ENDBRANCH   1  26
BRANCH   9  46
HETATM   46  O2  UNL     1      24.299  -1.459  21.760  1.00  0.00    -0.395 OA
ATOM     47  H2  UNL     1      23.608  -1.528  21.111  1.00  0.00     0.210 HD
ENDBRANCH   9  46
BRANCH  23  48
HETATM   48  O4  UNL     1      22.838  -5.359  19.803  1.00  0.00    -0.389 OA
ATOM     49  H4  UNL     1      22.213  -6.053  19.973  1.00  0.00     0.210 HD
ENDBRANCH  23  48
BRANCH  20  50
HETATM   50  O3  UNL     1      24.183  -9.397  19.909  1.00  0.00    -0.395 OA
ATOM     51  H3  UNL     1      23.938 -10.301  19.749  1.00  0.00     0.210 HD
ENDBRANCH  20  50
TORSDOF 16
ENDMDL