MODEL 2
REMARK VINA RESULT: -10.695712613      1.607      2.009
REMARK  16 active torsions:
REMARK  status: ('A' for Active; 'I' for Inactive)
REMARK    1  A    between atoms: C2_2  and  C4_4
REMARK       I    between atoms: C4_4  and  N1_6
REMARK    2  A    between atoms: N1_6  and  C5_8
REMARK    3  A    between atoms: C5_8  and  C6_9
REMARK    4  A    between atoms: C6_9  and  C7_10
REMARK    5  A    between atoms: C7_10  and  C8_11
REMARK    6  A    between atoms: C8_11  and  C9_12
REMARK    7  A    between atoms: C9_12  and  C10_13
REMARK    8  A    between atoms: C9_12  and  C29_37
REMARK       I    between atoms: C10_13  and  N2_15
REMARK    9  A    between atoms: N2_15  and  C11_17
REMARK   10  A    between atoms: C20_26  and  O3_27
REMARK   11  A    between atoms: C29_37  and  O4_38
REMARK   12  A    between atoms: C29_37  and  C30_40
REMARK   13  A    between atoms: C30_40  and  O5_41
REMARK   14  A    between atoms: C30_40  and  C31_43
REMARK   15  A    between atoms: C31_43  and  O6_44
REMARK   16  A    between atoms: C31_43  and  C32_46
ROOT
HETATM    1  C9  UNL     1      27.202  -0.652  23.200  1.00  0.00     0.109 C
ENDROOT
BRANCH   1   2
HETATM    2  C8  UNL     1      28.276  -1.665  23.040  1.00  0.00     0.017 C
BRANCH   2   3
HETATM    3  C7  UNL     1      28.582  -2.551  24.182  1.00  0.00     0.002 C
BRANCH   3   4
HETATM    4  C6  UNL     1      27.276  -2.845  24.936  1.00  0.00     0.020 C
BRANCH   4   5
HETATM    5  C5  UNL     1      27.018  -4.305  25.092  1.00  0.00     0.122 C
BRANCH   5   6
HETATM    6  N1  UNL     1      25.728  -4.675  24.506  1.00  0.00    -0.361 N
HETATM    7  C4  UNL     1      25.703  -5.081  23.142  1.00  0.00     0.221 C
HETATM    8  O1  UNL     1      26.724  -5.132  22.418  1.00  0.00    -0.273 OA
ATOM      9  H1  UNL     1      24.872  -4.644  25.060  1.00  0.00     0.162 HD
BRANCH   7  10
HETATM   10  C2  UNL     1      24.415  -5.472  22.511  1.00  0.00     0.070 C
HETATM   11  C1  UNL     1      24.704  -6.373  21.335  1.00  0.00     0.019 C
HETATM   12  C3  UNL     1      23.510  -6.187  23.496  1.00  0.00     0.019 C
ENDBRANCH   7  10
ENDBRANCH   5   6
ENDBRANCH   4   5
ENDBRANCH   3   4
ENDBRANCH   2   3
ENDBRANCH   1   2
BRANCH   1  13
HETATM   13  C10 UNL     1      27.564   0.613  23.828  1.00  0.00     0.224 C
HETATM   14  O2  UNL     1      28.779   0.779  24.233  1.00  0.00    -0.273 OA
HETATM   15  N2  UNL     1      26.725   1.726  24.061  1.00  0.00    -0.356 N
ATOM     16  H2  UNL     1      25.750   1.667  23.766  1.00  0.00     0.162 HD
BRANCH  15  17
HETATM   17  C11 UNL     1      27.176   2.942  24.694  1.00  0.00     0.089 C
HETATM   18  C12 UNL     1      26.077   3.455  25.592  1.00  0.00     0.026 C
HETATM   19  C13 UNL     1      25.907   4.946  25.243  1.00  0.00     0.011 C
HETATM   20  C14 UNL     1      27.192   5.254  24.617  1.00  0.00     0.021 C
HETATM   21  C15 UNL     1      27.307   6.420  23.760  1.00  0.00    -0.074 C
HETATM   22  C28 UNL     1      27.390   4.045  23.680  1.00  0.00     0.016 C
HETATM   23  C16 UNL     1      26.314   7.244  23.559  1.00  0.00    -0.023 C
HETATM   24  C25 UNL     1      28.619   6.620  23.128  1.00  0.00     0.023 C
HETATM   25  C17 UNL     1      26.400   8.456  22.681  1.00  0.00     0.033 C
HETATM   26  C18 UNL     1      27.844   8.930  22.773  1.00  0.00     0.000 C
HETATM   27  C19 UNL     1      28.078  10.215  22.042  1.00  0.00     0.037 C
HETATM   28  C23 UNL     1      28.796   7.856  22.341  1.00  0.00    -0.033 C
HETATM   29  C20 UNL     1      29.413  10.770  22.488  1.00  0.00     0.118 C
HETATM   30  C21 UNL     1      30.230   9.729  23.223  1.00  0.00     0.032 C
HETATM   31  C22 UNL     1      30.209   8.396  22.516  1.00  0.00     0.012 C
HETATM   32  C24 UNL     1      28.651   7.557  20.841  1.00  0.00     0.016 C
HETATM   33  C26 UNL     1      28.943   5.360  22.342  1.00  0.00     0.010 C
HETATM   34  C27 UNL     1      28.808   4.148  23.210  1.00  0.00     0.008 C
BRANCH  29  35
HETATM   35  O3  UNL     1      29.162  11.810  23.380  1.00  0.00    -0.396 OA
ATOM     36  H3  UNL     1      29.217  11.456  24.259  1.00  0.00     0.210 HD
ENDBRANCH  29  35
ENDBRANCH  15  17
ENDBRANCH   1  13
BRANCH   1  37
HETATM   37  C29 UNL     1      26.389  -0.478  21.942  1.00  0.00     0.162 C
BRANCH  37  38
HETATM   38  O4  UNL     1      27.056  -0.088  20.836  1.00  0.00    -0.392 OA
ATOM     39  H4  UNL     1      26.548   0.003  20.039  1.00  0.00     0.210 HD
ENDBRANCH  37  38
BRANCH  37  40
HETATM   40  C30 UNL     1      25.620  -1.775  21.697  1.00  0.00     0.176 C
BRANCH  40  41
HETATM   41  O5  UNL     1      24.229  -1.445  21.722  1.00  0.00    -0.390 OA
ATOM     42  H5  UNL     1      23.966  -1.429  22.635  1.00  0.00     0.210 HD
ENDBRANCH  40  41
BRANCH  40  43
HETATM   43  C31 UNL     1      25.866  -2.323  20.301  1.00  0.00     0.154 C
BRANCH  43  44
HETATM   44  O6  UNL     1      27.089  -2.970  20.224  1.00  0.00    -0.393 OA
ATOM     45  H6  UNL     1      27.678  -2.674  20.909  1.00  0.00     0.210 HD
ENDBRANCH  43  44
BRANCH  43  46
HETATM   46  C32 UNL     1      24.766  -3.114  19.711  1.00  0.00     0.025 A
HETATM   47  C33 UNL     1      23.693  -2.488  18.885  1.00  0.00     0.017 A
HETATM   48  C34 UNL     1      24.775  -3.262  18.182  1.00  0.00    -0.041 A
HETATM   49  C35 UNL     1      24.445  -4.626  17.638  1.00  0.00     0.015 C
HETATM   50  C36 UNL     1      25.849  -2.502  17.417  1.00  0.00     0.015 C
ENDBRANCH  43  46
ENDBRANCH  40  43
ENDBRANCH  37  40
ENDBRANCH   1  37
TORSDOF 16
ENDMDL