MODEL 1
REMARK VINA RESULT: -9.862428334      0.000      0.000
REMARK  12 active torsions:
REMARK  status: ('A' for Active; 'I' for Inactive)
REMARK    1  A    between atoms: C3_3  and  C4_4
REMARK    2  A    between atoms: C4_4  and  C5_5
REMARK    3  A    between atoms: C4_4  and  C8_8
REMARK    4  A    between atoms: C8_8  and  O1_9
REMARK    5  A    between atoms: C9_11  and  C10_12
REMARK    6  A    between atoms: C9_11  and  C13_17
REMARK    7  A    between atoms: C10_12  and  C11_13
REMARK    8  A    between atoms: C11_13  and  C12_14
REMARK    9  A    between atoms: C22_26  and  O4_27
REMARK   10  A    between atoms: O4_27  and  S1_28
REMARK   11  A    between atoms: S1_28  and  N1_31
REMARK       I    between atoms: N1_31  and  C23_33
REMARK   12  A    between atoms: C24_38  and  O7_39
ROOT
HETATM    1  C1  UNL     1      24.745  -4.407  28.440  1.00  0.00     0.012 C
HETATM    2  C2  UNL     1      25.379  -5.379  28.158  1.00  0.00    -0.117 C
HETATM    3  C3  UNL     1      26.142  -6.511  27.769  1.00  0.00     0.104 C
ENDROOT
BRANCH   3   4
HETATM    4  C4  UNL     1      25.368  -7.860  27.721  1.00  0.00     0.057 C
BRANCH   4   5
HETATM    5  C5  UNL     1      24.622  -8.148  28.953  1.00  0.00    -0.012 C
HETATM    6  C6  UNL     1      25.219  -7.716  30.252  1.00  0.00     0.010 C
HETATM    7  C7  UNL     1      24.131  -9.560  29.175  1.00  0.00     0.010 C
ENDBRANCH   4   5
BRANCH   4   8
HETATM    8  C8  UNL     1      26.239  -8.825  27.071  1.00  0.00     0.051 C
HETATM    9  C9  UNL     1      26.341  -9.495  25.820  1.00  0.00    -0.045 C
BRANCH   8  10
HETATM   10  O1  UNL     1      27.526  -8.857  27.808  1.00  0.00    -0.364 OA
ATOM     11  H1  UNL     1      28.142  -9.381  27.309  1.00  0.00     0.217 HD
ENDBRANCH   8  10
BRANCH   9  12
HETATM   12  C10 UNL     1      25.128 -10.399  25.574  1.00  0.00     0.047 C
BRANCH  12  13
HETATM   13  C11 UNL     1      25.255 -11.261  24.308  1.00  0.00     0.117 C
BRANCH  13  14
HETATM   14  C12 UNL     1      24.105 -10.876  23.381  1.00  0.00     0.172 C
HETATM   15  O2  UNL     1      22.951 -11.155  23.679  1.00  0.00    -0.648 OA
HETATM   16  O3  UNL     1      24.420 -10.218  22.229  1.00  0.00    -0.648 OA
ENDBRANCH  13  14
ENDBRANCH  12  13
ENDBRANCH   9  12
BRANCH   9  17
HETATM   17  C13 UNL     1      26.796  -8.907  24.537  1.00  0.00     0.025 C
HETATM   18  C14 UNL     1      28.311  -8.649  24.470  1.00  0.00     0.010 C
HETATM   19  C15 UNL     1      28.511  -7.289  25.060  1.00  0.00     0.006 C
HETATM   20  C16 UNL     1      27.150  -6.563  25.017  1.00  0.00    -0.001 C
HETATM   21  C17 UNL     1      27.445  -5.210  24.343  1.00  0.00    -0.005 C
HETATM   22  C31 UNL     1      26.343  -7.495  24.188  1.00  0.00    -0.033 C
HETATM   23  C18 UNL     1      27.848  -4.164  25.321  1.00  0.00     0.006 C
HETATM   24  C28 UNL     1      26.382  -4.779  23.396  1.00  0.00    -0.001 C
HETATM   25  C19 UNL     1      27.123  -2.894  25.334  1.00  0.00     0.006 C
HETATM   26  C20 UNL     1      26.417  -2.449  24.080  1.00  0.00    -0.003 C
HETATM   27  C21 UNL     1      26.596  -1.018  23.768  1.00  0.00     0.041 C
HETATM   28  C26 UNL     1      26.570  -3.403  22.915  1.00  0.00    -0.034 C
HETATM   29  C22 UNL     1      27.442  -0.671  22.626  1.00  0.00     0.173 C
HETATM   30  C24 UNL     1      27.528  -1.672  21.551  1.00  0.00     0.149 C
HETATM   31  C25 UNL     1      27.752  -3.069  22.089  1.00  0.00     0.044 C
HETATM   32  C27 UNL     1      25.344  -3.119  22.012  1.00  0.00     0.016 C
HETATM   33  C29 UNL     1      26.302  -5.819  22.309  1.00  0.00     0.006 C
HETATM   34  C30 UNL     1      26.828  -7.178  22.739  1.00  0.00     0.010 C
HETATM   35  C32 UNL     1      24.879  -7.304  24.100  1.00  0.00     0.016 C
BRANCH  29  36
HETATM   36  O4  UNL     1      27.107   0.604  22.100  1.00  0.00    -0.251 OA
BRANCH  36  37
HETATM   37  S1  UNL     1      27.432   1.885  23.062  1.00  0.00     0.364 S
HETATM   38  O5  UNL     1      28.527   1.533  24.025  1.00  0.00    -0.175 OA
HETATM   39  O6  UNL     1      27.906   3.104  22.306  1.00  0.00    -0.175 OA
BRANCH  37  40
HETATM   40  N1  UNL     1      26.063   2.363  24.018  1.00  0.00    -0.235 N
HETATM   41  C23 UNL     1      26.218   3.484  24.881  1.00  0.00     0.197 C
HETATM   42  N2  UNL     1      25.201   4.135  25.351  1.00  0.00    -0.373 N
HETATM   43  N3  UNL     1      27.494   3.973  25.286  1.00  0.00    -0.063 NA
ATOM     44  H22 UNL     1      24.287   3.786  25.061  1.00  0.00     0.158 HD
ATOM     45  H21 UNL     1      25.311   4.939  25.969  1.00  0.00     0.158 HD
ATOM     46  H1  UNL     1      25.179   1.858  23.962  1.00  0.00     0.183 HD
ENDBRANCH  37  40
ENDBRANCH  36  37
ENDBRANCH  29  36
BRANCH  30  47
HETATM   47  O7  UNL     1      28.700  -1.381  20.810  1.00  0.00    -0.393 OA
ATOM     48  H7  UNL     1      28.492  -0.651  20.239  1.00  0.00     0.210 HD
ENDBRANCH  30  47
ENDBRANCH   9  17
ENDBRANCH   4   8
ENDBRANCH   3   4
TORSDOF 12
ENDMDL