MODEL 4
REMARK VINA RESULT: -8.362243847     10.619     17.281
REMARK  14 active torsions:
REMARK  status: ('A' for Active; 'I' for Inactive)
REMARK    1  A    between atoms: N1_2  and  C2_5
REMARK    2  A    between atoms: C4_8  and  C5_9
REMARK    3  A    between atoms: C5_9  and  C6_10
REMARK    4  A    between atoms: C9_13  and  O2_14
REMARK    5  A    between atoms: C11_22  and  C12_23
REMARK    6  A    between atoms: C12_23  and  C13_24
REMARK    7  A    between atoms: C13_24  and  C14_25
REMARK    8  A    between atoms: C14_25  and  C15_26
REMARK    9  A    between atoms: C15_26  and  C16_27
REMARK   10  A    between atoms: C16_27  and  C17_28
REMARK   11  A    between atoms: C21_35  and  C22_36
REMARK   12  A    between atoms: C22_36  and  C23_37
REMARK   13  A    between atoms: C27_44  and  C28_45
REMARK   14  A    between atoms: C28_45  and  C29_46
ROOT
HETATM    1  C2  UNL     1      28.379  -6.971  23.214  1.00  0.00     0.209 C
HETATM    2  C3  UNL     1      27.468  -8.161  23.030  1.00  0.00     0.202 C
HETATM    3  O1  UNL     1      26.451  -7.998  23.969  1.00  0.00    -0.368 OA
HETATM    4  C4  UNL     1      25.463  -7.181  23.411  1.00  0.00     0.150 C
HETATM    5  C10 UNL     1      24.776  -7.972  22.380  1.00  0.00     0.254 C
HETATM    6  O3  UNL     1      24.892  -9.246  22.589  1.00  0.00    -0.270 OA
HETATM    7  N3  UNL     1      24.047  -7.618  21.261  1.00  0.00    -0.345 N
ATOM      8  H3  UNL     1      23.055  -7.848  21.326  1.00  0.00     0.163 HD
HETATM    9  C11 UNL     1      24.418  -6.984  20.017  1.00  0.00     0.176 C
HETATM   10  C20 UNL     1      23.413  -5.917  19.768  1.00  0.00     0.241 C
HETATM   11  O4  UNL     1      22.278  -6.303  19.353  1.00  0.00    -0.271 OA
HETATM   12  N4  UNL     1      23.596  -4.543  19.943  1.00  0.00    -0.346 N
ATOM     13  H4  UNL     1      22.770  -4.006  20.207  1.00  0.00     0.163 HD
HETATM   14  C21 UNL     1      24.821  -3.798  19.796  1.00  0.00     0.177 C
HETATM   15  C26 UNL     1      24.827  -2.595  20.697  1.00  0.00     0.240 C
HETATM   16  O5  UNL     1      24.654  -1.470  20.168  1.00  0.00    -0.271 OA
HETATM   17  N5  UNL     1      25.014  -2.641  22.084  1.00  0.00    -0.355 N
ATOM     18  H5  UNL     1      24.401  -2.047  22.643  1.00  0.00     0.162 HD
HETATM   19  C27 UNL     1      25.980  -3.435  22.814  1.00  0.00     0.085 C
HETATM   20  C33 UNL     1      25.289  -4.688  23.306  1.00  0.00     0.033 C
HETATM   21  C34 UNL     1      26.114  -5.913  22.992  1.00  0.00     0.034 C
HETATM   22  C35 UNL     1      27.482  -5.805  23.653  1.00  0.00     0.043 C
ENDROOT
BRANCH   4  23
HETATM   23  C5  UNL     1      24.456  -6.973  24.533  1.00  0.00     0.105 C
BRANCH  23  24
HETATM   24  C6  UNL     1      25.056  -7.075  25.883  1.00  0.00     0.014 A
HETATM   25  C7  UNL     1      25.343  -6.002  26.726  1.00  0.00     0.029 A
HETATM   26  C8  UNL     1      25.876  -6.488  27.880  1.00  0.00     0.058 A
HETATM   27  C9  UNL     1      25.917  -7.846  27.754  1.00  0.00     0.140 A
HETATM   28  N2  UNL     1      25.428  -8.188  26.563  1.00  0.00    -0.341 N
ATOM     29  H2  UNL     1      25.346  -9.143  26.215  1.00  0.00     0.167 HD
BRANCH  27  30
HETATM   30  O2  UNL     1      26.393  -8.755  28.707  1.00  0.00    -0.346 OA
ATOM     31  H2  UNL     1      26.947  -8.552  29.452  1.00  0.00     0.219 HD
ENDBRANCH  27  30
ENDBRANCH  23  24
ENDBRANCH   4  23
BRANCH   1  32
HETATM   32  N1  UNL     1      29.236  -7.261  24.348  1.00  0.00    -0.073 N
HETATM   33  C1  UNL     1      29.938  -8.502  24.245  1.00  0.00     0.267 C
ATOM     34  H12 UNL     1      28.705  -7.221  25.218  1.00  0.00     0.277 HD
ATOM     35  H11 UNL     1      29.888  -6.493  24.509  1.00  0.00     0.277 HD
ENDBRANCH   1  32
BRANCH   9  36
HETATM   36  C12 UNL     1      24.199  -8.031  18.925  1.00  0.00     0.035 C
BRANCH  36  37
HETATM   37  C13 UNL     1      25.379  -8.900  18.676  1.00  0.00     0.002 C
BRANCH  37  38
HETATM   38  C14 UNL     1      25.272  -9.289  17.171  1.00  0.00     0.000 C
BRANCH  38  39
HETATM   39  C15 UNL     1      25.269  -8.081  16.320  1.00  0.00     0.000 C
BRANCH  39  40
HETATM   40  C16 UNL     1      24.179  -8.044  15.333  1.00  0.00     0.004 C
BRANCH  40  41
HETATM   41  C17 UNL     1      23.232  -6.918  15.297  1.00  0.00    -0.023 C
HETATM   42  C18 UNL     1      21.872  -7.111  15.855  1.00  0.00     0.009 C
HETATM   43  C19 UNL     1      23.809  -5.639  15.894  1.00  0.00     0.009 C
ENDBRANCH  40  41
ENDBRANCH  39  40
ENDBRANCH  38  39
ENDBRANCH  37  38
ENDBRANCH  36  37
ENDBRANCH   9  36
BRANCH  19  44
HETATM   44  C28 UNL     1      26.556  -2.668  23.959  1.00  0.00     0.033 C
BRANCH  44  45
HETATM   45  C29 UNL     1      27.751  -1.843  23.719  1.00  0.00    -0.050 C
HETATM   46  C30 UNL     1      28.384  -2.024  22.364  1.00  0.00     0.014 C
HETATM   47  C31 UNL     1      28.819  -2.385  24.716  1.00  0.00     0.014 C
HETATM   48  C32 UNL     1      27.576  -0.405  24.120  1.00  0.00     0.014 C
ENDBRANCH  44  45
ENDBRANCH  19  44
BRANCH  14  49
HETATM   49  C22 UNL     1      25.115  -3.502  18.386  1.00  0.00     0.038 C
BRANCH  49  50
HETATM   50  C23 UNL     1      26.481  -3.649  17.849  1.00  0.00    -0.020 C
HETATM   51  C24 UNL     1      26.651  -3.397  16.373  1.00  0.00     0.009 C
HETATM   52  C25 UNL     1      26.897  -5.126  18.068  1.00  0.00     0.009 C
ENDBRANCH  49  50
ENDBRANCH  14  49
TORSDOF 14
ENDMDL