MODEL 2
REMARK VINA RESULT: -8.762684041      2.768      6.885
REMARK  13 active torsions:
REMARK  status: ('A' for Active; 'I' for Inactive)
REMARK    1  A    between atoms: C2_2  and  C3_3
REMARK    2  A    between atoms: C3_3  and  C4_4
REMARK    3  A    between atoms: C4_4  and  C5_5
REMARK    4  A    between atoms: C5_5  and  C6_6
REMARK    5  A    between atoms: C6_6  and  C7_7
REMARK    6  A    between atoms: C7_7  and  C8_8
REMARK    7  A    between atoms: C8_8  and  N1_9
REMARK       I    between atoms: N1_9  and  C9_11
REMARK       I    between atoms: C9_11  and  N2_13
REMARK    8  A    between atoms: N2_13  and  N3_15
REMARK    9  A    between atoms: C14_21  and  C15_22
REMARK   10  A    between atoms: C15_22  and  C16_23
REMARK   11  A    between atoms: C16_23  and  C17_24
REMARK   12  A    between atoms: C17_24  and  N4_25
REMARK       I    between atoms: N4_25  and  C18_27
REMARK   13  A    between atoms: C32_48  and  N8_49
ROOT
HETATM    1  N3  UNL     1      27.651  -5.887  19.274  1.00  0.00    -0.304 N
ATOM      2  H3  UNL     1      28.556  -6.330  19.121  1.00  0.00     0.186 HD
HETATM    3  C10 UNL     1      26.819  -5.907  18.323  1.00  0.00     0.018 C
HETATM    4  C11 UNL     1      25.483  -5.262  18.521  1.00  0.00     0.065 C
HETATM    5  C12 UNL     1      25.140  -4.400  17.349  1.00  0.00    -0.031 C
HETATM    6  C13 UNL     1      23.824  -4.815  16.684  1.00  0.00     0.016 C
HETATM    7  C14 UNL     1      24.926  -2.933  17.720  1.00  0.00    -0.006 C
HETATM    8  C19 UNL     1      26.295  -2.491  18.079  1.00  0.00     0.006 C
HETATM    9  C20 UNL     1      27.140  -3.149  16.981  1.00  0.00     0.006 C
HETATM   10  C21 UNL     1      26.262  -4.237  16.376  1.00  0.00     0.000 C
HETATM   11  C22 UNL     1      27.024  -5.456  15.989  1.00  0.00     0.016 C
HETATM   12  C23 UNL     1      28.393  -4.925  15.528  1.00  0.00     0.086 C
HETATM   13  C24 UNL     1      28.897  -5.894  14.555  1.00  0.00     0.139 C
HETATM   14  O2  UNL     1      28.714  -5.631  13.396  1.00  0.00    -0.297 OA
HETATM   15  C25 UNL     1      29.617  -7.178  14.863  1.00  0.00     0.041 C
HETATM   16  C26 UNL     1      28.878  -8.250  14.045  1.00  0.00     0.028 C
HETATM   17  C27 UNL     1      30.954  -7.044  14.281  1.00  0.00     0.028 C
HETATM   18  C28 UNL     1      29.460  -7.517  16.269  1.00  0.00    -0.033 C
HETATM   19  C29 UNL     1      30.665  -7.976  16.688  1.00  0.00     0.033 C
HETATM   20  C30 UNL     1      31.045  -8.556  17.896  1.00  0.00     0.007 C
HETATM   21  C31 UNL     1      32.493  -8.610  18.097  1.00  0.00     0.068 C
HETATM   22  N7  UNL     1      30.189  -9.031  18.812  1.00  0.00    -0.347 N
ATOM     23  H7  UNL     1      30.629  -9.509  19.598  1.00  0.00     0.167 HD
HETATM   24  C32 UNL     1      28.846  -8.981  18.866  1.00  0.00     0.099 C
HETATM   25  C33 UNL     1      28.001  -8.197  18.109  1.00  0.00     0.057 C
HETATM   26  C34 UNL     1      28.287  -7.384  17.012  1.00  0.00    -0.033 C
HETATM   27  C35 UNL     1      27.102  -6.542  16.984  1.00  0.00     0.028 C
HETATM   28  C36 UNL     1      25.919  -7.484  16.705  1.00  0.00     0.027 C
ENDROOT
BRANCH   1  29
HETATM   29  N2  UNL     1      27.424  -5.310  20.498  1.00  0.00    -0.252 N
HETATM   30  C9  UNL     1      26.986  -5.970  21.658  1.00  0.00     0.334 C
HETATM   31  N1  UNL     1      26.787  -5.283  22.887  1.00  0.00    -0.342 N
HETATM   32  O1  UNL     1      26.758  -7.206  21.634  1.00  0.00    -0.246 OA
ATOM     33  H1  UNL     1      26.968  -4.280  22.920  1.00  0.00     0.164 HD
ATOM     34  H2  UNL     1      27.589  -4.307  20.573  1.00  0.00     0.191 HD
BRANCH  31  35
HETATM   35  C8  UNL     1      26.337  -5.946  24.089  1.00  0.00     0.124 C
BRANCH  35  36
HETATM   36  C7  UNL     1      24.874  -5.602  24.350  1.00  0.00     0.020 C
BRANCH  36  37
HETATM   37  C6  UNL     1      24.028  -6.828  24.046  1.00  0.00     0.002 C
BRANCH  37  38
HETATM   38  C5  UNL     1      23.109  -6.524  22.888  1.00  0.00     0.000 C
BRANCH  38  39
HETATM   39  C4  UNL     1      22.758  -7.798  22.175  1.00  0.00     0.004 C
BRANCH  39  40
HETATM   40  C3  UNL     1      21.635  -7.579  21.183  1.00  0.00     0.026 C
BRANCH  40  41
HETATM   41  C2  UNL     1      22.068  -6.700  20.055  1.00  0.00    -0.037 C
HETATM   42  C1  UNL     1      22.013  -7.099  18.792  1.00  0.00     0.007 C
ENDBRANCH  40  41
ENDBRANCH  39  40
ENDBRANCH  38  39
ENDBRANCH  37  38
ENDBRANCH  36  37
ENDBRANCH  35  36
ENDBRANCH  31  35
ENDBRANCH   1  29
BRANCH   7  43
HETATM   43  C15 UNL     1      23.876  -2.694  18.733  1.00  0.00     0.007 C
BRANCH  43  44
HETATM   44  C16 UNL     1      24.575  -2.730  20.099  1.00  0.00     0.020 C
BRANCH  44  45
HETATM   45  C17 UNL     1      24.188  -1.509  20.914  1.00  0.00     0.122 C
BRANCH  45  46
HETATM   46  N4  UNL     1      25.150  -1.278  21.973  1.00  0.00    -0.365 N
HETATM   47  C18 UNL     1      25.542   0.033  22.360  1.00  0.00     0.181 C
HETATM   48  N5  UNL     1      24.891   0.689  23.257  1.00  0.00    -0.374 N
HETATM   49  N6  UNL     1      26.669   0.666  21.770  1.00  0.00    -0.064 NA
ATOM     50  H52 UNL     1      24.081   0.235  23.681  1.00  0.00     0.158 HD
ATOM     51  H51 UNL     1      25.172   1.630  23.535  1.00  0.00     0.158 HD
ATOM     52  H4  UNL     1      25.558  -2.079  22.455  1.00  0.00     0.162 HD
ENDBRANCH  45  46
ENDBRANCH  44  45
ENDBRANCH  43  44
ENDBRANCH   7  43
BRANCH  24  53
HETATM   53  N8  UNL     1      28.329  -9.773  19.734  1.00  0.00    -0.385 N
ATOM     54  H82 UNL     1      28.769  -9.840  20.653  1.00  0.00     0.157 HD
ATOM     55  H81 UNL     1      27.502 -10.269  19.402  1.00  0.00     0.157 HD
ENDBRANCH  24  53
TORSDOF 13
ENDMDL