MODEL 4
REMARK VINA RESULT: -9.628703790      3.242      8.681
REMARK  15 active torsions:
REMARK  status: ('A' for Active; 'I' for Inactive)
REMARK       I    between atoms: N1_5  and  C5_6
REMARK    1  A    between atoms: C5_6  and  C6_8
REMARK    2  A    between atoms: C6_8  and  C7_9
REMARK    3  A    between atoms: C6_8  and  N2_13
REMARK    4  A    between atoms: C7_9  and  C8_10
REMARK    5  A    between atoms: N2_13  and  C11_15
REMARK    6  A    between atoms: C11_15  and  C12_16
REMARK    7  A    between atoms: C11_15  and  C15_19
REMARK    8  A    between atoms: C15_19  and  N3_20
REMARK       I    between atoms: N3_20  and  C16_22
REMARK    9  A    between atoms: C16_22  and  C17_24
REMARK   10  A    between atoms: C17_24  and  N4_25
REMARK   11  A    between atoms: C17_24  and  C18_29
REMARK   12  A    between atoms: C18_29  and  C19_30
REMARK   13  A    between atoms: C27_41  and  C28_42
REMARK   14  A    between atoms: C28_42  and  O3_43
REMARK   15  A    between atoms: C28_42  and  C29_45
ROOT
HETATM    1  C15 UNL     1      27.208   6.697  25.188  1.00  0.00     0.103 C
HETATM    2  C25 UNL     1      25.977   6.054  25.636  1.00  0.00     0.067 C
HETATM    3  C26 UNL     1      26.236   4.652  26.129  1.00  0.00     0.236 C
HETATM    4  N5  UNL     1      27.537   4.397  25.712  1.00  0.00    -0.066 N
ATOM      5  H51 UNL     1      27.611   3.492  25.247  1.00  0.00     0.277 HD
ATOM      6  H52 UNL     1      28.154   4.216  26.503  1.00  0.00     0.277 HD
HETATM    7  C27 UNL     1      28.050   5.484  24.865  1.00  0.00     0.248 C
ENDROOT
BRANCH   1   8
HETATM    8  C11 UNL     1      28.056   7.496  26.189  1.00  0.00     0.017 C
BRANCH   8   9
HETATM    9  N2  UNL     1      27.337   7.891  27.323  1.00  0.00    -0.381 N
ATOM     10  H2  UNL     1      26.522   8.419  27.012  1.00  0.00     0.160 HD
BRANCH   9  11
HETATM   11  C6  UNL     1      27.313   7.841  28.642  1.00  0.00     0.174 C
BRANCH  11  12
HETATM   12  C5  UNL     1      27.258   9.056  29.510  1.00  0.00     0.242 C
HETATM   13  N1  UNL     1      28.341   9.553  30.274  1.00  0.00    -0.347 N
HETATM   14  C4  UNL     1      29.672   8.981  30.327  1.00  0.00     0.153 C
HETATM   15  C35 UNL     1      28.126  10.733  31.081  1.00  0.00     0.130 C
HETATM   16  C3  UNL     1      30.737  10.003  30.557  1.00  0.00    -0.005 C
HETATM   17  C2  UNL     1      30.495  10.918  31.479  1.00  0.00    -0.084 C
HETATM   18  C1  UNL     1      31.495  11.956  31.763  1.00  0.00     0.043 C
HETATM   19  C36 UNL     1      29.178  10.815  32.167  1.00  0.00     0.053 C
HETATM   20  O1  UNL     1      26.221   9.755  29.635  1.00  0.00    -0.271 OA
ENDBRANCH  11  12
BRANCH  11  21
HETATM   21  C7  UNL     1      26.131   6.984  29.118  1.00  0.00     0.038 C
BRANCH  21  22
HETATM   22  C8  UNL     1      26.313   5.805  29.901  1.00  0.00    -0.020 C
HETATM   23  C9  UNL     1      24.888   5.204  30.109  1.00  0.00     0.009 C
HETATM   24  C10 UNL     1      27.193   4.681  29.684  1.00  0.00     0.009 C
ENDBRANCH  21  22
ENDBRANCH  11  21
ENDBRANCH   9  11
ENDBRANCH   8   9
BRANCH   8  25
HETATM   25  C12 UNL     1      29.498   7.332  26.339  1.00  0.00     0.025 C
HETATM   26  C13 UNL     1      30.082   6.538  27.479  1.00  0.00     0.016 C
HETATM   27  C14 UNL     1      30.291   8.645  26.431  1.00  0.00     0.016 C
ENDBRANCH   8  25
ENDBRANCH   1   8
BRANCH   1  28
HETATM   28  N3  UNL     1      26.895   7.525  24.036  1.00  0.00    -0.343 N
HETATM   29  C16 UNL     1      26.931   8.896  23.789  1.00  0.00     0.249 C
HETATM   30  O2  UNL     1      27.260   9.869  24.492  1.00  0.00    -0.271 OA
ATOM     31  H3  UNL     1      26.578   6.984  23.232  1.00  0.00     0.163 HD
BRANCH  29  32
HETATM   32  C17 UNL     1      26.507   9.442  22.421  1.00  0.00     0.275 C
BRANCH  32  33
HETATM   33  N4  UNL     1      27.173   8.796  21.353  1.00  0.00    -0.066 N
ATOM     34  H43 UNL     1      27.082   7.782  21.422  1.00  0.00     0.275 HD
ATOM     35  H42 UNL     1      26.684   8.944  20.471  1.00  0.00     0.275 HD
ATOM     36  H41 UNL     1      28.153   9.074  21.282  1.00  0.00     0.275 HD
ENDBRANCH  32  33
BRANCH  32  37
HETATM   37  C18 UNL     1      26.717  10.930  22.338  1.00  0.00     0.047 C
BRANCH  37  38
HETATM   38  C19 UNL     1      27.659  11.241  21.226  1.00  0.00    -0.012 C
HETATM   39  C20 UNL     1      27.104  12.055  20.109  1.00  0.00     0.005 C
HETATM   40  C21 UNL     1      26.874  13.492  20.459  1.00  0.00     0.000 C
HETATM   41  C22 UNL     1      28.165  14.111  20.966  1.00  0.00     0.000 C
HETATM   42  C23 UNL     1      28.647  13.333  22.164  1.00  0.00     0.000 C
HETATM   43  C24 UNL     1      28.927  11.916  21.703  1.00  0.00     0.005 C
ENDBRANCH  37  38
ENDBRANCH  32  37
ENDBRANCH  29  32
ENDBRANCH   1  28
BRANCH   7  44
HETATM   44  C28 UNL     1      28.227   5.025  23.492  1.00  0.00     0.155 C
BRANCH  44  45
HETATM   45  O3  UNL     1      27.550   5.845  22.594  1.00  0.00    -0.393 OA
ATOM     46  H3  UNL     1      28.149   6.247  21.976  1.00  0.00     0.210 HD
ENDBRANCH  44  45
BRANCH  44  47
HETATM   47  C29 UNL     1      29.692   5.239  23.108  1.00  0.00     0.016 C
HETATM   48  C30 UNL     1      29.996   6.595  22.585  1.00  0.00     0.007 C
HETATM   49  C31 UNL     1      31.325   6.475  21.818  1.00  0.00     0.000 C
HETATM   50  C32 UNL     1      32.404   5.868  22.685  1.00  0.00     0.000 C
HETATM   51  C33 UNL     1      31.983   4.525  23.267  1.00  0.00     0.000 C
HETATM   52  C34 UNL     1      30.693   4.764  24.087  1.00  0.00     0.007 C
ENDBRANCH  44  47
ENDBRANCH   7  44
TORSDOF 15
ENDMDL