MODEL 3
REMARK VINA RESULT: -9.042538791      1.290      1.850
REMARK  14 active torsions:
REMARK  status: ('A' for Active; 'I' for Inactive)
REMARK    1  A    between atoms: C2_2  and  C3_3
REMARK    2  A    between atoms: C3_3  and  N1_4
REMARK    3  A    between atoms: N1_4  and  C4_5
REMARK    4  A    between atoms: N1_4  and  C12_20
REMARK    5  A    between atoms: C4_5  and  C5_6
REMARK       I    between atoms: C5_6  and  N2_8
REMARK    6  A    between atoms: N2_8  and  C6_10
REMARK    7  A    between atoms: C6_10  and  C7_11
REMARK    8  A    between atoms: C7_11  and  N3_12
REMARK    9  A    between atoms: N3_12  and  C8_14
REMARK   10  A    between atoms: C8_14  and  C9_15
REMARK   11  A    between atoms: C9_15  and  N4_17
REMARK   12  A    between atoms: C20_28  and  O2_29
REMARK   13  A    between atoms: C21_31  and  C22_32
REMARK   14  A    between atoms: C30_41  and  O3_42
ROOT
HETATM    1  C12 UNL     1      27.972   4.148  23.931  1.00  0.00     0.113 C
HETATM    2  C13 UNL     1      27.576   5.621  24.062  1.00  0.00     0.035 C
HETATM    3  C14 UNL     1      28.656   6.454  23.589  1.00  0.00     0.026 C
HETATM    4  C15 UNL     1      29.597   7.079  24.616  1.00  0.00    -0.011 C
HETATM    5  C16 UNL     1      28.902   7.650  25.784  1.00  0.00     0.018 C
HETATM    6  C17 UNL     1      30.523   5.987  25.062  1.00  0.00    -0.005 C
HETATM    7  C18 UNL     1      31.614   5.640  24.120  1.00  0.00     0.011 C
HETATM    8  C19 UNL     1      29.727   4.851  25.587  1.00  0.00     0.039 C
HETATM    9  C20 UNL     1      29.219   3.827  24.664  1.00  0.00     0.141 C
HETATM   10  C21 UNL     1      30.249   8.086  23.682  1.00  0.00     0.112 C
HETATM   11  N5  UNL     1      29.146   8.618  23.020  1.00  0.00    -0.386 N
HETATM   12  C24 UNL     1      29.126   9.867  22.398  1.00  0.00     0.034 C
HETATM   13  C25 UNL     1      30.271   9.909  21.371  1.00  0.00     0.039 C
HETATM   14  C26 UNL     1      29.355  10.974  23.359  1.00  0.00     0.036 C
HETATM   15  C27 UNL     1      28.514  12.193  23.271  1.00  0.00     0.041 C
HETATM   16  C28 UNL     1      27.913  12.481  21.978  1.00  0.00    -0.049 A
HETATM   17  C29 UNL     1      27.680  13.778  21.598  1.00  0.00     0.044 A
HETATM   18  C30 UNL     1      27.113  14.065  20.388  1.00  0.00     0.066 A
HETATM   19  C31 UNL     1      26.774  13.034  19.543  1.00  0.00     0.037 A
HETATM   20  C32 UNL     1      27.019  11.744  19.949  1.00  0.00     0.011 A
HETATM   21  C33 UNL     1      27.596  11.415  21.177  1.00  0.00    -0.045 A
HETATM   22  C34 UNL     1      27.854  10.006  21.585  1.00  0.00     0.047 C
HETATM   23  C35 UNL     1      26.665   9.459  22.299  1.00  0.00     0.014 C
HETATM   24  C36 UNL     1      26.855   8.092  22.888  1.00  0.00     0.031 C
HETATM   25  C37 UNL     1      28.265   7.605  22.662  1.00  0.00     0.030 C
HETATM   26  C38 UNL     1      28.318   7.044  21.270  1.00  0.00     0.039 C
ENDROOT
BRANCH   1  27
HETATM   27  N1  UNL     1      26.837   3.357  24.090  1.00  0.00    -0.374 N
BRANCH  27  28
HETATM   28  C3  UNL     1      26.122   3.247  25.272  1.00  0.00     0.086 C
BRANCH  28  29
HETATM   29  C2  UNL     1      26.097   4.467  26.155  1.00  0.00     0.007 C
HETATM   30  C1  UNL     1      26.549   4.387  27.392  1.00  0.00     0.012 C
ENDBRANCH  28  29
ENDBRANCH  27  28
BRANCH  27  31
HETATM   31  C4  UNL     1      26.831   2.274  23.175  1.00  0.00     0.225 C
BRANCH  31  32
HETATM   32  C5  UNL     1      27.287   0.971  23.674  1.00  0.00     0.235 C
HETATM   33  O1  UNL     1      28.439   0.839  24.116  1.00  0.00    -0.272 OA
HETATM   34  N2  UNL     1      26.407  -0.122  23.647  1.00  0.00    -0.355 N
ATOM     35  H2  UNL     1      25.470   0.045  23.279  1.00  0.00     0.162 HD
BRANCH  34  36
HETATM   36  C6  UNL     1      26.712  -1.477  24.099  1.00  0.00     0.167 C
BRANCH  36  37
HETATM   37  C7  UNL     1      27.451  -2.290  23.097  1.00  0.00     0.079 C
BRANCH  37  38
HETATM   38  N3  UNL     1      27.170  -2.172  21.749  1.00  0.00    -0.379 N
ATOM     39  H3  UNL     1      27.825  -1.623  21.191  1.00  0.00     0.164 HD
BRANCH  38  40
HETATM   40  C8  UNL     1      26.103  -2.719  21.083  1.00  0.00     0.084 C
BRANCH  40  41
HETATM   41  C9  UNL     1      25.589  -1.985  19.889  1.00  0.00     0.110 C
HETATM   42  C10 UNL     1      24.112  -2.381  19.682  1.00  0.00     0.037 C
BRANCH  41  43
HETATM   43  N4  UNL     1      26.363  -2.289  18.734  1.00  0.00    -0.417 N
HETATM   44  C11 UNL     1      25.623  -2.658  17.564  1.00  0.00     0.140 C
ATOM     45  H4  UNL     1      27.381  -2.247  18.738  1.00  0.00     0.153 HD
ENDBRANCH  41  43
ENDBRANCH  40  41
ENDBRANCH  38  40
ENDBRANCH  37  38
ENDBRANCH  36  37
ENDBRANCH  34  36
ENDBRANCH  31  32
ENDBRANCH  27  31
ENDBRANCH   1  27
BRANCH   9  46
HETATM   46  O2  UNL     1      30.252   3.397  23.807  1.00  0.00    -0.393 OA
ATOM     47  H2  UNL     1      30.228   2.461  23.651  1.00  0.00     0.210 HD
ENDBRANCH   9  46
BRANCH  10  48
HETATM   48  C22 UNL     1      31.289   8.914  24.212  1.00  0.00    -0.012 C
HETATM   49  C23 UNL     1      32.596   8.856  24.175  1.00  0.00     0.009 C
ENDBRANCH  10  48
BRANCH  18  50
HETATM   50  O3  UNL     1      26.886  15.406  20.026  1.00  0.00    -0.361 OA
ATOM     51  H3  UNL     1      27.616  15.952  19.757  1.00  0.00     0.217 HD
ENDBRANCH  18  50
TORSDOF 14
ENDMDL