MODEL 3
REMARK VINA RESULT: -10.972426163      1.181      1.318
REMARK  16 active torsions:
REMARK  status: ('A' for Active; 'I' for Inactive)
REMARK    1  A    between atoms: C2_2  and  C3_3
REMARK    2  A    between atoms: C2_2  and  C18_30
REMARK    3  A    between atoms: C3_3  and  C4_4
REMARK    4  A    between atoms: C4_4  and  C5_5
REMARK    5  A    between atoms: C5_5  and  O1_6
REMARK    6  A    between atoms: C5_5  and  C6_8
REMARK       I    between atoms: C6_8  and  N1_10
REMARK    7  A    between atoms: N1_10  and  C7_12
REMARK    8  A    between atoms: C7_12  and  C8_13
REMARK    9  A    between atoms: C8_13  and  C9_14
REMARK   10  A    between atoms: C9_14  and  C10_15
REMARK   11  A    between atoms: C10_15  and  C11_16
REMARK   12  A    between atoms: C16_24  and  C17_25
REMARK   13  A    between atoms: C17_25  and  O3_26
REMARK   14  A    between atoms: C23_35  and  O4_36
REMARK   15  A    between atoms: C28_42  and  C29_43
REMARK   16  A    between atoms: C29_43  and  C30_44
ROOT
HETATM    1  C1  UNL     1      29.062  -1.621  24.536  1.00  0.00     0.010 C
HETATM    2  C2  UNL     1      28.128  -2.244  23.518  1.00  0.00    -0.013 C
ENDROOT
BRANCH   2   3
HETATM    3  C3  UNL     1      27.421  -1.007  22.889  1.00  0.00     0.011 C
BRANCH   3   4
HETATM    4  C4  UNL     1      25.969  -0.985  23.105  1.00  0.00     0.070 C
BRANCH   4   5
HETATM    5  C5  UNL     1      25.377   0.349  22.915  1.00  0.00     0.111 C
BRANCH   5   6
HETATM    6  O1  UNL     1      24.137   0.381  22.484  1.00  0.00    -0.359 OA
ATOM      7  H1  UNL     1      23.826   1.216  22.155  1.00  0.00     0.217 HD
ENDBRANCH   5   6
BRANCH   5   8
HETATM    8  C6  UNL     1      26.045   1.599  23.164  1.00  0.00     0.270 C
HETATM    9  O2  UNL     1      26.760   2.174  22.338  1.00  0.00    -0.266 OA
HETATM   10  N1  UNL     1      25.882   2.225  24.438  1.00  0.00    -0.355 N
ATOM     11  H1  UNL     1      25.296   1.756  25.130  1.00  0.00     0.162 HD
BRANCH  10  12
HETATM   12  C7  UNL     1      26.490   3.468  24.806  1.00  0.00     0.123 C
BRANCH  12  13
HETATM   13  C8  UNL     1      25.600   4.638  24.583  1.00  0.00     0.020 C
BRANCH  13  14
HETATM   14  C9  UNL     1      26.283   5.750  23.812  1.00  0.00     0.005 C
BRANCH  14  15
HETATM   15  C10 UNL     1      27.729   5.490  23.531  1.00  0.00     0.054 C
BRANCH  15  16
HETATM   16  C11 UNL     1      28.624   6.619  24.042  1.00  0.00     0.280 C
HETATM   17  N2  UNL     1      30.004   6.215  23.958  1.00  0.00    -0.050 N
HETATM   18  C12 UNL     1      30.446   6.058  22.609  1.00  0.00     0.190 C
ATOM     19  H22 UNL     1      30.607   6.859  24.470  1.00  0.00     0.280 HD
ATOM     20  H21 UNL     1      30.172   5.368  24.501  1.00  0.00     0.280 HD
HETATM   21  C13 UNL     1      31.959   5.823  22.637  1.00  0.00     0.040 C
HETATM   22  C14 UNL     1      30.173   7.257  21.776  1.00  0.00     0.036 C
HETATM   23  C15 UNL     1      29.749   6.758  20.389  1.00  0.00     0.014 C
HETATM   24  C16 UNL     1      29.199   8.241  22.321  1.00  0.00     0.107 C
HETATM   25  N3  UNL     1      28.297   7.784  23.314  1.00  0.00    -0.389 N
ATOM     26  H3  UNL     1      27.429   8.286  23.499  1.00  0.00     0.155 HD
BRANCH  24  27
HETATM   27  C17 UNL     1      29.887   9.556  22.725  1.00  0.00     0.189 C
BRANCH  27  28
HETATM   28  O3  UNL     1      30.953   9.353  23.561  1.00  0.00    -0.399 OA
ATOM     29  H3  UNL     1      31.777   9.614  23.168  1.00  0.00     0.209 HD
ENDBRANCH  27  28
ENDBRANCH  24  27
ENDBRANCH  15  16
ENDBRANCH  14  15
ENDBRANCH  13  14
ENDBRANCH  12  13
ENDBRANCH  10  12
ENDBRANCH   5   8
ENDBRANCH   4   5
ENDBRANCH   3   4
ENDBRANCH   2   3
BRANCH   2  30
HETATM   30  C18 UNL     1      27.127  -3.181  24.070  1.00  0.00    -0.002 C
HETATM   31  C19 UNL     1      27.240  -3.376  25.558  1.00  0.00     0.006 C
HETATM   32  C20 UNL     1      26.308  -4.573  25.752  1.00  0.00     0.011 C
HETATM   33  C21 UNL     1      26.713  -5.441  24.582  1.00  0.00    -0.023 C
HETATM   34  C22 UNL     1      27.995  -6.163  25.024  1.00  0.00     0.042 C
HETATM   35  C26 UNL     1      25.732  -6.545  24.319  1.00  0.00     0.024 C
HETATM   36  C36 UNL     1      26.988  -4.523  23.445  1.00  0.00    -0.031 C
HETATM   37  C23 UNL     1      27.835  -7.069  26.171  1.00  0.00     0.119 C
HETATM   38  C24 UNL     1      26.511  -7.667  26.409  1.00  0.00     0.032 C
HETATM   39  C25 UNL     1      25.354  -7.044  25.721  1.00  0.00     0.012 C
HETATM   40  C27 UNL     1      24.565  -6.161  23.514  1.00  0.00    -0.079 C
HETATM   41  C28 UNL     1      23.600  -7.036  23.326  1.00  0.00    -0.022 C
HETATM   42  C34 UNL     1      24.512  -4.823  22.934  1.00  0.00     0.035 C
HETATM   43  C35 UNL     1      25.881  -4.463  22.421  1.00  0.00     0.014 C
HETATM   44  C37 UNL     1      28.186  -5.005  22.653  1.00  0.00     0.016 C
BRANCH  37  45
HETATM   45  O4  UNL     1      28.363  -6.428  27.323  1.00  0.00    -0.396 OA
ATOM     46  H4  UNL     1      27.718  -5.809  27.643  1.00  0.00     0.210 HD
ENDBRANCH  37  45
BRANCH  41  47
HETATM   47  C29 UNL     1      22.355  -6.858  22.563  1.00  0.00     0.060 C
BRANCH  47  48
HETATM   48  C30 UNL     1      22.531  -7.133  21.091  1.00  0.00     0.189 C
HETATM   49  C31 UNL     1      21.592  -8.168  20.566  1.00  0.00     0.035 C
HETATM   50  C32 UNL     1      21.698  -7.944  19.054  1.00  0.00     0.029 C
HETATM   51  C33 UNL     1      22.390  -6.593  18.915  1.00  0.00     0.233 C
HETATM   52  N4  UNL     1      22.311  -6.004  20.242  1.00  0.00    -0.071 N
ATOM     53  H42 UNL     1      21.454  -5.485  20.431  1.00  0.00     0.277 HD
ATOM     54  H41 UNL     1      22.940  -5.217  20.401  1.00  0.00     0.277 HD
ENDBRANCH  47  48
ENDBRANCH  41  47
ENDBRANCH   2  30
TORSDOF 16
ENDMDL