MODEL 2
REMARK VINA RESULT: -8.209250238      2.608      6.764
REMARK  16 active torsions:
REMARK  status: ('A' for Active; 'I' for Inactive)
REMARK    1  A    between atoms: C2_2  and  N1_3
REMARK    2  A    between atoms: N1_3  and  C3_6
REMARK    3  A    between atoms: C3_6  and  C4_7
REMARK    4  A    between atoms: C4_7  and  C5_8
REMARK    5  A    between atoms: C5_8  and  N2_9
REMARK       I    between atoms: N2_9  and  C6_11
REMARK    6  A    between atoms: C6_11  and  C7_13
REMARK    7  A    between atoms: C7_13  and  C8_14
REMARK    8  A    between atoms: C9_15  and  C10_16
REMARK    9  A    between atoms: C9_15  and  C15_23
REMARK   10  A    between atoms: C10_16  and  O2_17
REMARK   11  A    between atoms: C10_16  and  C11_19
REMARK   12  A    between atoms: C11_19  and  C13_21
REMARK   13  A    between atoms: C27_35  and  O3_36
REMARK   14  A    between atoms: C28_38  and  C29_39
REMARK   15  A    between atoms: C29_39  and  O4_40
REMARK   16  A    between atoms: C35_47  and  O5_48
ROOT
HETATM    1  C15 UNL     1      25.597  -6.782  22.335  1.00  0.00    -0.051 C
HETATM    2  C16 UNL     1      24.236  -7.336  22.430  1.00  0.00    -0.015 C
HETATM    3  C17 UNL     1      23.064  -6.528  22.799  1.00  0.00     0.020 C
HETATM    4  C18 UNL     1      24.274  -8.646  23.138  1.00  0.00     0.018 C
HETATM    5  C19 UNL     1      23.485  -9.760  22.496  1.00  0.00    -0.018 C
HETATM    6  C20 UNL     1      22.969 -10.698  23.563  1.00  0.00     0.010 C
HETATM    7  C21 UNL     1      22.290  -9.223  21.743  1.00  0.00     0.005 C
HETATM    8  C22 UNL     1      22.770  -8.254  20.648  1.00  0.00     0.006 C
HETATM    9  C23 UNL     1      24.077  -7.638  20.892  1.00  0.00     0.004 C
HETATM   10  C24 UNL     1      24.319  -6.249  20.411  1.00  0.00     0.016 C
HETATM   11  C25 UNL     1      24.236  -5.895  19.000  1.00  0.00    -0.008 C
HETATM   12  C26 UNL     1      23.497  -4.566  18.808  1.00  0.00     0.019 C
HETATM   13  C27 UNL     1      23.612  -6.798  18.008  1.00  0.00     0.134 C
HETATM   14  C28 UNL     1      24.090  -6.258  16.652  1.00  0.00     0.047 C
HETATM   15  C30 UNL     1      25.497  -5.931  16.891  1.00  0.00    -0.035 C
HETATM   16  C31 UNL     1      26.346  -7.097  16.373  1.00  0.00     0.016 C
HETATM   17  C32 UNL     1      25.982  -4.727  16.071  1.00  0.00     0.016 C
HETATM   18  C33 UNL     1      25.605  -5.691  18.335  1.00  0.00     0.007 C
HETATM   19  C34 UNL     1      26.495  -6.755  18.915  1.00  0.00     0.039 C
HETATM   20  C35 UNL     1      26.830  -6.182  20.289  1.00  0.00     0.131 C
HETATM   21  C36 UNL     1      25.644  -5.885  21.145  1.00  0.00     0.012 C
HETATM   22  C37 UNL     1      25.676  -4.435  21.477  1.00  0.00     0.023 C
ENDROOT
BRANCH   1  23
HETATM   23  C9  UNL     1      26.304  -6.377  23.601  1.00  0.00    -0.029 C
HETATM   24  C8  UNL     1      25.785  -5.573  24.486  1.00  0.00    -0.008 C
BRANCH  24  25
HETATM   25  C7  UNL     1      26.062  -5.009  25.779  1.00  0.00     0.130 C
BRANCH  25  26
HETATM   26  C6  UNL     1      26.921  -3.755  25.709  1.00  0.00     0.221 C
HETATM   27  N2  UNL     1      27.944  -3.628  24.744  1.00  0.00    -0.361 N
ATOM     28  H2  UNL     1      28.090  -4.392  24.083  1.00  0.00     0.162 HD
HETATM   29  O1  UNL     1      26.695  -2.855  26.520  1.00  0.00    -0.273 OA
BRANCH  27  30
HETATM   30  C5  UNL     1      28.776  -2.486  24.656  1.00  0.00     0.124 C
BRANCH  30  31
HETATM   31  C4  UNL     1      28.566  -1.575  23.476  1.00  0.00     0.047 C
BRANCH  31  32
HETATM   32  C3  UNL     1      27.888  -0.298  23.993  1.00  0.00     0.234 C
BRANCH  32  33
HETATM   33  N1  UNL     1      26.491  -0.549  24.257  1.00  0.00    -0.075 N
ATOM     34  H12 UNL     1      26.017   0.273  24.630  1.00  0.00     0.277 HD
ATOM     35  H11 UNL     1      26.356  -1.171  25.055  1.00  0.00     0.277 HD
BRANCH  33  36
HETATM   36  C2  UNL     1      25.856  -1.047  23.069  1.00  0.00     0.228 C
HETATM   37  C1  UNL     1      24.962  -0.066  22.405  1.00  0.00     0.034 C
ENDBRANCH  33  36
ENDBRANCH  32  33
ENDBRANCH  31  32
ENDBRANCH  30  31
ENDBRANCH  27  30
ENDBRANCH  25  26
ENDBRANCH  24  25
BRANCH  23  38
HETATM   38  C10 UNL     1      27.612  -6.999  23.865  1.00  0.00     0.154 C
BRANCH  38  39
HETATM   39  O2  UNL     1      28.651  -6.206  23.267  1.00  0.00    -0.391 OA
ATOM     40  H2  UNL     1      29.465  -6.695  23.271  1.00  0.00     0.210 HD
ENDBRANCH  38  39
BRANCH  38  41
HETATM   41  C11 UNL     1      27.963  -8.375  23.542  1.00  0.00     0.014 C
HETATM   42  C12 UNL     1      29.566  -8.448  23.675  1.00  0.00     0.012 C
BRANCH  41  43
HETATM   43  C13 UNL     1      27.610  -9.431  24.573  1.00  0.00     0.002 C
HETATM   44  C14 UNL     1      27.495  -8.911  25.972  1.00  0.00     0.005 C
ENDBRANCH  41  43
ENDBRANCH  38  41
ENDBRANCH  23  38
ENDBRANCH   1  23
BRANCH  20  45
HETATM   45  O5  UNL     1      27.581  -5.029  19.920  1.00  0.00    -0.394 OA
ATOM     46  H5  UNL     1      28.241  -5.020  20.604  1.00  0.00     0.210 HD
ENDBRANCH  20  45
BRANCH  13  47
HETATM   47  O3  UNL     1      22.220  -6.570  17.851  1.00  0.00    -0.394 OA
ATOM     48  H3  UNL     1      21.918  -6.721  16.963  1.00  0.00     0.210 HD
ENDBRANCH  13  47
BRANCH  14  49
HETATM   49  C29 UNL     1      23.856  -7.287  15.560  1.00  0.00     0.172 C
BRANCH  49  50
HETATM   50  O4  UNL     1      22.676  -6.925  14.904  1.00  0.00    -0.400 OA
ATOM     51  H4  UNL     1      21.994  -7.508  15.216  1.00  0.00     0.209 HD
ENDBRANCH  49  50
ENDBRANCH  14  49
TORSDOF 16
ENDMDL