MODEL 2
REMARK VINA RESULT: -11.571157028      2.025     11.550
REMARK  12 active torsions:
REMARK  status: ('A' for Active; 'I' for Inactive)
REMARK    1  A    between atoms: C9_12  and  C10_13
REMARK    2  A    between atoms: C10_13  and  C11_15
REMARK       I    between atoms: C11_15  and  N3_17
REMARK    3  A    between atoms: N3_17  and  C12_19
REMARK    4  A    between atoms: C12_19  and  C13_20
REMARK    5  A    between atoms: C12_19  and  C16_27
REMARK    6  A    between atoms: C13_20  and  C14_21
REMARK    7  A    between atoms: C14_21  and  C15_22
REMARK    8  A    between atoms: C15_22  and  N4_23
REMARK       I    between atoms: C16_27  and  N5_29
REMARK    9  A    between atoms: N5_29  and  C17_31
REMARK   10  A    between atoms: C20_34  and  C21_35
REMARK   11  A    between atoms: C21_35  and  C22_36
REMARK   12  A    between atoms: N6_37  and  C23_39
ROOT
HETATM    1  C12 UNL     1      27.531   2.793  23.763  1.00  0.00     0.080 C
ENDROOT
BRANCH   1   2
HETATM    2  N3  UNL     1      28.735   3.400  23.449  1.00  0.00    -0.321 N
HETATM    3  C11 UNL     1      29.730   4.138  24.109  1.00  0.00     0.268 C
HETATM    4  O1  UNL     1      29.689   4.320  25.331  1.00  0.00    -0.266 OA
ATOM      5  H3  UNL     1      28.962   3.278  22.462  1.00  0.00     0.169 HD
BRANCH   3   6
HETATM    6  C10 UNL     1      30.801   4.688  23.276  1.00  0.00     0.122 C
HETATM    7  N2  UNL     1      32.115   4.229  23.439  1.00  0.00    -0.099 NA
BRANCH   6   8
HETATM    8  C9  UNL     1      30.629   6.124  22.842  1.00  0.00     0.239 C
HETATM    9  N1  UNL     1      30.174   6.886  24.005  1.00  0.00    -0.057 N
HETATM   10  C7  UNL     1      29.912   8.270  23.597  1.00  0.00     0.127 C
ATOM     11  H12 UNL     1      30.827   6.829  24.786  1.00  0.00     0.279 HD
ATOM     12  H11 UNL     1      29.369   6.456  24.461  1.00  0.00     0.279 HD
HETATM   13  C6  UNL     1      29.811   9.108  24.851  1.00  0.00     0.039 C
HETATM   14  C8  UNL     1      31.030   8.763  22.775  1.00  0.00     0.046 C
HETATM   15  C37 UNL     1      28.557   8.212  22.958  1.00  0.00     0.029 C
HETATM   16  C5  UNL     1      28.692  10.105  24.783  1.00  0.00     0.003 C
HETATM   17  C4  UNL     1      28.437  10.624  23.399  1.00  0.00     0.009 C
HETATM   18  C2  UNL     1      28.115   9.539  22.396  1.00  0.00    -0.042 C
HETATM   19  C1  UNL     1      28.688   9.826  21.038  1.00  0.00     0.015 C
HETATM   20  C3  UNL     1      26.605   9.484  22.257  1.00  0.00     0.015 C
HETATM   21  C36 UNL     1      28.380   7.037  22.067  1.00  0.00     0.010 C
HETATM   22  C35 UNL     1      29.573   6.209  21.749  1.00  0.00     0.040 C
ENDBRANCH   6   8
ENDBRANCH   3   6
ENDBRANCH   1   2
BRANCH   1  23
HETATM   23  C13 UNL     1      26.401   3.810  23.935  1.00  0.00     0.064 C
BRANCH  23  24
HETATM   24  C14 UNL     1      25.777   3.714  25.287  1.00  0.00     0.033 C
BRANCH  24  25
HETATM   25  C15 UNL     1      26.493   4.539  26.351  1.00  0.00     0.230 C
BRANCH  25  26
HETATM   26  N4  UNL     1      26.907   5.761  25.654  1.00  0.00    -0.079 N
ATOM     27  H43 UNL     1      26.369   5.962  24.811  1.00  0.00     0.274 HD
ATOM     28  H42 UNL     1      26.672   6.622  26.147  1.00  0.00     0.274 HD
ATOM     29  H41 UNL     1      27.906   5.637  25.489  1.00  0.00     0.274 HD
ENDBRANCH  25  26
ENDBRANCH  24  25
ENDBRANCH  23  24
ENDBRANCH   1  23
BRANCH   1  30
HETATM   30  C16 UNL     1      27.144   1.549  23.141  1.00  0.00     0.264 C
HETATM   31  O2  UNL     1      26.478   1.470  22.103  1.00  0.00    -0.266 OA
HETATM   32  N5  UNL     1      27.546   0.279  23.739  1.00  0.00    -0.351 N
ATOM     33  H5  UNL     1      28.046   0.274  24.628  1.00  0.00     0.163 HD
BRANCH  32  34
HETATM   34  C17 UNL     1      27.238  -0.984  23.077  1.00  0.00     0.084 C
HETATM   35  C18 UNL     1      26.375  -1.882  23.939  1.00  0.00     0.025 C
HETATM   36  C19 UNL     1      27.006  -3.124  24.372  1.00  0.00     0.007 C
HETATM   37  C20 UNL     1      27.902  -3.889  23.452  1.00  0.00    -0.010 C
HETATM   38  C33 UNL     1      28.324  -3.044  22.268  1.00  0.00     0.007 C
HETATM   39  C34 UNL     1      28.570  -1.629  22.766  1.00  0.00     0.025 C
BRANCH  37  40
HETATM   40  C21 UNL     1      27.142  -5.155  23.015  1.00  0.00     0.049 C
BRANCH  40  41
HETATM   41  C22 UNL     1      25.701  -4.964  22.926  1.00  0.00     0.056 C
HETATM   42  N6  UNL     1      24.983  -5.146  21.791  1.00  0.00    -0.393 N
ATOM     43  H6  UNL     1      24.270  -5.870  21.875  1.00  0.00     0.159 HD
BRANCH  42  44
HETATM   44  C23 UNL     1      25.015  -4.558  20.550  1.00  0.00     0.030 C
HETATM   45  C24 UNL     1      24.967  -3.026  20.716  1.00  0.00     0.035 C
HETATM   46  C25 UNL     1      25.192  -2.297  19.429  1.00  0.00    -0.012 C
HETATM   47  C26 UNL     1      24.015  -2.651  18.533  1.00  0.00     0.009 C
HETATM   48  C30 UNL     1      26.487  -2.684  18.804  1.00  0.00     0.009 C
HETATM   49  C27 UNL     1      24.040  -4.131  18.338  1.00  0.00    -0.012 C
HETATM   50  C28 UNL     1      25.337  -4.502  17.643  1.00  0.00     0.009 C
HETATM   51  C32 UNL     1      23.874  -4.941  19.608  1.00  0.00     0.035 C
HETATM   52  C29 UNL     1      26.480  -4.180  18.554  1.00  0.00    -0.012 C
HETATM   53  C31 UNL     1      26.294  -4.918  19.837  1.00  0.00     0.035 C
ENDBRANCH  42  44
ENDBRANCH  40  41
ENDBRANCH  37  40
ENDBRANCH  32  34
ENDBRANCH   1  30
TORSDOF 12
ENDMDL