MODEL 4
REMARK VINA RESULT: -5.641524668      2.507      6.012
REMARK  7 active torsions:
REMARK  status: ('A' for Active; 'I' for Inactive)
REMARK    1  A    between atoms: S1_2  and  C2_3
REMARK    2  A    between atoms: C2_3  and  N2_7
REMARK    3  A    between atoms: C3_9  and  N3_10
REMARK    4  A    between atoms: C3_9  and  O1_20
REMARK    5  A    between atoms: N3_10  and  N4_12
REMARK    6  A    between atoms: C4_14  and  C5_15
REMARK    7  A    between atoms: O1_20  and  C9_21
ROOT
HETATM    1  N2  UNL     1      -0.570  35.462   0.253  1.00  0.00    -0.302 N
ATOM      2  H2  UNL     1      -1.295  35.089   0.865  1.00  0.00     0.171 HD
HETATM    3  C3  UNL     1       0.630  34.997   0.282  1.00  0.00     0.241 C
ENDROOT
BRANCH   3   4
HETATM    4  N3  UNL     1       1.664  35.498  -0.561  1.00  0.00    -0.265 N
ATOM      5  H3  UNL     1       1.888  35.018  -1.432  1.00  0.00     0.190 HD
BRANCH   4   6
HETATM    6  N4  UNL     1       2.368  36.640  -0.197  1.00  0.00    -0.308 N
HETATM    7  C4  UNL     1       2.468  37.017   1.022  1.00  0.00     0.126 C
ATOM      8  H4  UNL     1       2.818  37.196  -0.924  1.00  0.00     0.186 HD
BRANCH   7   9
HETATM    9  C5  UNL     1       3.237  38.244   1.308  1.00  0.00     0.021 A
HETATM   10  C6  UNL     1       4.030  38.950   0.443  1.00  0.00     0.021 A
HETATM   11  C7  UNL     1       4.640  40.043   0.920  1.00  0.00     0.008 A
HETATM   12  C8  UNL     1       4.419  40.363   2.236  1.00  0.00     0.050 A
HETATM   13  S2  UNL     1       3.368  39.125   2.756  1.00  0.00    -0.101 SA
ENDBRANCH   7   9
ENDBRANCH   4   6
ENDBRANCH   3   4
BRANCH   3  14
HETATM   14  O1  UNL     1       0.827  33.977   1.197  1.00  0.00    -0.311 OA
BRANCH  14  15
HETATM   15  C9  UNL     1       0.586  32.643   0.983  1.00  0.00     0.060 C
HETATM   16  C10 UNL     1      -0.485  32.287   0.012  1.00  0.00     0.046 C
HETATM   17  C11 UNL     1       0.182  32.022   2.329  1.00  0.00     0.046 C
HETATM   18  C12 UNL     1       1.856  31.892   0.564  1.00  0.00     0.046 C
ENDBRANCH  14  15
ENDBRANCH   3  14
BRANCH   1  19
HETATM   19  C2  UNL     1      -0.851  36.512  -0.662  1.00  0.00     0.140 C
HETATM   20  N1  UNL     1      -0.997  37.736  -0.282  1.00  0.00    -0.380 N
ATOM     21  H12 UNL     1      -1.199  38.490  -0.939  1.00  0.00     0.158 HD
ATOM     22  H11 UNL     1      -0.903  37.932   0.714  1.00  0.00     0.158 HD
BRANCH  19  23
HETATM   23  S1  UNL     1      -1.018  36.167  -2.420  1.00  0.00    -0.099 SA
HETATM   24  C1  UNL     1      -1.987  34.689  -2.701  1.00  0.00     0.099 C
ENDBRANCH  19  23
ENDBRANCH   1  19
TORSDOF 7
ENDMDL