MODEL 1
REMARK VINA RESULT: -6.952162156      0.000      0.000
REMARK  4 active torsions:
REMARK  status: ('A' for Active; 'I' for Inactive)
REMARK    1  A    between atoms: C9_9  and  C10_10
REMARK    2  A    between atoms: C13_15  and  C14_16
REMARK    3  A    between atoms: C14_16  and  N2_17
REMARK    4  A    between atoms: N2_17  and  O1_19
ROOT
HETATM    1  C1  UNL     1       0.506  40.463  -1.226  1.00  0.00     0.011 C
HETATM    2  C2  UNL     1       0.552  39.052  -0.777  1.00  0.00    -0.010 C
HETATM    3  C3  UNL     1      -0.784  38.352  -0.786  1.00  0.00    -0.009 C
HETATM    4  C4  UNL     1      -1.305  38.040  -2.148  1.00  0.00     0.010 C
HETATM    5  C5  UNL     1      -0.331  37.196  -2.897  1.00  0.00    -0.013 C
HETATM    6  C6  UNL     1       0.972  38.000  -3.009  1.00  0.00     0.010 C
HETATM    7  C7  UNL     1       1.470  38.174  -1.608  1.00  0.00    -0.009 C
HETATM    8  C8  UNL     1       1.630  36.890  -0.891  1.00  0.00     0.019 C
HETATM    9  C9  UNL     1       0.278  36.120  -0.799  1.00  0.00    -0.011 C
HETATM   10  C15 UNL     1      -0.037  35.876  -2.223  1.00  0.00     0.019 C
HETATM   11  C16 UNL     1      -0.589  37.055  -0.032  1.00  0.00     0.019 C
ENDROOT
BRANCH   9  12
HETATM   12  C10 UNL     1       0.579  34.845  -0.025  1.00  0.00    -0.029 A
HETATM   13  C11 UNL     1       1.870  34.529   0.304  1.00  0.00     0.060 A
HETATM   14  S1  UNL     1       1.772  33.060   1.154  1.00  0.00    -0.086 SA
HETATM   15  C12 UNL     1       0.071  32.859   1.082  1.00  0.00     0.099 A
HETATM   16  N1  UNL     1      -0.652  31.739   1.659  1.00  0.00    -0.093 NA
HETATM   17  C13 UNL     1      -0.376  33.946   0.396  1.00  0.00     0.020 A
BRANCH  17  18
HETATM   18  C14 UNL     1      -1.838  34.126   0.118  1.00  0.00     0.128 C
BRANCH  18  19
HETATM   19  N2  UNL     1      -2.791  33.790   0.758  1.00  0.00    -0.280 N
ATOM     20  H2  UNL     1      -3.588  34.089   0.196  1.00  0.00     0.193 HD
BRANCH  19  21
HETATM   21  O1  UNL     1      -3.312  33.254   1.771  1.00  0.00    -0.290 OA
ATOM     22  H1  UNL     1      -4.067  32.950   2.261  1.00  0.00     0.244 HD
ENDBRANCH  19  21
ENDBRANCH  18  19
ENDBRANCH  17  18
ENDBRANCH   9  12
TORSDOF 4
ENDMDL