MODEL 4
REMARK VINA RESULT: -6.653098061      2.334      3.987
REMARK  3 active torsions:
REMARK  status: ('A' for Active; 'I' for Inactive)
REMARK    1  A    between atoms: C2_2  and  C3_3
REMARK    2  A    between atoms: C3_3  and  N1_4
REMARK    3  A    between atoms: C3_3  and  C5_7
ROOT
HETATM    1  C5  UNL     1       0.385  37.567  -2.073  1.00  0.00     0.012 A
HETATM    2  C6  UNL     1       1.582  38.148  -1.571  1.00  0.00     0.016 A
HETATM    3  C7  UNL     1       1.993  39.483  -2.042  1.00  0.00     0.069 C
HETATM    4  N2  UNL     1       2.244  37.450  -0.656  1.00  0.00    -0.353 N
ATOM      5  H2  UNL     1       3.107  37.832  -0.271  1.00  0.00     0.166 HD
HETATM    6  C8  UNL     1       1.804  36.240  -0.217  1.00  0.00     0.087 A
HETATM    7  S1  UNL     1       2.474  35.158   0.907  1.00  0.00    -0.075 SA
HETATM    8  C9  UNL     1       1.303  33.919   0.822  1.00  0.00    -0.008 A
HETATM    9  C10 UNL     1       0.415  34.384  -0.087  1.00  0.00    -0.030 A
HETATM   10  C11 UNL     1       0.668  35.613  -0.644  1.00  0.00     0.030 A
HETATM   11  C12 UNL     1      -0.049  36.362  -1.631  1.00  0.00     0.070 A
HETATM   12  N3  UNL     1      -1.218  35.755  -2.213  1.00  0.00    -0.101 NA
HETATM   13  C13 UNL     1      -0.746  33.465  -0.402  1.00  0.00     0.040 C
HETATM   14  C14 UNL     1      -0.928  32.360   0.520  1.00  0.00     0.005 C
HETATM   15  C15 UNL     1      -0.180  32.299   1.781  1.00  0.00     0.005 C
HETATM   16  C16 UNL     1       1.270  32.634   1.554  1.00  0.00     0.047 C
ENDROOT
BRANCH   1  17
HETATM   17  C3  UNL     1      -0.219  38.236  -3.256  1.00  0.00     0.117 C
BRANCH  17  18
HETATM   18  C2  UNL     1      -1.592  38.725  -2.966  1.00  0.00     0.025 C
HETATM   19  C1  UNL     1      -1.631  40.209  -2.564  1.00  0.00     0.007 C
ENDBRANCH  17  18
BRANCH  17  20
HETATM   20  N1  UNL     1      -0.167  37.269  -4.292  1.00  0.00    -0.399 N
HETATM   21  C4  UNL     1       0.409  37.358  -5.520  1.00  0.00     0.112 C
ATOM     22  H1  UNL     1      -0.626  36.382  -4.086  1.00  0.00     0.158 HD
ENDBRANCH  17  20
ENDBRANCH   1  17
TORSDOF 3
ENDMDL