MODEL 4
REMARK VINA RESULT: -6.252507093      2.552      5.978
REMARK  4 active torsions:
REMARK  status: ('A' for Active; 'I' for Inactive)
REMARK    1  A    between atoms: N2_5  and  C3_6
REMARK    2  A    between atoms: C7_10  and  C8_11
REMARK    3  A    between atoms: C12_15  and  C13_16
REMARK    4  A    between atoms: C15_19  and  N3_20
ROOT
HETATM    1  C1  UNL     1       3.010  37.100  -0.192  1.00  0.00     0.070 C
HETATM    2  C2  UNL     1       1.899  36.098  -0.057  1.00  0.00     0.036 A
HETATM    3  N1  UNL     1       2.081  34.829   0.275  1.00  0.00    -0.301 N
ATOM      4  H1  UNL     1       2.995  34.412   0.450  1.00  0.00     0.187 HD
HETATM    5  N2  UNL     1       0.900  34.145   0.355  1.00  0.00    -0.286 N
HETATM    6  C7  UNL     1      -0.047  35.024   0.057  1.00  0.00     0.048 A
HETATM    7  C12 UNL     1       0.567  36.287  -0.209  1.00  0.00     0.039 A
ENDROOT
BRANCH   7   8
HETATM    8  C13 UNL     1      -0.086  37.519  -0.741  1.00  0.00     0.055 A
HETATM    9  C14 UNL     1      -0.093  38.645   0.080  1.00  0.00     0.083 A
HETATM   10  S1  UNL     1      -0.771  39.830  -0.910  1.00  0.00    -0.064 SA
HETATM   11  C15 UNL     1      -1.024  38.856  -2.332  1.00  0.00     0.142 A
HETATM   12  N4  UNL     1      -0.570  37.685  -1.950  1.00  0.00    -0.336 N
ATOM     13  H4  UNL     1      -0.593  36.898  -2.598  1.00  0.00     0.168 HD
BRANCH  11  14
HETATM   14  N3  UNL     1      -1.568  39.275  -3.435  1.00  0.00    -0.380 N
ATOM     15  H32 UNL     1      -2.165  38.824  -4.128  1.00  0.00     0.158 HD
ATOM     16  H31 UNL     1      -1.493  40.225  -3.799  1.00  0.00     0.158 HD
ENDBRANCH  11  14
ENDBRANCH   7   8
BRANCH   6  17
HETATM   17  C8  UNL     1      -1.499  34.957   0.007  1.00  0.00     0.038 C
HETATM   18  C9  UNL     1      -1.905  34.199  -1.313  1.00  0.00     0.011 C
HETATM   19  C10 UNL     1      -3.239  33.973  -0.578  1.00  0.00     0.001 C
HETATM   20  C11 UNL     1      -2.270  33.826   0.657  1.00  0.00     0.011 C
ENDBRANCH   6  17
BRANCH   5  21
HETATM   21  C3  UNL     1       0.917  32.748   0.782  1.00  0.00     0.043 C
HETATM   22  C4  UNL     1       0.505  32.497   2.199  1.00  0.00     0.039 C
HETATM   23  C5  UNL     1       2.476  32.422   0.884  1.00  0.00     0.039 C
HETATM   24  C6  UNL     1       0.476  31.749  -0.235  1.00  0.00     0.039 C
ENDBRANCH   5  21
TORSDOF 4
ENDMDL