MODEL 2
REMARK VINA RESULT: -7.933705619      1.062      2.562
REMARK  3 active torsions:
REMARK  status: ('A' for Active; 'I' for Inactive)
REMARK    1  A    between atoms: C7_8  and  N1_9
REMARK    2  A    between atoms: N1_9  and  N2_11
REMARK    3  A    between atoms: N2_11  and  C8_13
ROOT
HETATM    1  N1  UNL     1      -1.348  36.058  -0.111  1.00  0.00    -0.326 N
ATOM      2  H1  UNL     1      -0.929  36.454   0.731  1.00  0.00     0.181 HD
ENDROOT
BRANCH   1   3
HETATM    3  C7  UNL     1      -1.236  36.746  -1.337  1.00  0.00     0.134 C
HETATM    4  C4  UNL     1       0.048  37.582  -1.383  1.00  0.00    -0.014 A
HETATM    5  C3  UNL     1       0.377  37.699  -2.701  1.00  0.00    -0.008 A
HETATM    6  C5  UNL     1       0.863  38.196  -0.488  1.00  0.00    -0.040 A
HETATM    7  S1  UNL     1       1.795  38.648  -2.667  1.00  0.00    -0.099 SA
HETATM    8  C16 UNL     1      -0.627  36.956  -3.567  1.00  0.00     0.049 C
HETATM    9  C2  UNL     1       1.938  38.873  -0.989  1.00  0.00    -0.014 A
HETATM   10  C1  UNL     1       2.997  39.637  -0.237  1.00  0.00     0.057 C
HETATM   11  C15 UNL     1      -1.035  35.872  -2.548  1.00  0.00     0.036 C
HETATM   12  C6  UNL     1       0.644  38.172   1.020  1.00  0.00     0.050 C
ENDBRANCH   1   3
BRANCH   1  13
HETATM   13  N2  UNL     1      -2.003  34.883  -0.037  1.00  0.00    -0.293 N
ATOM     14  H2  UNL     1      -2.925  34.870  -0.472  1.00  0.00     0.188 HD
BRANCH  13  15
HETATM   15  C8  UNL     1      -1.595  33.650   0.561  1.00  0.00     0.095 C
HETATM   16  N3  UNL     1      -2.581  33.357   1.401  1.00  0.00    -0.358 N
HETATM   17  C9  UNL     1      -2.722  32.231   2.279  1.00  0.00     0.062 C
ATOM     18  H3  UNL     1      -3.348  34.029   1.425  1.00  0.00     0.166 HD
HETATM   19  C10 UNL     1      -1.909  32.057   3.494  1.00  0.00     0.044 C
HETATM   20  C11 UNL     1      -0.438  31.583   3.251  1.00  0.00     0.005 C
HETATM   21  C12 UNL     1      -0.119  32.176   2.018  1.00  0.00     0.001 C
HETATM   22  C13 UNL     1       0.675  32.507   0.912  1.00  0.00     0.007 C
HETATM   23  C14 UNL     1      -0.312  33.291  -0.011  1.00  0.00     0.078 C
ENDBRANCH  13  15
ENDBRANCH   1  13
TORSDOF 3
ENDMDL