MODEL 3
REMARK VINA RESULT: -6.610549311      1.697      2.917
REMARK  2 active torsions:
REMARK  status: ('A' for Active; 'I' for Inactive)
REMARK    1  A    between atoms: C5_6  and  N1_7
REMARK       I    between atoms: N1_7  and  C6_9
REMARK       I    between atoms: C6_9  and  N3_11
REMARK    2  A    between atoms: N3_11  and  N4_13
ROOT
HETATM    1  N1  UNL     1       0.057  34.275  -0.903  1.00  0.00    -0.329 N
ATOM      2  H1  UNL     1       0.030  33.871  -1.840  1.00  0.00     0.168 HD
HETATM    3  C6  UNL     1       0.411  35.494  -0.750  1.00  0.00     0.207 C
HETATM    4  N2  UNL     1       0.466  36.106   0.530  1.00  0.00    -0.062 NA
HETATM    5  N3  UNL     1       0.745  36.225  -1.957  1.00  0.00    -0.274 N
ATOM      6  H3  UNL     1       1.589  36.025  -2.492  1.00  0.00     0.189 HD
ENDROOT
BRANCH   5   7
HETATM    7  N4  UNL     1      -0.124  37.184  -2.331  1.00  0.00    -0.305 N
HETATM    8  C7  UNL     1      -0.178  38.417  -2.389  1.00  0.00     0.021 C
HETATM    9  C8  UNL     1      -1.444  39.033  -2.913  1.00  0.00     0.056 C
HETATM   10  C11 UNL     1       0.892  39.325  -1.991  1.00  0.00     0.041 C
HETATM   11  C9  UNL     1      -1.219  40.132  -3.885  1.00  0.00     0.016 C
HETATM   12  C10 UNL     1       0.038  39.958  -4.692  1.00  0.00     0.075 C
HETATM   13  S2  UNL     1       1.433  40.163  -3.542  1.00  0.00    -0.154 SA
HETATM   14  C12 UNL     1       2.096  38.708  -1.368  1.00  0.00     0.033 C
HETATM   15  C13 UNL     1       0.398  40.396  -1.018  1.00  0.00     0.033 C
ATOM     16  H4  UNL     1      -0.994  36.771  -2.665  1.00  0.00     0.186 HD
ENDBRANCH   5   7
BRANCH   1  17
HETATM   17  C5  UNL     1      -0.307  33.456   0.252  1.00  0.00     0.047 A
HETATM   18  C2  UNL     1      -1.629  33.378   0.630  1.00  0.00     0.005 A
HETATM   19  C1  UNL     1      -2.812  34.049  -0.009  1.00  0.00     0.058 C
HETATM   20  S1  UNL     1      -1.582  32.347   1.985  1.00  0.00    -0.104 SA
HETATM   21  C3  UNL     1       0.093  32.041   2.042  1.00  0.00     0.052 A
HETATM   22  C4  UNL     1       0.571  32.765   0.983  1.00  0.00     0.038 A
ENDBRANCH   1  17
TORSDOF 2
ENDMDL