MODEL 2
REMARK VINA RESULT: -7.509843114      0.876      1.252
REMARK  3 active torsions:
REMARK  status: ('A' for Active; 'I' for Inactive)
REMARK    1  A    between atoms: O1_2  and  C2_3
REMARK    2  A    between atoms: C5_8  and  C6_9
REMARK    3  A    between atoms: C7_12  and  C8_13
ROOT
HETATM    1  C2  UNL     1      -0.970  40.360  -3.119  1.00  0.00     0.113 A
HETATM    2  C3  UNL     1      -0.884  39.040  -3.480  1.00  0.00     0.077 A
HETATM    3  C4  UNL     1      -0.870  38.127  -2.496  1.00  0.00     0.071 A
HETATM    4  N1  UNL     1      -0.797  36.757  -2.355  1.00  0.00    -0.338 N
ATOM      5  H1  UNL     1      -0.729  36.106  -3.137  1.00  0.00     0.167 HD
HETATM    6  C5  UNL     1      -0.826  36.389  -1.083  1.00  0.00     0.136 A
HETATM    7  N4  UNL     1      -0.919  37.539  -0.352  1.00  0.00    -0.333 N
ATOM      8  H4  UNL     1      -0.963  37.601   0.665  1.00  0.00     0.168 HD
HETATM    9  C14 UNL     1      -0.943  38.579  -1.211  1.00  0.00     0.105 A
HETATM   10  S1  UNL     1      -1.030  40.294  -1.427  1.00  0.00    -0.045 SA
ENDROOT
BRANCH   6  11
HETATM   11  C6  UNL     1      -0.814  35.038  -0.488  1.00  0.00     0.100 A
HETATM   12  N2  UNL     1       0.291  34.416   0.001  1.00  0.00    -0.341 N
HETATM   13  C7  UNL     1      -0.027  33.213   0.445  1.00  0.00     0.089 A
ATOM     14  H2  UNL     1       1.228  34.819   0.023  1.00  0.00     0.167 HD
HETATM   15  N3  UNL     1      -1.349  33.017   0.257  1.00  0.00    -0.347 N
HETATM   16  C12 UNL     1      -1.827  34.142  -0.317  1.00  0.00     0.037 A
ATOM     17  H3  UNL     1      -1.883  32.183   0.501  1.00  0.00     0.167 HD
HETATM   18  C13 UNL     1      -3.245  34.320  -0.720  1.00  0.00     0.070 C
BRANCH  13  19
HETATM   19  C8  UNL     1       0.815  32.157   1.078  1.00  0.00     0.007 C
HETATM   20  C9  UNL     1       2.253  32.641   1.063  1.00  0.00     0.022 C
HETATM   21  C10 UNL     1       0.296  31.938   2.481  1.00  0.00     0.022 C
HETATM   22  C11 UNL     1       0.725  30.850   0.299  1.00  0.00     0.022 C
ENDBRANCH  13  19
ENDBRANCH   6  11
BRANCH   1  23
HETATM   23  O1  UNL     1      -0.991  41.457  -4.025  1.00  0.00    -0.349 OA
HETATM   24  C1  UNL     1      -0.424  42.682  -3.608  1.00  0.00     0.211 C
ENDBRANCH   1  23
TORSDOF 3
ENDMDL