MODEL 2
REMARK VINA RESULT: -7.011049233      2.774      5.904
REMARK  3 active torsions:
REMARK  status: ('A' for Active; 'I' for Inactive)
REMARK    1  A    between atoms: C2_2  and  C3_3
REMARK    2  A    between atoms: C5_5  and  O1_6
REMARK    3  A    between atoms: C10_13  and  O2_14
ROOT
HETATM    1  C3  UNL     1       0.617  38.014  -2.056  1.00  0.00     0.026 C
HETATM    2  C4  UNL     1       1.181  37.642  -3.473  1.00  0.00     0.052 C
HETATM    3  C5  UNL     1       0.050  37.150  -4.339  1.00  0.00     0.185 C
HETATM    4  S1  UNL     1      -1.373  36.629  -3.258  1.00  0.00    -0.098 SA
HETATM    5  C6  UNL     1      -0.469  35.917  -1.873  1.00  0.00     0.013 A
HETATM    6  C7  UNL     1      -0.727  34.671  -1.448  1.00  0.00     0.028 A
HETATM    7  C8  UNL     1       0.088  34.134  -0.473  1.00  0.00    -0.027 A
HETATM    8  C9  UNL     1       1.126  34.896   0.021  1.00  0.00     0.068 A
HETATM    9  C10 UNL     1       1.378  36.217  -0.444  1.00  0.00     0.103 A
HETATM   10  C12 UNL     1       0.594  36.745  -1.384  1.00  0.00    -0.001 A
HETATM   11  N1  UNL     1       1.944  34.305   1.013  1.00  0.00    -0.387 N
ATOM     12  H1  UNL     1       2.463  34.889   1.669  1.00  0.00     0.159 HD
HETATM   13  C13 UNL     1       2.037  32.860   1.086  1.00  0.00     0.124 C
HETATM   14  C14 UNL     1       0.696  32.200   0.997  1.00  0.00     0.003 C
HETATM   15  C15 UNL     1       0.957  30.738   0.607  1.00  0.00     0.012 C
HETATM   16  C16 UNL     1      -0.214  32.773  -0.023  1.00  0.00     0.046 C
ENDROOT
BRANCH   1  17
HETATM   17  C2  UNL     1       1.256  39.236  -1.651  1.00  0.00     0.005 C
HETATM   18  C1  UNL     1       0.562  40.087  -0.610  1.00  0.00     0.006 C
ENDBRANCH   1  17
BRANCH   3  19
HETATM   19  O1  UNL     1      -0.356  38.016  -5.319  1.00  0.00    -0.385 OA
ATOM     20  H1  UNL     1      -0.662  37.607  -6.120  1.00  0.00     0.211 HD
ENDBRANCH   3  19
BRANCH   9  21
HETATM   21  O2  UNL     1       2.439  36.821   0.126  1.00  0.00    -0.353 OA
HETATM   22  C11 UNL     1       2.684  37.580   1.235  1.00  0.00     0.210 C
ENDBRANCH   9  21
TORSDOF 3
ENDMDL