MODEL 3
REMARK VINA RESULT: -7.721889239      2.419      5.431
REMARK  2 active torsions:
REMARK  status: ('A' for Active; 'I' for Inactive)
REMARK    1  A    between atoms: C5_6  and  C6_7
REMARK    2  A    between atoms: N4_14  and  N5_15
ROOT
HETATM    1  C1  UNL     1      -0.105  39.093  -7.526  1.00  0.00     0.231 C
HETATM    2  N1  UNL     1      -0.326  38.707  -6.461  1.00  0.00    -0.411 NA
HETATM    3  C2  UNL     1      -0.586  38.252  -5.163  1.00  0.00     0.177 A
HETATM    4  C3  UNL     1      -0.860  39.033  -4.068  1.00  0.00     0.066 A
HETATM    5  C4  UNL     1      -1.047  38.175  -3.011  1.00  0.00     0.038 A
HETATM    6  C5  UNL     1      -0.888  36.877  -3.446  1.00  0.00     0.082 A
HETATM    7  N6  UNL     1      -0.612  36.975  -4.746  1.00  0.00    -0.328 N
ATOM      8  H6  UNL     1      -0.440  36.175  -5.353  1.00  0.00     0.168 HD
ENDROOT
BRANCH   6   9
HETATM    9  C6  UNL     1      -1.013  35.710  -2.578  1.00  0.00     0.171 A
HETATM   10  N2  UNL     1      -2.099  34.878  -2.530  1.00  0.00    -0.280 N
HETATM   11  N3  UNL     1      -1.890  33.926  -1.650  1.00  0.00    -0.273 N
ATOM     12  H2  UNL     1      -2.944  34.982  -3.093  1.00  0.00     0.188 HD
HETATM   13  C7  UNL     1      -0.683  34.082  -1.087  1.00  0.00     0.214 A
ATOM     14  H3  UNL     1      -2.548  33.179  -1.428  1.00  0.00     0.189 HD
HETATM   15  S1  UNL     1       0.014  33.137   0.057  1.00  0.00    -0.037 SA
HETATM   16  N4  UNL     1      -0.156  35.197  -1.679  1.00  0.00    -0.209 N
BRANCH  16  17
HETATM   17  N5  UNL     1       1.096  35.697  -1.362  1.00  0.00    -0.298 N
HETATM   18  C8  UNL     1       1.215  36.590  -0.445  1.00  0.00     0.004 C
HETATM   19  C9  UNL     1      -0.030  37.028   0.219  1.00  0.00     0.054 C
HETATM   20  C14 UNL     1       2.616  37.077  -0.165  1.00  0.00     0.054 C
HETATM   21  C10 UNL     1       0.056  38.536   0.524  1.00  0.00     0.006 C
HETATM   22  C11 UNL     1       0.781  38.747   1.835  1.00  0.00     0.000 C
HETATM   23  C12 UNL     1       2.276  38.764   1.657  1.00  0.00     0.000 C
HETATM   24  C13 UNL     1       2.776  37.383   1.306  1.00  0.00     0.006 C
ATOM     25  H5  UNL     1       1.922  35.357  -1.854  1.00  0.00     0.187 HD
ENDBRANCH  16  17
ENDBRANCH   6   9
TORSDOF 2
ENDMDL