MODEL 1
REMARK VINA RESULT: -8.299434989      0.000      0.000
REMARK  4 active torsions:
REMARK  status: ('A' for Active; 'I' for Inactive)
REMARK    1  A    between atoms: O1_1  and  C1_3
REMARK    2  A    between atoms: C2_4  and  N1_5
REMARK    3  A    between atoms: N1_5  and  N2_7
REMARK    4  A    between atoms: N2_7  and  C3_8
ROOT
HETATM    1  N1  UNL     1      -1.564  34.244  -1.969  1.00  0.00    -0.233 N
ATOM      2  H1  UNL     1      -2.078  33.696  -2.658  1.00  0.00     0.202 HD
ENDROOT
BRANCH   1   3
HETATM    3  C2  UNL     1      -1.288  33.694  -0.641  1.00  0.00     0.096 A
HETATM    4  C1  UNL     1      -2.283  33.479   0.249  1.00  0.00     0.129 A
HETATM    5  C16 UNL     1      -2.006  32.852   1.484  1.00  0.00     0.110 A
HETATM    6  C15 UNL     1      -0.706  32.477   1.735  1.00  0.00    -0.020 A
HETATM    7  O2  UNL     1      -2.837  32.520   2.549  1.00  0.00    -0.347 OA
HETATM    8  C14 UNL     1       0.297  32.699   0.829  1.00  0.00     0.012 A
HETATM    9  C18 UNL     1      -0.665  31.779   3.056  1.00  0.00     0.068 C
HETATM   10  C13 UNL     1       0.017  33.311  -0.376  1.00  0.00     0.035 A
HETATM   11  C17 UNL     1      -2.012  32.109   3.640  1.00  0.00     0.180 C
BRANCH   4  12
HETATM   12  O1  UNL     1      -3.580  33.869  -0.037  1.00  0.00    -0.356 OA
ATOM     13  H1  UNL     1      -3.761  34.742  -0.365  1.00  0.00     0.218 HD
ENDBRANCH   4  12
ENDBRANCH   1   3
BRANCH   1  14
HETATM   14  N2  UNL     1      -1.137  35.464  -2.261  1.00  0.00    -0.334 NA
BRANCH  14  15
HETATM   15  C3  UNL     1      -0.742  36.559  -2.515  1.00  0.00     0.095 C
HETATM   16  C4  UNL     1      -0.728  37.686  -1.481  1.00  0.00     0.049 C
HETATM   17  C5  UNL     1       0.775  37.866  -1.159  1.00  0.00     0.016 C
HETATM   18  C9  UNL     1      -1.192  38.979  -2.071  1.00  0.00     0.016 C
HETATM   19  C6  UNL     1       1.549  38.122  -2.409  1.00  0.00    -0.013 C
HETATM   20  C7  UNL     1       1.052  39.468  -2.941  1.00  0.00     0.009 C
HETATM   21  C12 UNL     1       1.387  37.046  -3.443  1.00  0.00     0.016 C
HETATM   22  C8  UNL     1      -0.380  39.298  -3.302  1.00  0.00    -0.013 C
HETATM   23  C10 UNL     1      -0.539  38.241  -4.350  1.00  0.00     0.016 C
HETATM   24  C11 UNL     1      -0.099  36.930  -3.829  1.00  0.00     0.049 C
ENDBRANCH  14  15
ENDBRANCH   1  14
TORSDOF 4
ENDMDL