MODEL 3
REMARK VINA RESULT: -7.571191254      4.094      7.886
REMARK  14 active torsions:
REMARK  status: ('A' for Active; 'I' for Inactive)
REMARK    1  A    between atoms: C2_2  and  O1_3
REMARK    2  A    between atoms: O1_3  and  C3_4
REMARK       I    between atoms: C3_4  and  N1_6
REMARK    3  A    between atoms: N1_6  and  C5_8
REMARK    4  A    between atoms: C5_8  and  C6_9
REMARK    5  A    between atoms: C5_8  and  C10_13
REMARK    6  A    between atoms: C6_9  and  C7_10
REMARK       I    between atoms: C10_13  and  N2_15
REMARK    7  A    between atoms: N2_15  and  C11_17
REMARK    8  A    between atoms: C11_17  and  C12_18
REMARK    9  A    between atoms: C11_17  and  C14_20
REMARK       I    between atoms: C14_20  and  N3_22
REMARK   10  A    between atoms: N3_22  and  C15_24
REMARK   11  A    between atoms: C18_28  and  C19_29
REMARK   12  A    between atoms: C20_30  and  C21_31
REMARK   13  A    between atoms: C21_31  and  O6_34
REMARK   14  A    between atoms: C28_41  and  O7_42
ROOT
HETATM    1  C14 UNL     1       9.808  18.759   8.262  1.00  0.00     0.240 C
HETATM    2  O4  UNL     1       9.607  18.179   9.370  1.00  0.00    -0.271 OA
HETATM    3  N3  UNL     1       8.726  19.056   7.428  1.00  0.00    -0.350 N
ATOM      4  H3  UNL     1       8.915  19.506   6.532  1.00  0.00     0.163 HD
ENDROOT
BRANCH   3   5
HETATM    5  C15 UNL     1       7.345  18.757   7.773  1.00  0.00     0.142 C
HETATM    6  C16 UNL     1       6.384  19.482   6.895  1.00  0.00     0.203 C
HETATM    7  O5  UNL     1       5.052  19.014   7.108  1.00  0.00    -0.347 OA
HETATM    8  C17 UNL     1       4.752  18.038   8.063  1.00  0.00     0.096 A
HETATM    9  C18 UNL     1       3.524  17.935   8.677  1.00  0.00     0.053 A
HETATM   10  C27 UNL     1       5.737  17.116   8.421  1.00  0.00     0.009 A
HETATM   11  C24 UNL     1       3.237  16.966   9.620  1.00  0.00     0.042 A
HETATM   12  C25 UNL     1       4.222  16.046   9.977  1.00  0.00     0.013 A
HETATM   13 BR1  UNL     1       3.855  14.689  11.283  1.00  0.00    -0.051 Br
HETATM   14  C26 UNL     1       5.443  16.169   9.349  1.00  0.00     0.032 A
HETATM   15  C28 UNL     1       7.047  17.266   7.743  1.00  0.00     0.178 C
BRANCH   9  16
HETATM   16  C19 UNL     1       2.509  18.902   8.293  1.00  0.00    -0.061 C
HETATM   17  C20 UNL     1       1.663  19.689   7.967  1.00  0.00    -0.064 C
BRANCH  17  18
HETATM   18  C21 UNL     1       0.628  20.632   7.549  1.00  0.00     0.114 C
HETATM   19  C22 UNL     1       0.978  21.372   6.292  1.00  0.00     0.060 C
HETATM   20  C23 UNL     1      -0.698  19.901   7.275  1.00  0.00     0.060 C
BRANCH  18  21
HETATM   21  O6  UNL     1       0.413  21.498   8.622  1.00  0.00    -0.378 OA
ATOM     22  H6  UNL     1       0.762  22.344   8.368  1.00  0.00     0.211 HD
ENDBRANCH  18  21
ENDBRANCH  17  18
ENDBRANCH   9  16
BRANCH  15  23
HETATM   23  O7  UNL     1       6.883  16.872   6.410  1.00  0.00    -0.389 OA
ATOM     24  H7  UNL     1       6.011  17.122   6.127  1.00  0.00     0.210 HD
ENDBRANCH  15  23
ENDBRANCH   3   5
BRANCH   1  25
HETATM   25  C11 UNL     1      11.194  19.097   7.891  1.00  0.00     0.176 C
BRANCH  25  26
HETATM   26  N2  UNL     1      11.275  20.536   7.708  1.00  0.00    -0.343 N
HETATM   27  C10 UNL     1      11.135  21.218   6.486  1.00  0.00     0.268 C
HETATM   28  O3  UNL     1      10.915  20.508   5.457  1.00  0.00    -0.266 OA
ATOM     29  H2  UNL     1      11.447  21.101   8.539  1.00  0.00     0.163 HD
BRANCH  27  30
HETATM   30  C5  UNL     1      11.234  22.705   6.392  1.00  0.00     0.103 C
BRANCH  30  31
HETATM   31  N1  UNL     1      10.475  23.225   5.308  1.00  0.00    -0.293 N
HETATM   32  C3  UNL     1      11.077  23.499   4.057  1.00  0.00     0.367 C
HETATM   33  O2  UNL     1      12.307  23.318   3.885  1.00  0.00    -0.238 OA
HETATM   34  C4  UNL     1       9.044  23.417   5.421  1.00  0.00     0.162 C
BRANCH  32  35
HETATM   35  O1  UNL     1      10.305  23.966   3.021  1.00  0.00    -0.304 OA
BRANCH  35  36
HETATM   36  C2  UNL     1      10.150  23.315   1.795  1.00  0.00     0.176 C
HETATM   37  C1  UNL     1       9.611  21.931   1.996  1.00  0.00     0.034 C
ENDBRANCH  35  36
ENDBRANCH  32  35
ENDBRANCH  30  31
BRANCH  30  38
HETATM   38  C6  UNL     1      11.283  23.392   7.687  1.00  0.00     0.012 C
BRANCH  38  39
HETATM   39  C7  UNL     1      12.053  24.617   7.943  1.00  0.00     0.002 C
HETATM   40  C8  UNL     1      13.373  24.412   7.095  1.00  0.00     0.013 C
HETATM   41  C9  UNL     1      11.491  25.878   7.250  1.00  0.00     0.013 C
ENDBRANCH  38  39
ENDBRANCH  30  38
ENDBRANCH  27  30
ENDBRANCH  25  26
BRANCH  25  42
HETATM   42  C12 UNL     1      12.229  18.506   8.759  1.00  0.00     0.030 C
HETATM   43  C13 UNL     1      13.644  18.823   8.345  1.00  0.00     0.007 C
ENDBRANCH  25  42
ENDBRANCH   1  25
TORSDOF 14
ENDMDL