MODEL 1
REMARK VINA RESULT: -7.052054292      0.000      0.000
REMARK  13 active torsions:
REMARK  status: ('A' for Active; 'I' for Inactive)
REMARK    1  A    between atoms: O1_2  and  C2_3
REMARK    2  A    between atoms: C2_3  and  C3_5
REMARK    3  A    between atoms: C3_5  and  C4_6
REMARK    4  A    between atoms: C3_5  and  N1_11
REMARK    5  A    between atoms: C4_6  and  C5_7
REMARK    6  A    between atoms: C5_7  and  C6_8
REMARK       I    between atoms: N1_11  and  C7_13
REMARK    7  A    between atoms: C7_13  and  C8_15
REMARK    8  A    between atoms: N3_23  and  C13_24
REMARK    9  A    between atoms: C13_24  and  O7_25
REMARK   10  A    between atoms: C14_27  and  N4_28
REMARK   11  A    between atoms: C14_27  and  C24_42
REMARK       I    between atoms: N4_28  and  C15_30
REMARK   12  A    between atoms: C15_30  and  C16_32
REMARK   13  A    between atoms: C18_34  and  C19_35
ROOT
HETATM    1  C8  UNL     1       9.587  21.292   4.193  1.00  0.00     0.173 C
HETATM    2  C9  UNL     1       9.539  21.403   2.667  1.00  0.00     0.274 C
HETATM    3  O6  UNL     1      10.223  20.641   1.921  1.00  0.00    -0.266 OA
HETATM    4  N2  UNL     1       8.703  22.400   2.143  1.00  0.00    -0.354 N
ATOM      5  H2  UNL     1       8.695  22.611   1.145  1.00  0.00     0.162 HD
HETATM    6  C10 UNL     1       7.858  23.114   3.061  1.00  0.00     0.148 C
HETATM    7  C11 UNL     1       7.318  22.296   4.160  1.00  0.00     0.106 C
HETATM    8  C12 UNL     1       6.750  23.215   5.211  1.00  0.00     0.034 C
HETATM    9  N3  UNL     1       8.323  21.376   4.778  1.00  0.00    -0.311 N
ENDROOT
BRANCH   9  10
HETATM   10  C13 UNL     1       7.847  20.745   5.927  1.00  0.00     0.167 C
HETATM   11  C14 UNL     1       6.813  19.820   6.277  1.00  0.00     0.071 C
BRANCH  10  12
HETATM   12  O7  UNL     1       8.590  21.137   6.975  1.00  0.00    -0.344 OA
ATOM     13  H7  UNL     1       8.623  20.430   7.609  1.00  0.00     0.219 HD
ENDBRANCH  10  12
BRANCH  11  14
HETATM   14  N4  UNL     1       5.432  20.132   6.146  1.00  0.00    -0.322 N
HETATM   15  C15 UNL     1       4.563  20.760   7.054  1.00  0.00     0.258 C
HETATM   16  O8  UNL     1       5.005  21.162   8.153  1.00  0.00    -0.267 OA
ATOM     17  H4  UNL     1       5.008  19.857   5.260  1.00  0.00     0.169 HD
BRANCH  15  18
HETATM   18  C16 UNL     1       3.105  20.943   6.716  1.00  0.00     0.062 A
HETATM   19  C17 UNL     1       2.682  21.740   5.691  1.00  0.00     0.034 A
HETATM   20  C18 UNL     1       1.343  21.838   5.494  1.00  0.00    -0.007 A
HETATM   21  S1  UNL     1       0.682  20.844   6.705  1.00  0.00    -0.081 SA
HETATM   22  C23 UNL     1       2.131  20.322   7.444  1.00  0.00     0.090 A
HETATM   23 CL1  UNL     1       2.331  19.220   8.826  1.00  0.00    -0.075 Cl
BRANCH  20  24
HETATM   24  C19 UNL     1       0.696  22.673   4.407  1.00  0.00    -0.018 C
HETATM   25  C20 UNL     1       0.998  24.122   4.808  1.00  0.00     0.020 C
HETATM   26  C21 UNL     1       1.362  22.429   3.084  1.00  0.00     0.020 C
HETATM   27  C22 UNL     1      -0.762  22.453   4.417  1.00  0.00     0.020 C
ENDBRANCH  20  24
ENDBRANCH  15  18
ENDBRANCH  11  14
BRANCH  11  28
HETATM   28  C24 UNL     1       7.090  18.380   6.515  1.00  0.00    -0.004 C
HETATM   29  C25 UNL     1       7.124  18.037   8.036  1.00  0.00     0.021 C
HETATM   30  C26 UNL     1       5.821  17.633   6.040  1.00  0.00     0.021 C
HETATM   31  C27 UNL     1       8.208  17.703   5.835  1.00  0.00     0.021 C
ENDBRANCH  11  28
ENDBRANCH   9  10
BRANCH   1  32
HETATM   32  C7  UNL     1      10.778  22.000   4.579  1.00  0.00     0.274 C
HETATM   33  N1  UNL     1      11.395  21.898   5.884  1.00  0.00    -0.342 N
ATOM     34  H1  UNL     1      10.977  21.262   6.563  1.00  0.00     0.163 HD
HETATM   35  O5  UNL     1      11.422  22.789   3.831  1.00  0.00    -0.266 OA
BRANCH  33  36
HETATM   36  C3  UNL     1      12.560  22.637   6.286  1.00  0.00     0.185 C
BRANCH  36  37
HETATM   37  C2  UNL     1      13.682  21.716   6.583  1.00  0.00     0.281 C
HETATM   38  O2  UNL     1      14.860  22.088   6.764  1.00  0.00    -0.263 OA
BRANCH  37  39
HETATM   39  O1  UNL     1      13.424  20.345   6.668  1.00  0.00    -0.325 OA
HETATM   40  C1  UNL     1      13.319  19.607   7.838  1.00  0.00     0.213 C
ENDBRANCH  37  39
ENDBRANCH  36  37
BRANCH  36  41
HETATM   41  C4  UNL     1      12.277  23.514   7.491  1.00  0.00     0.046 C
BRANCH  41  42
HETATM   42  C5  UNL     1      12.135  24.975   7.065  1.00  0.00     0.116 C
BRANCH  42  43
HETATM   43  C6  UNL     1      10.736  25.422   7.014  1.00  0.00     0.172 C
HETATM   44  O3  UNL     1       9.858  24.791   6.403  1.00  0.00    -0.648 OA
HETATM   45  O4  UNL     1      10.411  26.597   7.683  1.00  0.00    -0.648 OA
ENDBRANCH  42  43
ENDBRANCH  41  42
ENDBRANCH  36  41
ENDBRANCH  33  36
ENDBRANCH   1  32
TORSDOF 13
ENDMDL