MODEL 1
REMARK VINA RESULT: -7.972206738      0.000      0.000
REMARK  14 active torsions:
REMARK  status: ('A' for Active; 'I' for Inactive)
REMARK    1  A    between atoms: C2_2  and  C3_3
REMARK    2  A    between atoms: C3_3  and  C4_4
REMARK    3  A    between atoms: C6_6  and  O1_7
REMARK    4  A    between atoms: C12_14  and  O2_15
REMARK    5  A    between atoms: C15_19  and  O3_20
REMARK    6  A    between atoms: C20_27  and  O5_28
REMARK    7  A    between atoms: C24_34  and  C25_35
REMARK    8  A    between atoms: C25_35  and  C26_36
REMARK       I    between atoms: C26_36  and  N1_38
REMARK    9  A    between atoms: N1_38  and  C27_40
REMARK   10  A    between atoms: C27_40  and  C28_41
REMARK   11  A    between atoms: C28_41  and  C29_43
REMARK   12  A    between atoms: C29_43  and  N2_44
REMARK   13  A    between atoms: C29_43  and  C30_48
REMARK   14  A    between atoms: C30_48  and  C31_49
ROOT
HETATM    1  C4  UNL     1       8.770  19.348   6.782  1.00  0.00     0.010 C
HETATM    2  C5  UNL     1       7.884  19.664   7.862  1.00  0.00     0.030 C
HETATM    3  C6  UNL     1       6.465  19.869   7.939  1.00  0.00     0.054 C
HETATM    4  C7  UNL     1       5.164  19.734   7.354  1.00  0.00     0.073 C
HETATM    5  C8  UNL     1       4.232  18.857   8.247  1.00  0.00     0.010 C
HETATM    6  C9  UNL     1       2.904  19.568   8.477  1.00  0.00     0.014 C
HETATM    7  C10 UNL     1       4.019  17.530   7.621  1.00  0.00    -0.020 C
HETATM    8  C11 UNL     1       4.394  16.335   7.913  1.00  0.00     0.028 C
HETATM    9  C12 UNL     1       5.157  15.655   8.896  1.00  0.00     0.043 C
HETATM   10  C13 UNL     1       6.663  15.564   9.081  1.00  0.00     0.067 C
HETATM   11  C14 UNL     1       7.171  16.913   8.895  1.00  0.00     0.053 C
HETATM   12  C15 UNL     1       8.492  17.451   9.162  1.00  0.00     0.126 C
HETATM   13  C16 UNL     1       8.206  18.948   9.167  1.00  0.00     0.193 C
HETATM   14  O4  UNL     1       8.248  19.496  10.242  1.00  0.00    -0.289 OA
HETATM   15  C17 UNL     1       9.631  17.388   8.256  1.00  0.00     0.031 C
HETATM   16  C18 UNL     1       9.943  15.905   8.036  1.00  0.00     0.014 C
HETATM   17  C19 UNL     1       9.714  18.177   7.025  1.00  0.00     0.037 C
HETATM   18  C20 UNL     1      11.160  18.494   6.729  1.00  0.00     0.142 C
HETATM   19  C21 UNL     1      11.719  19.640   7.470  1.00  0.00     0.115 C
HETATM   20 CL1  UNL     1      13.130  20.269   6.603  1.00  0.00    -0.122 Cl
HETATM   21  C22 UNL     1      10.627  20.748   7.635  1.00  0.00     0.011 C
HETATM   22  C23 UNL     1      11.384  21.962   7.936  1.00  0.00     0.012 C
HETATM   23  C24 UNL     1       9.735  20.583   6.508  1.00  0.00     0.033 C
ENDROOT
BRANCH  23  24
HETATM   24  C25 UNL     1       8.900  21.641   5.930  1.00  0.00     0.054 C
BRANCH  24  25
HETATM   25  C26 UNL     1       9.420  22.855   5.299  1.00  0.00     0.241 C
HETATM   26  O6  UNL     1       9.949  23.047   4.198  1.00  0.00    -0.269 OA
HETATM   27  N1  UNL     1       9.325  24.109   6.055  1.00  0.00    -0.330 N
ATOM     28  H1  UNL     1       8.888  24.067   6.975  1.00  0.00     0.168 HD
BRANCH  27  29
HETATM   29  C27 UNL     1       9.786  25.360   5.620  1.00  0.00     0.143 C
BRANCH  29  30
HETATM   30  C28 UNL     1      10.753  26.077   6.437  1.00  0.00     0.195 C
HETATM   31  O7  UNL     1      10.528  26.621   7.495  1.00  0.00    -0.289 OA
BRANCH  30  32
HETATM   32  C29 UNL     1      12.177  26.169   5.941  1.00  0.00     0.258 C
BRANCH  32  33
HETATM   33  N2  UNL     1      12.674  27.520   6.073  1.00  0.00    -0.068 N
ATOM     34  H23 UNL     1      11.967  28.210   5.820  1.00  0.00     0.275 HD
ATOM     35  H22 UNL     1      12.802  27.782   7.050  1.00  0.00     0.275 HD
ATOM     36  H21 UNL     1      13.532  27.641   5.534  1.00  0.00     0.275 HD
ENDBRANCH  32  33
BRANCH  32  37
HETATM   37  C30 UNL     1      12.968  25.282   6.897  1.00  0.00     0.045 C
BRANCH  37  38
HETATM   38  C31 UNL     1      13.944  24.376   6.236  1.00  0.00    -0.020 C
HETATM   39  C32 UNL     1      14.704  23.534   7.202  1.00  0.00     0.009 C
HETATM   40  C33 UNL     1      13.292  23.588   5.111  1.00  0.00     0.009 C
ENDBRANCH  37  38
ENDBRANCH  32  37
ENDBRANCH  30  32
ENDBRANCH  29  30
ENDBRANCH  27  29
ENDBRANCH  24  25
ENDBRANCH  23  24
BRANCH   1  41
HETATM   41  C3  UNL     1       8.280  19.078   5.378  1.00  0.00     0.042 C
BRANCH  41  42
HETATM   42  C2  UNL     1       7.562  17.815   5.098  1.00  0.00    -0.036 C
HETATM   43  C1  UNL     1       6.256  17.719   4.908  1.00  0.00     0.007 C
ENDBRANCH  41  42
ENDBRANCH   1  41
BRANCH   3  44
HETATM   44  O1  UNL     1       6.189  20.458   9.072  1.00  0.00    -0.364 OA
ATOM     45  H1  UNL     1       5.343  20.149   9.377  1.00  0.00     0.217 HD
ENDBRANCH   3  44
BRANCH  18  46
HETATM   46  O5  UNL     1      11.957  17.380   7.105  1.00  0.00    -0.394 OA
ATOM     47  H5  UNL     1      12.509  17.632   7.836  1.00  0.00     0.210 HD
ENDBRANCH  18  46
BRANCH  12  48
HETATM   48  O3  UNL     1       8.964  17.121  10.453  1.00  0.00    -0.381 OA
ATOM     49  H3  UNL     1       9.912  17.098  10.501  1.00  0.00     0.211 HD
ENDBRANCH  12  48
BRANCH   9  50
HETATM   50  O2  UNL     1       4.480  14.994   9.790  1.00  0.00    -0.365 OA
ATOM     51  H2  UNL     1       4.989  14.461  10.390  1.00  0.00     0.217 HD
ENDBRANCH   9  50
TORSDOF 14
ENDMDL