MODEL 3
REMARK VINA RESULT: -7.711481392      2.566      5.063
REMARK  10 active torsions:
REMARK  status: ('A' for Active; 'I' for Inactive)
REMARK    1  A    between atoms: C5_5  and  N1_6
REMARK       I    between atoms: N1_6  and  C6_7
REMARK    2  A    between atoms: N1_6  and  S1_13
REMARK    3  A    between atoms: C6_7  and  C7_9
REMARK    4  A    between atoms: S1_13  and  N2_16
REMARK    5  A    between atoms: C18_24  and  C19_25
REMARK       I    between atoms: C19_25  and  N3_27
REMARK    6  A    between atoms: C20_29  and  C21_30
REMARK    7  A    between atoms: C20_29  and  C25_44
REMARK    8  A    between atoms: C21_30  and  C22_31
REMARK    9  A    between atoms: C22_31  and  C23_32
REMARK   10  A    between atoms: C23_32  and  N4_33
REMARK       I    between atoms: N4_33  and  C24_35
REMARK       I    between atoms: C24_35  and  N5_36
REMARK       I    between atoms: C24_35  and  N6_40
ROOT
HETATM    1  N2  UNL     1       9.723  18.416   7.872  1.00  0.00    -0.255 N
HETATM    2  C11 UNL     1       9.420  18.223   9.250  1.00  0.00     0.175 C
HETATM    3  C12 UNL     1      10.308  17.134   9.814  1.00  0.00     0.141 C
HETATM    4  C13 UNL     1      10.214  15.792   9.239  1.00  0.00     0.034 C
HETATM    5  C14 UNL     1      10.995  15.596   7.959  1.00  0.00     0.005 C
HETATM    6  C15 UNL     1      12.370  16.186   8.159  1.00  0.00     0.032 C
HETATM    7  C16 UNL     1      12.352  17.572   8.764  1.00  0.00     0.128 C
HETATM    8  C17 UNL     1      12.185  18.667   7.790  1.00  0.00     0.096 C
HETATM    9  C18 UNL     1      10.812  19.233   7.586  1.00  0.00     0.094 C
HETATM   10  O7  UNL     1      11.583  17.658   9.894  1.00  0.00    -0.379 OA
ENDROOT
BRANCH   9  11
HETATM   11  C19 UNL     1      10.740  20.036   6.372  1.00  0.00     0.269 C
HETATM   12  O4  UNL     1      11.077  19.746   5.200  1.00  0.00    -0.266 OA
HETATM   13  N3  UNL     1      10.209  21.384   6.424  1.00  0.00    -0.320 N
HETATM   14  C20 UNL     1      10.860  22.452   6.256  1.00  0.00     0.089 C
ATOM     15  H3  UNL     1       9.212  21.479   6.614  1.00  0.00     0.169 HD
BRANCH  14  16
HETATM   16  C21 UNL     1      10.036  23.719   6.362  1.00  0.00     0.066 C
BRANCH  16  17
HETATM   17  C22 UNL     1      10.024  24.499   5.093  1.00  0.00     0.025 C
BRANCH  17  18
HETATM   18  C23 UNL     1       8.644  24.442   4.466  1.00  0.00     0.117 C
BRANCH  18  19
HETATM   19  N4  UNL     1       7.657  24.122   5.445  1.00  0.00    -0.374 N
HETATM   20  C24 UNL     1       6.577  23.295   5.025  1.00  0.00     0.476 C
HETATM   21  N5  UNL     1       5.644  23.187   6.138  1.00  0.00    -0.033 N
HETATM   22  N6  UNL     1       7.015  21.929   4.744  1.00  0.00    -0.033 N
ATOM     23  H53 UNL     1       6.086  22.856   6.995  1.00  0.00     0.278 HD
ATOM     24  H52 UNL     1       5.336  24.094   6.486  1.00  0.00     0.278 HD
ATOM     25  H51 UNL     1       4.871  22.594   5.837  1.00  0.00     0.278 HD
ATOM     26  H63 UNL     1       7.777  21.916   4.067  1.00  0.00     0.278 HD
ATOM     27  H62 UNL     1       7.504  21.524   5.543  1.00  0.00     0.278 HD
ATOM     28  H61 UNL     1       6.241  21.336   4.443  1.00  0.00     0.278 HD
ATOM     29  H4  UNL     1       7.722  24.470   6.402  1.00  0.00     0.156 HD
ENDBRANCH  18  19
ENDBRANCH  17  18
ENDBRANCH  16  17
ENDBRANCH  14  16
BRANCH  14  30
HETATM   30  C25 UNL     1      12.259  22.634   6.012  1.00  0.00     0.222 C
HETATM   31  O5  UNL     1      13.051  22.912   6.941  1.00  0.00    -0.643 OA
HETATM   32  O6  UNL     1      12.798  22.513   4.753  1.00  0.00    -0.643 OA
ENDBRANCH  14  30
ENDBRANCH   9  11
BRANCH   1  33
HETATM   33  S1  UNL     1       8.399  18.310   6.900  1.00  0.00     0.330 S
HETATM   34  O2  UNL     1       8.301  19.382   5.824  1.00  0.00    -0.182 OA
HETATM   35  O3  UNL     1       8.804  17.079   5.928  1.00  0.00    -0.182 OA
BRANCH  33  36
HETATM   36  N1  UNL     1       6.878  17.755   7.438  1.00  0.00    -0.223 N
HETATM   37  C6  UNL     1       6.623  16.450   7.858  1.00  0.00     0.242 C
HETATM   38  O1  UNL     1       7.563  15.616   7.870  1.00  0.00    -0.271 OA
BRANCH  36  39
HETATM   39  C5  UNL     1       5.792  18.718   7.462  1.00  0.00     0.106 C
HETATM   40  C4  UNL     1       6.166  20.047   8.103  1.00  0.00     0.027 C
HETATM   41  C3  UNL     1       4.830  20.634   8.566  1.00  0.00     0.006 C
HETATM   42  C2  UNL     1       3.700  20.404   7.632  1.00  0.00    -0.019 C
HETATM   43  C1  UNL     1       2.581  19.573   8.284  1.00  0.00     0.010 C
HETATM   44  C27 UNL     1       3.996  19.911   6.273  1.00  0.00     0.006 C
HETATM   45  C26 UNL     1       5.255  19.086   6.111  1.00  0.00     0.027 C
ENDBRANCH  36  39
BRANCH  37  46
HETATM   46  C7  UNL     1       5.330  15.865   8.324  1.00  0.00     0.031 C
HETATM   47  C8  UNL     1       5.020  16.314   9.752  1.00  0.00     0.025 C
HETATM   48  C9  UNL     1       5.485  14.323   8.376  1.00  0.00     0.025 C
HETATM   49  C10 UNL     1       4.176  16.113   7.423  1.00  0.00     0.025 C
ENDBRANCH  37  46
ENDBRANCH  33  36
ENDBRANCH   1  33
TORSDOF 10
ENDMDL