MODEL 2
REMARK VINA RESULT: -6.825227581      2.155      4.561
REMARK  13 active torsions:
REMARK  status: ('A' for Active; 'I' for Inactive)
REMARK    1  A    between atoms: C3_3  and  C4_4
REMARK    2  A    between atoms: C5_5  and  C6_6
REMARK    3  A    between atoms: C6_6  and  C7_8
REMARK    4  A    between atoms: C8_9  and  C9_10
REMARK    5  A    between atoms: C9_10  and  C10_12
REMARK    6  A    between atoms: C16_19  and  O3_20
REMARK    7  A    between atoms: C17_22  and  C18_23
REMARK    8  A    between atoms: C18_23  and  C19_24
REMARK    9  A    between atoms: C22_29  and  O4_30
REMARK   10  A    between atoms: N2_34  and  C25_35
REMARK   11  A    between atoms: C25_35  and  C27_37
REMARK   12  A    between atoms: C27_37  and  O5_38
REMARK   13  A    between atoms: C31_46  and  O7_47
ROOT
HETATM    1  C1  UNL     1       1.122  18.868   8.552  1.00  0.00     0.112 C
HETATM    2  C2  UNL     1       1.998  17.914   9.242  1.00  0.00    -0.106 C
HETATM    3  C3  UNL     1       2.687  17.164   9.789  1.00  0.00    -0.079 C
ENDROOT
BRANCH   3   4
HETATM    4  C4  UNL     1       3.531  16.245  10.442  1.00  0.00     0.068 C
HETATM    5  C5  UNL     1       4.711  15.885   9.847  1.00  0.00     0.063 C
BRANCH   5   6
HETATM    6  C6  UNL     1       5.676  15.000  10.341  1.00  0.00     0.172 C
HETATM    7  O1  UNL     1       5.278  14.071  11.134  1.00  0.00    -0.289 OA
BRANCH   6   8
HETATM    8  C7  UNL     1       7.077  15.010  10.049  1.00  0.00     0.052 C
HETATM    9  C8  UNL     1       7.557  15.768   9.044  1.00  0.00    -0.002 C
BRANCH   9  10
HETATM   10  C9  UNL     1       8.958  15.894   8.626  1.00  0.00     0.111 C
HETATM   11 CL1  UNL     1       9.863  15.697  10.152  1.00  0.00    -0.120 Cl
BRANCH  10  12
HETATM   12  C10 UNL     1       9.287  17.275   7.986  1.00  0.00     0.042 C
HETATM   13  C11 UNL     1      10.662  17.505   8.182  1.00  0.00     0.017 C
HETATM   14  C12 UNL     1      11.661  18.344   7.511  1.00  0.00     0.025 C
HETATM   15  C13 UNL     1      12.552  17.664   6.486  1.00  0.00     0.013 C
HETATM   16  C14 UNL     1      10.973  19.538   6.875  1.00  0.00     0.128 C
HETATM   17  C15 UNL     1      10.565  18.975   5.599  1.00  0.00     0.055 C
HETATM   18  O2  UNL     1      11.792  20.622   6.435  1.00  0.00    -0.340 OA
HETATM   19  C31 UNL     1      10.316  19.984   8.051  1.00  0.00     0.147 C
HETATM   20  C16 UNL     1      11.157  21.791   6.031  1.00  0.00     0.281 C
HETATM   21  C17 UNL     1       9.888  21.969   5.289  1.00  0.00     0.139 C
HETATM   22  N1  UNL     1       8.740  22.343   6.110  1.00  0.00    -0.360 N
HETATM   23  C22 UNL     1       7.402  21.987   6.186  1.00  0.00     0.161 C
ATOM     24  H1  UNL     1       8.985  23.046   6.807  1.00  0.00     0.162 HD
HETATM   25  C23 UNL     1       6.599  20.949   6.853  1.00  0.00     0.082 C
HETATM   26  C24 UNL     1       5.100  21.239   6.731  1.00  0.00     0.075 C
HETATM   27  N2  UNL     1       6.959  19.579   6.779  1.00  0.00    -0.252 N
HETATM   28  O6  UNL     1       7.785  19.109   7.535  1.00  0.00    -0.270 OA
HETATM   29  C28 UNL     1       8.109  18.133   8.371  1.00  0.00     0.180 C
HETATM   30  C29 UNL     1       8.391  18.960   9.640  1.00  0.00     0.111 C
HETATM   31  C30 UNL     1       8.635  18.285  10.869  1.00  0.00     0.035 C
HETATM   32  N3  UNL     1       9.339  19.927   9.093  1.00  0.00    -0.365 N
ATOM     33  H3  UNL     1       9.289  20.812   9.596  1.00  0.00     0.161 HD
BRANCH  20  34
HETATM   34  O3  UNL     1      11.798  22.870   6.383  1.00  0.00    -0.369 OA
ATOM     35  H3  UNL     1      11.275  23.659   6.297  1.00  0.00     0.212 HD
ENDBRANCH  20  34
BRANCH  21  36
HETATM   36  C18 UNL     1      10.203  23.235   4.409  1.00  0.00     0.034 C
BRANCH  36  37
HETATM   37  C19 UNL     1       9.801  23.003   3.008  1.00  0.00    -0.021 C
HETATM   38  C20 UNL     1       9.547  21.536   2.721  1.00  0.00     0.009 C
HETATM   39  C21 UNL     1       8.513  23.751   2.693  1.00  0.00     0.009 C
ENDBRANCH  36  37
ENDBRANCH  21  36
BRANCH  23  40
HETATM   40  O4  UNL     1       6.595  22.769   5.485  1.00  0.00    -0.345 OA
ATOM     41  H4  UNL     1       6.907  22.961   4.608  1.00  0.00     0.219 HD
ENDBRANCH  23  40
BRANCH  27  42
HETATM   42  C25 UNL     1       6.347  18.672   5.918  1.00  0.00     0.134 C
HETATM   43  C26 UNL     1       7.178  18.015   4.842  1.00  0.00     0.037 C
BRANCH  42  44
HETATM   44  C27 UNL     1       5.500  17.592   6.541  1.00  0.00     0.191 C
BRANCH  44  45
HETATM   45  O5  UNL     1       4.216  18.107   6.839  1.00  0.00    -0.399 OA
ATOM     46  H5  UNL     1       4.161  18.313   7.765  1.00  0.00     0.209 HD
ENDBRANCH  44  45
ENDBRANCH  42  44
ENDBRANCH  27  42
BRANCH  19  47
HETATM   47  O7  UNL     1      10.954  21.069   8.438  1.00  0.00    -0.347 OA
ATOM     48  H7  UNL     1      10.311  21.768   8.439  1.00  0.00     0.219 HD
ENDBRANCH  19  47
ENDBRANCH  10  12
ENDBRANCH   9  10
ENDBRANCH   6   8
ENDBRANCH   5   6
ENDBRANCH   3   4
TORSDOF 13
ENDMDL