MODEL 5
REMARK VINA RESULT: -8.346627198      1.949      2.814
REMARK  12 active torsions:
REMARK  status: ('A' for Active; 'I' for Inactive)
REMARK    1  A    between atoms: C2_2  and  C3_4
REMARK    2  A    between atoms: C3_4  and  N1_5
REMARK    3  A    between atoms: C3_4  and  C4_9
REMARK    4  A    between atoms: C4_9  and  C5_10
REMARK       I    between atoms: C5_10  and  N2_12
REMARK    5  A    between atoms: N2_12  and  C6_14
REMARK    6  A    between atoms: N4_20  and  C9_21
REMARK    7  A    between atoms: C9_21  and  O3_22
REMARK    8  A    between atoms: C10_24  and  N5_25
REMARK    9  A    between atoms: C10_24  and  C25_44
REMARK       I    between atoms: N5_25  and  C11_26
REMARK   10  A    between atoms: C11_26  and  O5_28
REMARK   11  A    between atoms: O5_28  and  C12_29
REMARK   12  A    between atoms: C12_29  and  C13_30
ROOT
HETATM    1  C9  UNL     1       3.805  22.695   5.957  1.00  0.00     0.177 C
HETATM    2  C10 UNL     1       3.893  21.296   6.308  1.00  0.00     0.144 C
ENDROOT
BRANCH   1   3
HETATM    3  N4  UNL     1       2.984  23.761   5.953  1.00  0.00    -0.334 N
HETATM    4  C8  UNL     1       2.527  24.311   4.619  1.00  0.00     0.358 C
HETATM    5  N3  UNL     1       2.951  25.696   4.594  1.00  0.00    -0.057 N
HETATM    6  C7  UNL     1       3.905  26.057   5.622  1.00  0.00     0.261 C
ATOM      7  H32 UNL     1       2.141  26.315   4.629  1.00  0.00     0.279 HD
ATOM      8  H31 UNL     1       3.317  25.938   3.673  1.00  0.00     0.279 HD
HETATM    9  C6  UNL     1       3.375  25.840   7.029  1.00  0.00     0.128 C
HETATM   10  C28 UNL     1       2.477  24.585   7.008  1.00  0.00     0.153 C
BRANCH   9  11
HETATM   11  N2  UNL     1       2.746  27.006   7.553  1.00  0.00    -0.353 N
HETATM   12  C5  UNL     1       2.841  27.407   8.916  1.00  0.00     0.220 C
HETATM   13  O2  UNL     1       3.497  26.692   9.700  1.00  0.00    -0.274 OA
ATOM     14  H2  UNL     1       2.198  27.585   6.917  1.00  0.00     0.163 HD
BRANCH  12  15
HETATM   15  C4  UNL     1       2.155  28.653   9.329  1.00  0.00     0.143 C
BRANCH  15  16
HETATM   16  C3  UNL     1       1.005  28.448  10.264  1.00  0.00     0.260 C
BRANCH  16  17
HETATM   17  C2  UNL     1       0.043  29.574   9.995  1.00  0.00     0.153 C
HETATM   18  C1  UNL     1      -0.423  30.442  11.132  1.00  0.00     0.093 C
HETATM   19  O1  UNL     1      -0.381  29.814   8.891  1.00  0.00    -0.296 OA
ENDBRANCH  16  17
BRANCH  16  20
HETATM   20  N1  UNL     1       0.279  27.221   9.960  1.00  0.00    -0.068 N
ATOM     21  H13 UNL     1      -0.701  27.375   9.726  1.00  0.00     0.275 HD
ATOM     22  H12 UNL     1       0.553  26.795   9.075  1.00  0.00     0.275 HD
ATOM     23  H11 UNL     1       0.414  26.609  10.765  1.00  0.00     0.275 HD
ENDBRANCH  16  20
ENDBRANCH  15  16
ENDBRANCH  12  15
ENDBRANCH   9  11
ENDBRANCH   1   3
BRANCH   1  24
HETATM   24  O3  UNL     1       5.036  23.059   5.443  1.00  0.00    -0.344 OA
ATOM     25  H3  UNL     1       4.921  23.749   4.801  1.00  0.00     0.219 HD
ENDBRANCH   1  24
BRANCH   2  26
HETATM   26  N5  UNL     1       5.216  20.840   6.289  1.00  0.00    -0.345 NA
HETATM   27  C11 UNL     1       6.508  20.395   6.271  1.00  0.00     0.440 C
HETATM   28  O4  UNL     1       7.072  19.860   5.254  1.00  0.00    -0.221 OA
BRANCH  27  29
HETATM   29  O5  UNL     1       7.369  20.473   7.361  1.00  0.00    -0.290 OA
BRANCH  29  30
HETATM   30  C12 UNL     1       8.374  19.654   7.797  1.00  0.00     0.220 C
BRANCH  30  31
HETATM   31  C13 UNL     1       8.069  18.804   9.015  1.00  0.00     0.087 A
HETATM   32  C14 UNL     1       8.813  19.297  10.268  1.00  0.00     0.048 A
HETATM   33  C15 UNL     1       9.188  17.995   9.609  1.00  0.00     0.026 A
HETATM   34  C16 UNL     1       8.712  16.817  10.395  1.00  0.00     0.012 C
HETATM   35  C17 UNL     1       8.563  15.531   9.686  1.00  0.00    -0.012 C
HETATM   36  C18 UNL     1       8.577  15.574   8.197  1.00  0.00     0.011 C
HETATM   37  C24 UNL     1       7.247  14.901  10.109  1.00  0.00     0.026 C
HETATM   38  C19 UNL     1       7.167  15.355   7.751  1.00  0.00     0.007 C
HETATM   39  C20 UNL     1       6.680  16.696   7.207  1.00  0.00     0.038 C
HETATM   40  C23 UNL     1       6.308  15.149   8.971  1.00  0.00     0.024 C
HETATM   41  C21 UNL     1       6.205  17.482   8.344  1.00  0.00     0.124 C
HETATM   42  C22 UNL     1       5.443  16.375   9.136  1.00  0.00     0.053 C
HETATM   43  O6  UNL     1       6.949  18.117   9.200  1.00  0.00    -0.372 OA
HETATM   44 BR1  UNL     1       5.186  13.565   8.794  1.00  0.00    -0.085 Br
ENDBRANCH  30  31
ENDBRANCH  29  30
ENDBRANCH  27  29
ENDBRANCH   2  26
BRANCH   2  45
HETATM   45  C25 UNL     1       3.058  20.705   7.399  1.00  0.00     0.046 C
HETATM   46  C26 UNL     1       3.365  19.173   7.461  1.00  0.00     0.017 C
HETATM   47  C27 UNL     1       1.551  20.720   7.085  1.00  0.00     0.017 C
ENDBRANCH   2  45
TORSDOF 12
ENDMDL