MODEL 3
REMARK VINA RESULT: -7.722787568      1.541      2.225
REMARK  13 active torsions:
REMARK  status: ('A' for Active; 'I' for Inactive)
REMARK    1  A    between atoms: C2_2  and  O1_3
REMARK    2  A    between atoms: O1_3  and  C3_4
REMARK       I    between atoms: C3_4  and  N1_6
REMARK    3  A    between atoms: N2_9  and  C6_10
REMARK    4  A    between atoms: C6_10  and  O3_11
REMARK    5  A    between atoms: C6_10  and  C7_13
REMARK    6  A    between atoms: C7_13  and  C8_15
REMARK    7  A    between atoms: C8_15  and  N3_16
REMARK       I    between atoms: N3_16  and  C9_18
REMARK    8  A    between atoms: C9_18  and  C10_20
REMARK    9  A    between atoms: C10_20  and  N4_21
REMARK       I    between atoms: N4_21  and  C11_23
REMARK   10  A    between atoms: C11_23  and  C12_25
REMARK   11  A    between atoms: C12_25  and  N5_28
REMARK   12  A    between atoms: N6_34  and  C17_35
REMARK   13  A    between atoms: C17_35  and  C18_36
ROOT
HETATM    1  C10 UNL     1       6.981  17.384   7.835  1.00  0.00     0.119 C
HETATM    2  C15 UNL     1       7.907  17.106   6.652  1.00  0.00     0.085 C
HETATM    3  C16 UNL     1       8.828  18.289   6.466  1.00  0.00     0.062 C
HETATM    4  N6  UNL     1       9.679  18.467   7.553  1.00  0.00    -0.384 N
HETATM    5  C28 UNL     1       9.179  18.068   8.818  1.00  0.00     0.126 C
HETATM    6  C29 UNL     1       7.661  18.305   8.774  1.00  0.00     0.061 C
ENDROOT
BRANCH   1   7
HETATM    7  C9  UNL     1       5.723  17.905   7.243  1.00  0.00     0.246 C
HETATM    8  N3  UNL     1       4.991  18.996   7.722  1.00  0.00    -0.352 N
ATOM      9  H3  UNL     1       5.337  19.468   8.558  1.00  0.00     0.162 HD
HETATM   10  O5  UNL     1       5.292  17.288   6.207  1.00  0.00    -0.271 OA
BRANCH   8  11
HETATM   11  C8  UNL     1       3.790  19.498   7.125  1.00  0.00     0.206 C
BRANCH  11  12
HETATM   12  C7  UNL     1       2.662  19.748   8.054  1.00  0.00     0.203 C
HETATM   13  O4  UNL     1       2.789  19.658   9.263  1.00  0.00    -0.291 OA
BRANCH  12  14
HETATM   14  C6  UNL     1       1.362  20.116   7.424  1.00  0.00     0.429 C
BRANCH  14  15
HETATM   15  N2  UNL     1       1.264  21.494   7.087  1.00  0.00     0.127 N
HETATM   16  C5  UNL     1      -0.017  21.827   6.501  1.00  0.00     0.296 C
HETATM   17  C4  UNL     1      -0.199  23.355   6.603  1.00  0.00     0.158 C
HETATM   18  N1  UNL     1       1.071  23.964   6.924  1.00  0.00    -0.325 N
HETATM   19  C3  UNL     1       1.103  25.039   7.838  1.00  0.00     0.362 C
HETATM   20  C31 UNL     1       2.315  23.512   6.350  1.00  0.00     0.158 C
HETATM   21  O2  UNL     1       0.050  25.466   8.365  1.00  0.00    -0.238 OA
HETATM   22  C30 UNL     1       2.267  22.010   6.212  1.00  0.00     0.296 C
BRANCH  19  23
HETATM   23  O1  UNL     1       2.291  25.678   8.197  1.00  0.00    -0.304 OA
BRANCH  23  24
HETATM   24  C2  UNL     1       2.560  27.041   7.897  1.00  0.00     0.176 C
HETATM   25  C1  UNL     1       2.513  27.792   9.219  1.00  0.00     0.034 C
ENDBRANCH  23  24
ENDBRANCH  19  23
ENDBRANCH  14  15
BRANCH  14  26
HETATM   26  O3  UNL     1       0.281  19.743   8.234  1.00  0.00    -0.362 OA
ATOM     27  H3  UNL     1       0.430  20.027   9.129  1.00  0.00     0.212 HD
ENDBRANCH  14  26
ENDBRANCH  12  14
ENDBRANCH  11  12
ENDBRANCH   8  11
ENDBRANCH   1   7
BRANCH   1  28
HETATM   28  N4  UNL     1       6.686  16.085   8.427  1.00  0.00    -0.341 N
HETATM   29  C11 UNL     1       5.654  15.879   9.361  1.00  0.00     0.254 C
HETATM   30  O6  UNL     1       4.958  16.883   9.692  1.00  0.00    -0.271 OA
ATOM     31  H4  UNL     1       7.255  15.286   8.150  1.00  0.00     0.163 HD
BRANCH  29  32
HETATM   32  C12 UNL     1       5.371  14.569   9.947  1.00  0.00     0.196 C
HETATM   33  C13 UNL     1       4.132  14.522  10.799  1.00  0.00     0.056 C
HETATM   34  C14 UNL     1       5.270  13.514   8.840  1.00  0.00     0.056 C
BRANCH  32  35
HETATM   35  N5  UNL     1       6.493  14.159  10.786  1.00  0.00    -0.062 N
ATOM     36  H53 UNL     1       7.311  13.897  10.235  1.00  0.00     0.275 HD
ATOM     37  H52 UNL     1       6.904  14.945  11.291  1.00  0.00     0.275 HD
ATOM     38  H51 UNL     1       6.193  13.413  11.412  1.00  0.00     0.275 HD
ENDBRANCH  32  35
ENDBRANCH  29  32
ENDBRANCH   1  28
BRANCH   4  39
HETATM   39  C17 UNL     1      11.031  18.770   7.434  1.00  0.00     0.034 C
HETATM   40  C21 UNL     1      11.732  17.867   6.421  1.00  0.00     0.032 C
HETATM   41  C22 UNL     1      13.219  18.043   6.455  1.00  0.00     0.011 C
HETATM   42  C23 UNL     1      13.815  17.852   7.806  1.00  0.00    -0.048 C
HETATM   43  C24 UNL     1      15.305  18.125   7.681  1.00  0.00     0.015 C
HETATM   44  C25 UNL     1      13.674  16.447   8.341  1.00  0.00     0.015 C
HETATM   45  C26 UNL     1      13.175  18.797   8.762  1.00  0.00     0.011 C
HETATM   46  C27 UNL     1      11.684  18.598   8.804  1.00  0.00     0.032 C
BRANCH  39  47
HETATM   47  C18 UNL     1      11.268  20.202   7.059  1.00  0.00     0.005 C
HETATM   48  C19 UNL     1      10.965  20.610   5.668  1.00  0.00     0.012 C
HETATM   49  C20 UNL     1      10.403  21.098   7.962  1.00  0.00     0.012 C
ENDBRANCH  39  47
ENDBRANCH   4  39
TORSDOF 13
ENDMDL