MODEL 1
REMARK VINA RESULT: -8.861576988      0.000      0.000
REMARK  11 active torsions:
REMARK  status: ('A' for Active; 'I' for Inactive)
REMARK    1  A    between atoms: C2_2  and  C3_3
REMARK    2  A    between atoms: C2_2  and  C4_6
REMARK    3  A    between atoms: C15_20  and  N1_21
REMARK       I    between atoms: N1_21  and  C16_23
REMARK    4  A    between atoms: C16_23  and  C17_25
REMARK    5  A    between atoms: C17_25  and  C18_26
REMARK    6  A    between atoms: C18_26  and  C19_27
REMARK    7  A    between atoms: C20_29  and  C21_30
REMARK    8  A    between atoms: C21_30  and  O7_31
REMARK    9  A    between atoms: O7_31  and  C22_32
REMARK   10  A    between atoms: C22_32  and  O8_33
REMARK   11  A    between atoms: C24_36  and  O9_37
ROOT
HETATM    1  C4  UNL     1       9.746  22.585   6.012  1.00  0.00     0.187 C
HETATM    2  C5  UNL     1       9.022  21.780   4.987  1.00  0.00     0.045 C
HETATM    3  C6  UNL     1       8.757  20.574   5.421  1.00  0.00     0.079 C
HETATM    4  O3  UNL     1       8.107  19.514   4.820  1.00  0.00    -0.339 OA
HETATM    5  C7  UNL     1       7.907  18.135   5.119  1.00  0.00     0.207 C
HETATM    6  C8  UNL     1       6.509  17.821   5.548  1.00  0.00     0.170 C
HETATM    7  O4  UNL     1       5.489  17.695   4.950  1.00  0.00    -0.294 OA
HETATM    8  C9  UNL     1       6.714  17.686   7.089  1.00  0.00     0.059 C
HETATM    9  C10 UNL     1       7.565  18.854   7.203  1.00  0.00    -0.056 C
HETATM   10  C11 UNL     1       8.109  20.008   7.562  1.00  0.00     0.016 C
HETATM   11  C12 UNL     1       9.353  20.552   6.850  1.00  0.00     0.202 C
HETATM   12  O5  UNL     1       9.622  21.837   7.151  1.00  0.00    -0.361 OA
HETATM   13  C13 UNL     1       8.564  17.866   6.452  1.00  0.00     0.060 C
HETATM   14  C14 UNL     1       7.852  16.779   7.105  1.00  0.00     0.040 C
HETATM   15  C15 UNL     1       8.272  16.316   8.475  1.00  0.00     0.093 C
HETATM   16  C23 UNL     1       7.186  16.632   9.520  1.00  0.00     0.064 C
HETATM   17  C24 UNL     1       5.882  16.303   8.888  1.00  0.00     0.068 C
HETATM   18  C25 UNL     1       4.666  16.415   9.733  1.00  0.00     0.016 C
HETATM   19  C26 UNL     1       4.414  15.221  10.617  1.00  0.00     0.013 C
HETATM   20  C27 UNL     1       3.569  16.527   8.664  1.00  0.00     0.008 C
HETATM   21  C28 UNL     1       4.266  17.062   7.404  1.00  0.00     0.010 C
HETATM   22  C29 UNL     1       5.582  17.466   7.916  1.00  0.00     0.041 C
ENDROOT
BRANCH  15  23
HETATM   23  N1  UNL     1       9.571  16.765   8.887  1.00  0.00    -0.356 N
HETATM   24  C16 UNL     1      10.790  16.063   8.548  1.00  0.00     0.218 C
HETATM   25  O6  UNL     1      10.647  15.040   7.873  1.00  0.00    -0.274 OA
ATOM     26  H1  UNL     1       9.638  17.617   9.444  1.00  0.00     0.162 HD
BRANCH  24  27
HETATM   27  C17 UNL     1      12.104  16.528   8.970  1.00  0.00     0.108 C
BRANCH  27  28
HETATM   28  C18 UNL     1      12.376  17.930   8.506  1.00  0.00     0.055 C
BRANCH  28  29
HETATM   29  C19 UNL     1      13.796  18.226   8.228  1.00  0.00    -0.013 C
HETATM   30 BR1  UNL     1      14.196  19.795   7.223  1.00  0.00    -0.056 Br
HETATM   31  C20 UNL     1      14.763  17.454   8.648  1.00  0.00     0.014 C
BRANCH  31  32
HETATM   32  C21 UNL     1      16.196  17.672   8.419  1.00  0.00     0.198 C
BRANCH  32  33
HETATM   33  O7  UNL     1      17.031  17.181   9.382  1.00  0.00    -0.363 OA
BRANCH  33  34
HETATM   34  C22 UNL     1      16.639  15.982   9.924  1.00  0.00     0.334 C
BRANCH  34  35
HETATM   35  O8  UNL     1      16.240  16.069  11.261  1.00  0.00    -0.377 OA
ATOM     36  H8  UNL     1      16.169  15.228  11.697  1.00  0.00     0.212 HD
ENDBRANCH  34  35
ENDBRANCH  33  34
ENDBRANCH  32  33
ENDBRANCH  31  32
ENDBRANCH  28  29
ENDBRANCH  27  28
ENDBRANCH  24  27
ENDBRANCH  15  23
BRANCH  17  37
HETATM   37  O9  UNL     1       5.912  15.082   8.227  1.00  0.00    -0.389 OA
ATOM     38  H9  UNL     1       5.453  14.402   8.705  1.00  0.00     0.210 HD
ENDBRANCH  17  37
BRANCH   1  39
HETATM   39  C2  UNL     1      11.056  23.059   5.623  1.00  0.00     0.041 C
HETATM   40  C1  UNL     1      11.416  22.947   4.353  1.00  0.00     0.029 C
BRANCH  39  41
HETATM   41  C3  UNL     1      11.974  23.665   6.556  1.00  0.00     0.207 C
HETATM   42  O1  UNL     1      13.197  23.270   6.512  1.00  0.00    -0.644 OA
HETATM   43  O2  UNL     1      11.613  24.640   7.492  1.00  0.00    -0.644 OA
ENDBRANCH  39  41
ENDBRANCH   1  39
TORSDOF 11
ENDMDL