MODEL 1
REMARK VINA RESULT: -9.496458956      0.000      0.000
REMARK  10 active torsions:
REMARK  status: ('A' for Active; 'I' for Inactive)
REMARK    1  A    between atoms: C2_2  and  N1_3
REMARK    2  A    between atoms: C2_2  and  C10_14
REMARK       I    between atoms: N1_3  and  C3_5
REMARK       I    between atoms: C3_5  and  N2_7
REMARK    3  A    between atoms: C10_14  and  O3_16
REMARK    4  A    between atoms: O3_16  and  C11_17
REMARK    5  A    between atoms: C14_22  and  N3_23
REMARK       I    between atoms: N3_23  and  C15_25
REMARK    6  A    between atoms: C15_25  and  C16_27
REMARK    7  A    between atoms: C16_27  and  C17_28
REMARK    8  A    between atoms: C16_27  and  N4_37
REMARK    9  A    between atoms: C17_28  and  C18_29
REMARK       I    between atoms: N4_37  and  C25_39
REMARK   10  A    between atoms: C25_39  and  C26_41
ROOT
HETATM    1  N3  UNL     1       7.537  20.412   5.396  1.00  0.00    -0.349 N
ATOM      2  H3  UNL     1       7.248  21.281   5.844  1.00  0.00     0.163 HD
HETATM    3  C15 UNL     1       6.899  19.183   5.710  1.00  0.00     0.240 C
HETATM    4  O6  UNL     1       7.228  18.100   5.188  1.00  0.00    -0.271 OA
ENDROOT
BRANCH   3   5
HETATM    5  C16 UNL     1       5.764  19.139   6.714  1.00  0.00     0.177 C
BRANCH   5   6
HETATM    6  C17 UNL     1       5.384  17.703   6.838  1.00  0.00     0.039 C
BRANCH   6   7
HETATM    7  C18 UNL     1       4.728  17.275   8.093  1.00  0.00    -0.012 C
HETATM    8  C19 UNL     1       3.315  17.811   8.248  1.00  0.00     0.005 C
HETATM    9  C20 UNL     1       2.966  17.805   9.719  1.00  0.00     0.003 C
HETATM   10  C21 UNL     1       2.423  16.478  10.166  1.00  0.00     0.037 C
HETATM   11  C22 UNL     1       3.461  15.484  10.567  1.00  0.00     0.170 C
HETATM   12  F1  UNL     1       3.666  15.558  11.949  1.00  0.00    -0.249 F
HETATM   13  C23 UNL     1       4.800  15.655   9.927  1.00  0.00     0.037 C
HETATM   14  C24 UNL     1       4.714  15.819   8.400  1.00  0.00     0.007 C
ENDBRANCH   6   7
ENDBRANCH   5   6
BRANCH   5  15
HETATM   15  N4  UNL     1       4.655  19.917   6.222  1.00  0.00    -0.347 N
HETATM   16  C25 UNL     1       4.289  21.130   6.833  1.00  0.00     0.224 C
HETATM   17  O7  UNL     1       4.997  21.487   7.841  1.00  0.00    -0.273 OA
ATOM     18  H4  UNL     1       4.125  19.582   5.417  1.00  0.00     0.163 HD
BRANCH  16  19
HETATM   19  C26 UNL     1       3.202  22.022   6.451  1.00  0.00     0.110 C
HETATM   20  C27 UNL     1       3.686  23.334   5.810  1.00  0.00     0.049 C
HETATM   21  C28 UNL     1       2.560  23.533   4.793  1.00  0.00     0.187 C
HETATM   22  C29 UNL     1       1.277  23.643   5.551  1.00  0.00     0.035 C
HETATM   23  N5  UNL     1       2.497  22.162   4.255  1.00  0.00    -0.066 N
HETATM   24  C30 UNL     1       0.863  22.203   5.842  1.00  0.00     0.036 C
HETATM   25  C31 UNL     1       2.176  21.485   5.525  1.00  0.00     0.199 C
ATOM     26  H52 UNL     1       1.866  22.000   3.470  1.00  0.00     0.278 HD
ATOM     27  H51 UNL     1       3.313  21.826   3.743  1.00  0.00     0.278 HD
ENDBRANCH  16  19
ENDBRANCH   5  15
ENDBRANCH   3   5
BRANCH   1  28
HETATM   28  C14 UNL     1       8.609  20.401   4.423  1.00  0.00     0.150 C
HETATM   29  C11 UNL     1       9.964  20.489   4.995  1.00  0.00     0.302 C
HETATM   30  O4  UNL     1      10.752  21.048   3.966  1.00  0.00    -0.287 OA
HETATM   31  C12 UNL     1       9.952  21.914   3.255  1.00  0.00     0.263 C
HETATM   32  O5  UNL     1      10.448  22.786   2.467  1.00  0.00    -0.265 OA
HETATM   33  C13 UNL     1       8.524  21.667   3.551  1.00  0.00     0.141 C
BRANCH  29  34
HETATM   34  O3  UNL     1       9.969  21.444   6.080  1.00  0.00    -0.285 OA
BRANCH  34  35
HETATM   35  C10 UNL     1      10.933  21.335   7.057  1.00  0.00     0.283 C
HETATM   36  O2  UNL     1      11.039  22.243   7.910  1.00  0.00    -0.263 OA
BRANCH  35  37
HETATM   37  C2  UNL     1      11.878  20.199   7.178  1.00  0.00     0.182 C
HETATM   38  C1  UNL     1      13.284  20.702   7.482  1.00  0.00     0.043 C
BRANCH  37  39
HETATM   39  N1  UNL     1      11.421  19.396   8.332  1.00  0.00    -0.330 N
HETATM   40  C3  UNL     1      10.856  18.126   8.154  1.00  0.00     0.319 C
HETATM   41  O1  UNL     1      10.784  17.723   6.935  1.00  0.00    -0.247 OA
HETATM   42  N2  UNL     1      10.368  17.257   9.115  1.00  0.00    -0.330 N
HETATM   43  C4  UNL     1      10.376  17.650  10.530  1.00  0.00     0.128 C
HETATM   44  C8  UNL     1       9.810  15.938   8.888  1.00  0.00     0.085 C
HETATM   45  C5  UNL     1       8.909  17.743  10.918  1.00  0.00     0.020 C
HETATM   46  C6  UNL     1       8.235  16.441  10.675  1.00  0.00     0.004 C
HETATM   47  C7  UNL     1       8.343  15.947   9.258  1.00  0.00     0.025 C
HETATM   48  C9  UNL     1       9.989  15.378   7.532  1.00  0.00     0.032 C
ATOM     49  H1  UNL     1      11.519  19.773   9.275  1.00  0.00     0.165 HD
ENDBRANCH  37  39
ENDBRANCH  35  37
ENDBRANCH  34  35
ENDBRANCH  29  34
ENDBRANCH   1  28
TORSDOF 10
ENDMDL