MODEL 2
REMARK VINA RESULT: -8.353548957      2.480      7.168
REMARK  10 active torsions:
REMARK  status: ('A' for Active; 'I' for Inactive)
REMARK       I    between atoms: C2_2  and  N1_4
REMARK    1  A    between atoms: N1_4  and  C3_6
REMARK    2  A    between atoms: C3_6  and  C4_7
REMARK    3  A    between atoms: C19_30  and  C20_31
REMARK    4  A    between atoms: C20_31  and  C21_32
REMARK    5  A    between atoms: C21_32  and  C22_33
REMARK    6  A    between atoms: C22_33  and  C23_34
REMARK    7  A    between atoms: C23_34  and  C24_35
REMARK    8  A    between atoms: C24_35  and  C25_36
REMARK    9  A    between atoms: C25_36  and  O5_37
REMARK   10  A    between atoms: N4_39  and  O6_41
ROOT
HETATM    1  C4  UNL     1       7.125  17.829   8.648  1.00  0.00     0.231 C
HETATM    2  O2  UNL     1       8.413  17.324   8.654  1.00  0.00    -0.375 OA
HETATM    3  C5  UNL     1       9.082  17.726   9.776  1.00  0.00     0.169 C
HETATM    4  C6  UNL     1      10.332  16.879   9.890  1.00  0.00     0.028 C
HETATM    5  C7  UNL     1      11.469  17.594   9.227  1.00  0.00     0.027 C
HETATM    6  C8  UNL     1      11.424  17.424   7.755  1.00  0.00     0.087 C
HETATM    7  C9  UNL     1      11.745  15.989   7.402  1.00  0.00     0.025 C
HETATM    8  C10 UNL     1      13.089  15.567   7.961  1.00  0.00     0.004 C
HETATM    9  C11 UNL     1      14.133  16.615   7.643  1.00  0.00     0.020 C
HETATM   10  C12 UNL     1      13.571  17.515   6.565  1.00  0.00     0.126 C
HETATM   11  N2  UNL     1      12.435  18.263   7.071  1.00  0.00    -0.345 N
HETATM   12  C13 UNL     1      12.359  19.637   6.898  1.00  0.00     0.259 C
HETATM   13  O3  UNL     1      13.412  20.308   7.179  1.00  0.00    -0.270 OA
HETATM   14  C14 UNL     1      11.219  20.459   6.424  1.00  0.00     0.165 C
HETATM   15  C15 UNL     1      11.691  21.685   5.671  1.00  0.00     0.073 C
HETATM   16  C16 UNL     1      12.093  22.748   6.600  1.00  0.00     0.095 C
HETATM   17 CL1  UNL     1      12.016  24.300   5.674  1.00  0.00    -0.124 Cl
HETATM   18  C17 UNL     1      11.072  22.898   7.699  1.00  0.00     0.097 C
HETATM   19  S1  UNL     1      10.445  21.202   7.854  1.00  0.00    -0.127 SA
HETATM   20  N3  UNL     1      10.355  19.739   5.539  1.00  0.00    -0.333 N
ATOM     21  H3  UNL     1      10.821  19.054   4.946  1.00  0.00     0.164 HD
HETATM   22  C18 UNL     1       8.966  19.833   5.363  1.00  0.00     0.242 C
HETATM   23  O4  UNL     1       8.524  20.078   4.179  1.00  0.00    -0.271 OA
HETATM   24  C19 UNL     1       7.907  19.681   6.379  1.00  0.00     0.178 C
HETATM   25  N5  UNL     1       7.143  18.449   6.177  1.00  0.00    -0.341 N
HETATM   26  C26 UNL     1       6.971  17.852   4.866  1.00  0.00     0.153 C
HETATM   27  C27 UNL     1       6.555  17.818   7.303  1.00  0.00     0.251 C
HETATM   28  O7  UNL     1       5.448  17.193   7.131  1.00  0.00    -0.270 OA
ENDROOT
BRANCH  24  29
HETATM   29  C20 UNL     1       6.949  20.803   6.516  1.00  0.00     0.035 C
BRANCH  29  30
HETATM   30  C21 UNL     1       5.831  20.655   7.482  1.00  0.00     0.002 C
BRANCH  30  31
HETATM   31  C22 UNL     1       4.542  21.069   6.733  1.00  0.00     0.001 C
BRANCH  31  32
HETATM   32  C23 UNL     1       3.453  20.062   7.080  1.00  0.00     0.008 C
BRANCH  32  33
HETATM   33  C24 UNL     1       3.593  19.727   8.550  1.00  0.00     0.086 C
BRANCH  33  34
HETATM   34  C25 UNL     1       2.517  18.807   8.948  1.00  0.00     0.135 C
HETATM   35  N4  UNL     1       2.763  17.710   9.532  1.00  0.00    -0.251 N
ATOM     36  H4  UNL     1       3.746  17.504   9.709  1.00  0.00     0.196 HD
BRANCH  34  37
HETATM   37  O5  UNL     1       1.202  19.169   8.667  1.00  0.00    -0.348 OA
ATOM     38  H5  UNL     1       0.604  18.494   8.368  1.00  0.00     0.219 HD
ENDBRANCH  34  37
BRANCH  35  39
HETATM   39  O6  UNL     1       1.869  16.781   9.947  1.00  0.00    -0.288 OA
ATOM     40  H6  UNL     1       1.897  15.843   9.793  1.00  0.00     0.244 HD
ENDBRANCH  35  39
ENDBRANCH  33  34
ENDBRANCH  32  33
ENDBRANCH  31  32
ENDBRANCH  30  31
ENDBRANCH  29  30
ENDBRANCH  24  29
BRANCH   1  41
HETATM   41  C3  UNL     1       6.329  16.966   9.603  1.00  0.00     0.164 C
BRANCH  41  42
HETATM   42  N1  UNL     1       6.353  15.614   9.130  1.00  0.00    -0.358 N
HETATM   43  C2  UNL     1       5.288  14.700   9.331  1.00  0.00     0.213 C
HETATM   44  C1  UNL     1       5.240  13.305   8.890  1.00  0.00     0.117 C
HETATM   45  O1  UNL     1       4.269  15.158   9.970  1.00  0.00    -0.274 OA
ATOM     46  H1  UNL     1       7.178  15.292   8.624  1.00  0.00     0.162 HD
ENDBRANCH  41  42
ENDBRANCH   1  41
TORSDOF 10
ENDMDL