MODEL 3
REMARK VINA RESULT: -8.142418850      2.334      3.043
REMARK  6 active torsions:
REMARK  status: ('A' for Active; 'I' for Inactive)
REMARK    1  A    between atoms: C2_2  and  C11_20
REMARK    2  A    between atoms: N1_3  and  N2_5
REMARK    3  A    between atoms: N2_5  and  C3_7
REMARK    4  A    between atoms: C3_7  and  N3_9
REMARK    5  A    between atoms: N3_9  and  C4_11
REMARK    6  A    between atoms: C4_11  and  C6_13
REMARK       I    between atoms: C6_13  and  N4_15
ROOT
HETATM    1  N2  UNL     1      19.214   2.054  39.199  1.00  0.00    -0.276 N
ATOM      2  H2  UNL     1      19.981   2.724  39.136  1.00  0.00     0.189 HD
ENDROOT
BRANCH   1   3
HETATM    3  N1  UNL     1      19.469   0.813  39.758  1.00  0.00    -0.299 N
HETATM    4  C2  UNL     1      20.196  -0.045  39.148  1.00  0.00     0.067 C
HETATM    5  C1  UNL     1      20.788   0.264  37.822  1.00  0.00     0.074 C
ATOM      6  H1  UNL     1      19.073   0.581  40.668  1.00  0.00     0.186 HD
BRANCH   4   7
HETATM    7  C11 UNL     1      20.445  -1.358  39.777  1.00  0.00     0.144 A
HETATM    8  N5  UNL     1      21.357  -1.637  40.716  1.00  0.00    -0.335 N
HETATM    9  C12 UNL     1      21.296  -2.949  41.052  1.00  0.00     0.199 A
ATOM     10  H5  UNL     1      22.005  -0.961  41.120  1.00  0.00     0.168 HD
HETATM   11  N6  UNL     1      20.317  -3.476  40.291  1.00  0.00    -0.295 N
HETATM   12  N7  UNL     1      19.802  -2.510  39.519  1.00  0.00    -0.283 N
ATOM     13  H6  UNL     1      20.016  -4.450  40.302  1.00  0.00     0.187 HD
ATOM     14  H7  UNL     1      19.045  -2.628  38.845  1.00  0.00     0.188 HD
ENDBRANCH   4   7
ENDBRANCH   1   3
BRANCH   1  15
HETATM   15  C3  UNL     1      17.937   2.440  38.710  1.00  0.00     0.187 C
HETATM   16  S1  UNL     1      17.792   2.625  37.091  1.00  0.00    -0.040 SA
BRANCH  15  17
HETATM   17  N3  UNL     1      16.866   2.641  39.607  1.00  0.00    -0.353 N
ATOM     18  H3  UNL     1      16.896   2.160  40.505  1.00  0.00     0.162 HD
BRANCH  17  19
HETATM   19  C4  UNL     1      15.729   3.489  39.327  1.00  0.00     0.172 C
HETATM   20  C5  UNL     1      15.833   4.823  40.029  1.00  0.00     0.042 C
BRANCH  19  21
HETATM   21  C6  UNL     1      14.485   2.759  39.590  1.00  0.00     0.242 C
HETATM   22  O1  UNL     1      14.236   2.379  40.781  1.00  0.00    -0.271 OA
HETATM   23  N4  UNL     1      13.501   2.423  38.606  1.00  0.00    -0.350 N
HETATM   24  C7  UNL     1      12.262   1.706  38.809  1.00  0.00     0.126 C
HETATM   25  C10 UNL     1      13.619   2.761  37.205  1.00  0.00     0.126 C
HETATM   26  C8  UNL     1      11.411   2.130  37.641  1.00  0.00     0.021 C
HETATM   27  C9  UNL     1      12.439   2.087  36.522  1.00  0.00     0.021 C
ENDBRANCH  19  21
ENDBRANCH  17  19
ENDBRANCH  15  17
ENDBRANCH   1  15
TORSDOF 6
ENDMDL