MODEL 2
REMARK VINA RESULT: -7.911039369      0.944      1.010
REMARK  6 active torsions:
REMARK  status: ('A' for Active; 'I' for Inactive)
REMARK    1  A    between atoms: C2_2  and  N1_3
REMARK    2  A    between atoms: N1_3  and  C3_5
REMARK    3  A    between atoms: C5_10  and  N3_11
REMARK    4  A    between atoms: N4_14  and  C6_15
REMARK    5  A    between atoms: C6_15  and  C7_16
REMARK    6  A    between atoms: C7_16  and  N5_17
ROOT
HETATM    1  C3  UNL     1      20.534  -0.023  40.040  1.00  0.00     0.680 A
HETATM    2  N2  UNL     1      20.750   0.167  38.729  1.00  0.00    -0.168 N
ATOM      3  H2  UNL     1      21.512  -0.255  38.197  1.00  0.00     0.186 HD
HETATM    4  C4  UNL     1      19.812   1.002  38.211  1.00  0.00     0.197 A
HETATM    5  O1  UNL     1      19.580   1.495  37.018  1.00  0.00    -0.259 OA
HETATM    6  C5  UNL     1      18.555   2.319  36.791  1.00  0.00     0.227 A
HETATM    7  N4  UNL     1      17.712   2.685  37.761  1.00  0.00    -0.296 N
HETATM    8  C13 UNL     1      17.927   2.194  38.992  1.00  0.00     0.136 A
HETATM    9  N7  UNL     1      17.149   2.510  39.972  1.00  0.00    -0.383 N
ATOM     10  H71 UNL     1      17.312   2.137  40.908  1.00  0.00     0.157 HD
ATOM     11  H72 UNL     1      16.371   3.141  39.777  1.00  0.00     0.157 HD
HETATM   12  C14 UNL     1      18.986   1.333  39.259  1.00  0.00     0.144 A
HETATM   13  N8  UNL     1      19.437   0.705  40.355  1.00  0.00    -0.184 N
ATOM     14  H8  UNL     1      19.018   0.767  41.284  1.00  0.00     0.184 HD
ENDROOT
BRANCH   7  15
HETATM   15  C6  UNL     1      16.623   3.596  37.499  1.00  0.00     0.153 C
BRANCH  15  16
HETATM   16  C7  UNL     1      15.289   2.923  37.519  1.00  0.00     0.137 C
BRANCH  16  17
HETATM   17  N5  UNL     1      14.328   3.801  38.146  1.00  0.00    -0.408 N
HETATM   18  C8  UNL     1      14.312   3.725  39.561  1.00  0.00     0.136 C
HETATM   19  C9  UNL     1      12.997   3.458  40.200  1.00  0.00     0.135 C
HETATM   20  N6  UNL     1      12.210   2.588  39.407  1.00  0.00    -0.414 N
HETATM   21  C10 UNL     1      12.357   1.201  39.715  1.00  0.00     0.143 C
HETATM   22  C11 UNL     1      12.045   2.907  38.036  1.00  0.00     0.135 C
HETATM   23  C12 UNL     1      13.068   3.834  37.479  1.00  0.00     0.136 C
ENDBRANCH  16  17
ENDBRANCH  15  16
ENDBRANCH   7  15
BRANCH   6  24
HETATM   24  N3  UNL     1      18.371   2.774  35.605  1.00  0.00    -0.365 N
ATOM     25  H32 UNL     1      18.667   3.726  35.391  1.00  0.00     0.159 HD
ATOM     26  H31 UNL     1      17.931   2.174  34.907  1.00  0.00     0.159 HD
ENDBRANCH   6  24
BRANCH   1  27
HETATM   27  N1  UNL     1      21.247  -0.757  40.839  1.00  0.00    -0.226 N
ATOM     28  H1  UNL     1      21.676  -0.319  41.655  1.00  0.00     0.177 HD
BRANCH  27  29
HETATM   29  C2  UNL     1      21.456  -2.158  40.620  1.00  0.00     0.133 C
HETATM   30  C1  UNL     1      20.135  -2.917  40.449  1.00  0.00     0.027 C
ENDBRANCH  27  29
ENDBRANCH   1  27
TORSDOF 6
ENDMDL