MODEL 3
REMARK VINA RESULT: -8.347655702      3.100      7.172
REMARK  5 active torsions:
REMARK  status: ('A' for Active; 'I' for Inactive)
REMARK    1  A    between atoms: C4_8  and  C5_9
REMARK    2  A    between atoms: C5_9  and  C6_10
REMARK    3  A    between atoms: C6_10  and  N3_11
REMARK    4  A    between atoms: C8_16  and  N5_17
REMARK    5  A    between atoms: C13_25  and  N7_26
ROOT
HETATM    1  N3  UNL     1      18.356   2.212  39.705  1.00  0.00    -0.225 N
ATOM      2  H3  UNL     1      17.908   2.071  40.611  1.00  0.00     0.177 HD
HETATM    3  C7  UNL     1      17.575   2.478  38.734  1.00  0.00     0.707 A
HETATM    4  N4  UNL     1      16.220   2.560  38.941  1.00  0.00    -0.021 N
ATOM      5  H4  UNL     1      15.868   2.398  39.884  1.00  0.00     0.203 HD
HETATM    6  C8  UNL     1      15.337   2.837  37.979  1.00  0.00     0.709 A
HETATM    7  N6  UNL     1      15.853   3.044  36.731  1.00  0.00    -0.022 N
ATOM      8  H6  UNL     1      15.223   3.260  35.959  1.00  0.00     0.203 HD
HETATM    9  C13 UNL     1      17.168   2.970  36.504  1.00  0.00     0.705 A
HETATM   10  N8  UNL     1      18.044   2.687  37.497  1.00  0.00    -0.022 N
ATOM     11  H8  UNL     1      19.044   2.635  37.306  1.00  0.00     0.203 HD
ENDROOT
BRANCH   1  12
HETATM   12  C6  UNL     1      19.754   2.088  39.687  1.00  0.00     0.144 C
BRANCH  12  13
HETATM   13  C5  UNL     1      20.231   0.658  39.425  1.00  0.00     0.079 C
BRANCH  13  14
HETATM   14  C4  UNL     1      19.512  -0.164  40.466  1.00  0.00     0.034 A
HETATM   15  C2  UNL     1      19.371  -1.536  40.525  1.00  0.00     0.029 A
HETATM   16  C1  UNL     1      19.913  -2.491  39.526  1.00  0.00     0.070 C
HETATM   17  N1  UNL     1      18.661  -1.882  41.626  1.00  0.00    -0.354 N
HETATM   18  C3  UNL     1      18.357  -0.753  42.254  1.00  0.00     0.180 A
ATOM     19  H1  UNL     1      18.410  -2.827  41.916  1.00  0.00     0.166 HD
HETATM   20  N2  UNL     1      18.869   0.294  41.557  1.00  0.00    -0.354 N
ATOM     21  H2  UNL     1      18.781   1.276  41.819  1.00  0.00     0.166 HD
ENDBRANCH  13  14
ENDBRANCH  12  13
ENDBRANCH   1  12
BRANCH   6  22
HETATM   22  N5  UNL     1      13.936   2.904  38.204  1.00  0.00    -0.213 N
HETATM   23  C9  UNL     1      13.054   2.499  37.148  1.00  0.00     0.167 C
HETATM   24  C10 UNL     1      11.610   2.503  37.469  1.00  0.00     0.188 C
HETATM   25  O1  UNL     1      11.241   2.989  38.693  1.00  0.00    -0.388 OA
HETATM   26  C11 UNL     1      12.056   2.672  39.747  1.00  0.00     0.188 C
HETATM   27  C12 UNL     1      13.401   3.359  39.453  1.00  0.00     0.167 C
ENDBRANCH   6  22
BRANCH   9  28
HETATM   28  N7  UNL     1      17.662   3.166  35.332  1.00  0.00    -0.234 N
ATOM     29  H72 UNL     1      17.686   4.128  34.997  1.00  0.00     0.174 HD
ATOM     30  H71 UNL     1      18.011   2.394  34.764  1.00  0.00     0.174 HD
ENDBRANCH   9  28
TORSDOF 5
ENDMDL