MODEL 5
REMARK VINA RESULT: -4.318509960      4.388      7.074
REMARK  5 active torsions:
REMARK  status: ('A' for Active; 'I' for Inactive)
REMARK    1  A    between atoms: S1_2  and  C2_3
REMARK    2  A    between atoms: C2_3  and  C3_4
REMARK    3  A    between atoms: N3_17  and  C10_18
REMARK    4  A    between atoms: C10_18  and  C11_19
REMARK    5  A    between atoms: C11_19  and  N4_20
ROOT
HETATM    1  C3  UNL     1      19.200   0.109  40.298  1.00  0.00     0.046 C
HETATM    2  C4  UNL     1      20.712  -0.053  40.182  1.00  0.00     0.239 C
HETATM    3  N1  UNL     1      21.078  -1.372  39.703  1.00  0.00    -0.075 N
ATOM      4  H11 UNL     1      21.669  -1.308  38.874  1.00  0.00     0.277 HD
ATOM      5  H12 UNL     1      20.272  -1.848  39.296  1.00  0.00     0.277 HD
HETATM    6  C5  UNL     1      21.702  -2.189  40.723  1.00  0.00     0.233 C
HETATM    7  C6  UNL     1      21.263  -3.625  40.447  1.00  0.00     0.055 C
HETATM    8  C7  UNL     1      21.615  -4.556  41.579  1.00  0.00     0.234 C
HETATM    9  N2  UNL     1      21.258  -3.935  42.833  1.00  0.00    -0.074 N
ATOM     10  H21 UNL     1      20.839  -3.017  42.691  1.00  0.00     0.277 HD
ATOM     11  H22 UNL     1      22.084  -3.650  43.359  1.00  0.00     0.277 HD
HETATM   12  C8  UNL     1      20.387  -4.809  43.628  1.00  0.00     0.252 C
HETATM   13  C9  UNL     1      19.491  -3.963  44.492  1.00  0.00     0.149 C
HETATM   14  N3  UNL     1      18.341  -3.498  43.800  1.00  0.00    -0.389 N
HETATM   15  C12 UNL     1      17.995  -2.146  44.010  1.00  0.00     0.149 C
HETATM   16  C13 UNL     1      17.172  -1.526  42.906  1.00  0.00     0.252 C
HETATM   17  N5  UNL     1      17.904  -1.489  41.637  1.00  0.00    -0.073 N
ATOM     18  H51 UNL     1      17.297  -1.529  40.817  1.00  0.00     0.277 HD
ATOM     19  H52 UNL     1      18.428  -2.343  41.446  1.00  0.00     0.277 HD
HETATM   20  C14 UNL     1      18.736  -0.298  41.681  1.00  0.00     0.239 C
ENDROOT
BRANCH  14  21
HETATM   21  C10 UNL     1      17.320  -4.419  43.526  1.00  0.00     0.085 C
BRANCH  21  22
HETATM   22  C11 UNL     1      16.685  -5.103  44.702  1.00  0.00     0.274 C
BRANCH  22  23
HETATM   23  N4  UNL     1      15.255  -5.094  44.704  1.00  0.00    -0.075 N
ATOM     24  H43 UNL     1      14.908  -4.158  44.915  1.00  0.00     0.274 HD
ATOM     25  H42 UNL     1      14.900  -5.204  43.754  1.00  0.00     0.274 HD
ATOM     26  H41 UNL     1      14.822  -5.779  45.324  1.00  0.00     0.274 HD
ENDBRANCH  22  23
ENDBRANCH  21  22
ENDBRANCH  14  21
BRANCH   1  27
HETATM   27  C2  UNL     1      18.798   1.535  40.080  1.00  0.00     0.081 C
BRANCH  27  28
HETATM   28  S1  UNL     1      19.245   2.171  38.467  1.00  0.00    -0.173 SA
HETATM   29  C1  UNL     1      17.730   2.742  37.642  1.00  0.00     0.089 C
ENDBRANCH  27  28
ENDBRANCH   1  27
TORSDOF 5
ENDMDL