MODEL 4
REMARK VINA RESULT: -8.130170804      3.001      6.137
REMARK  9 active torsions:
REMARK  status: ('A' for Active; 'I' for Inactive)
REMARK    1  A    between atoms: C2_2  and  C4_4
REMARK    2  A    between atoms: C5_5  and  C6_6
REMARK    3  A    between atoms: C6_6  and  O1_10
REMARK    4  A    between atoms: O1_10  and  C7_11
REMARK    5  A    between atoms: C7_11  and  C8_12
REMARK    6  A    between atoms: C7_11  and  C9_15
REMARK    7  A    between atoms: C8_12  and  O2_13
REMARK    8  A    between atoms: C9_15  and  N2_16
REMARK    9  A    between atoms: N3_21  and  N4_23
ROOT
HETATM    1  C7  UNL     1      18.963   1.951  38.562  1.00  0.00     0.172 C
ENDROOT
BRANCH   1   2
HETATM    2  O1  UNL     1      19.007   2.750  37.395  1.00  0.00    -0.320 OA
BRANCH   2   3
HETATM    3  C6  UNL     1      18.008   2.709  36.436  1.00  0.00     0.193 C
HETATM    4  N1  UNL     1      18.428   2.674  35.204  1.00  0.00    -0.373 N
ATOM      5  H12 UNL     1      17.692   2.644  34.498  1.00  0.00     0.158 HD
ATOM      6  H11 UNL     1      19.421   2.677  34.974  1.00  0.00     0.158 HD
BRANCH   3   7
HETATM    7  C5  UNL     1      16.605   2.705  36.761  1.00  0.00    -0.023 C
HETATM    8  C4  UNL     1      15.435   2.690  37.050  1.00  0.00    -0.093 C
BRANCH   8   9
HETATM    9  C2  UNL     1      14.036   2.657  37.416  1.00  0.00     0.057 C
HETATM   10  C1  UNL     1      13.588   4.011  37.870  1.00  0.00     0.023 C
HETATM   11  C3  UNL     1      13.188   2.203  36.233  1.00  0.00     0.023 C
ENDBRANCH   8   9
ENDBRANCH   3   7
ENDBRANCH   2   3
ENDBRANCH   1   2
BRANCH   1  12
HETATM   12  C8  UNL     1      18.207   2.641  39.641  1.00  0.00     0.198 C
BRANCH  12  13
HETATM   13  O2  UNL     1      17.242   1.761  40.182  1.00  0.00    -0.398 OA
ATOM     14  H2  UNL     1      16.426   2.227  40.317  1.00  0.00     0.209 HD
ENDBRANCH  12  13
ENDBRANCH   1  12
BRANCH   1  15
HETATM   15  C9  UNL     1      20.312   1.430  38.947  1.00  0.00     0.161 C
BRANCH  15  16
HETATM   16  N2  UNL     1      20.373   0.042  39.269  1.00  0.00    -0.342 N
HETATM   17  C10 UNL     1      20.856  -1.039  38.439  1.00  0.00     0.153 C
HETATM   18  C11 UNL     1      21.282  -2.077  39.456  1.00  0.00     0.199 C
HETATM   19  O3  UNL     1      20.270  -1.904  40.461  1.00  0.00    -0.319 OA
HETATM   20  C12 UNL     1      19.960  -0.541  40.496  1.00  0.00     0.236 C
HETATM   21  N3  UNL     1      19.394   0.004  41.517  1.00  0.00    -0.263 N
ATOM     22  H3  UNL     1      19.195   1.004  41.478  1.00  0.00     0.190 HD
BRANCH  21  23
HETATM   23  N4  UNL     1      19.039  -0.683  42.661  1.00  0.00    -0.273 N
HETATM   24  C13 UNL     1      17.841  -0.845  43.078  1.00  0.00     0.215 C
HETATM   25  N5  UNL     1      17.540  -1.565  44.264  1.00  0.00    -0.065 NA
HETATM   26  N6  UNL     1      16.721  -0.302  42.362  1.00  0.00    -0.065 NA
ATOM     27  H4  UNL     1      19.790  -1.094  43.216  1.00  0.00     0.189 HD
ENDBRANCH  21  23
ENDBRANCH  15  16
ENDBRANCH   1  15
TORSDOF 9
ENDMDL