MODEL 5
REMARK VINA RESULT: -7.408335258      1.553      2.133
REMARK  5 active torsions:
REMARK  status: ('A' for Active; 'I' for Inactive)
REMARK    1  A    between atoms: S1_2  and  C2_3
REMARK    2  A    between atoms: C3_6  and  N2_7
REMARK    3  A    between atoms: N2_7  and  C4_9
REMARK       I    between atoms: N3_12  and  C7_13
REMARK    4  A    between atoms: C9_21  and  N7_22
REMARK    5  A    between atoms: N7_22  and  C10_24
ROOT
HETATM    1  C2  UNL     1      18.171   2.440  37.466  1.00  0.00     0.174 A
HETATM    2  N1  UNL     1      17.254   3.255  38.005  1.00  0.00    -0.169 N
ATOM      3  H1  UNL     1      16.645   3.791  37.387  1.00  0.00     0.186 HD
HETATM    4  C3  UNL     1      17.110   3.390  39.361  1.00  0.00     0.695 A
HETATM    5  N6  UNL     1      17.945   2.654  40.111  1.00  0.00    -0.022 N
ATOM      6  H6  UNL     1      17.872   2.723  41.126  1.00  0.00     0.203 HD
HETATM    7  C9  UNL     1      18.869   1.833  39.594  1.00  0.00     0.695 A
HETATM    8  N8  UNL     1      18.978   1.729  38.264  1.00  0.00    -0.169 N
ATOM      9  H8  UNL     1      19.676   1.107  37.857  1.00  0.00     0.186 HD
ENDROOT
BRANCH   4  10
HETATM   10  N2  UNL     1      16.215   4.184  39.837  1.00  0.00    -0.219 N
ATOM     11  H2  UNL     1      16.498   4.984  40.403  1.00  0.00     0.178 HD
BRANCH  10  12
HETATM   12  C4  UNL     1      14.843   3.956  39.580  1.00  0.00     0.119 C
HETATM   13  C5  UNL     1      14.382   2.657  40.258  1.00  0.00     0.047 C
HETATM   14  C6  UNL     1      13.019   2.509  39.617  1.00  0.00     0.127 C
HETATM   15  N3  UNL     1      13.323   2.826  38.228  1.00  0.00    -0.354 N
HETATM   16  C7  UNL     1      12.464   2.414  37.158  1.00  0.00     0.184 C
HETATM   17  C8  UNL     1      14.561   3.578  38.135  1.00  0.00     0.151 C
HETATM   18  N4  UNL     1      12.966   1.974  36.039  1.00  0.00    -0.374 N
HETATM   19  N5  UNL     1      11.069   2.497  37.346  1.00  0.00    -0.064 NA
ATOM     20  H42 UNL     1      13.975   1.914  35.904  1.00  0.00     0.158 HD
ATOM     21  H41 UNL     1      12.355   1.681  35.277  1.00  0.00     0.158 HD
ENDBRANCH  10  12
ENDBRANCH   4  10
BRANCH   1  22
HETATM   22  S1  UNL     1      18.341   2.281  35.687  1.00  0.00    -0.097 SA
HETATM   23  C1  UNL     1      19.636   1.069  35.362  1.00  0.00     0.099 C
ENDBRANCH   1  22
BRANCH   7  24
HETATM   24  N7  UNL     1      19.668   1.128  40.320  1.00  0.00    -0.222 N
ATOM     25  H7  UNL     1      20.468   1.592  40.751  1.00  0.00     0.178 HD
BRANCH  24  26
HETATM   26  C10 UNL     1      19.487  -0.287  40.554  1.00  0.00     0.091 C
HETATM   27  C11 UNL     1      20.796  -1.028  40.712  1.00  0.00     0.032 C
HETATM   28  C12 UNL     1      18.665  -0.419  41.819  1.00  0.00     0.032 C
ENDBRANCH  24  26
ENDBRANCH   7  24
TORSDOF 5
ENDMDL