MODEL 2
REMARK VINA RESULT: -7.611616000      4.012      6.738
REMARK  5 active torsions:
REMARK  status: ('A' for Active; 'I' for Inactive)
REMARK    1  A    between atoms: C2_2  and  C3_3
REMARK    2  A    between atoms: N1_4  and  C4_6
REMARK    3  A    between atoms: C7_11  and  N3_12
REMARK    4  A    between atoms: C8_15  and  N4_16
REMARK    5  A    between atoms: N4_16  and  N5_18
ROOT
HETATM    1  C4  UNL     1      17.707   2.552  39.180  1.00  0.00     0.683 A
HETATM    2  N2  UNL     1      17.878   2.473  37.868  1.00  0.00    -0.193 N
ATOM      3  H2  UNL     1      17.204   2.968  37.284  1.00  0.00     0.184 HD
HETATM    4  C5  UNL     1      18.864   1.797  37.227  1.00  0.00     0.059 A
HETATM    5  C6  UNL     1      18.966   1.774  35.743  1.00  0.00     0.071 C
HETATM    6  C7  UNL     1      19.780   1.124  38.000  1.00  0.00     0.171 A
HETATM    7  C8  UNL     1      19.656   1.168  39.373  1.00  0.00     0.170 A
HETATM    8  N8  UNL     1      18.664   1.852  39.912  1.00  0.00    -0.173 N
ATOM      9  H8  UNL     1      18.594   1.870  40.930  1.00  0.00     0.186 HD
ENDROOT
BRANCH   7  10
HETATM   10  N4  UNL     1      20.541   0.520  40.038  1.00  0.00    -0.285 N
ATOM     11  H4  UNL     1      21.509   0.815  39.907  1.00  0.00     0.188 HD
BRANCH  10  12
HETATM   12  N5  UNL     1      20.334  -0.525  40.907  1.00  0.00    -0.323 N
HETATM   13  C9  UNL     1      21.214  -1.659  40.707  1.00  0.00     0.160 C
HETATM   14  C10 UNL     1      20.325  -2.882  40.465  1.00  0.00     0.155 C
HETATM   15  N6  UNL     1      19.101  -2.394  39.848  1.00  0.00    -0.144 NA
HETATM   16  N7  UNL     1      18.101  -2.267  40.790  1.00  0.00    -0.338 N
HETATM   17  C11 UNL     1      17.982  -0.979  41.399  1.00  0.00     0.156 C
ATOM     18  H7  UNL     1      17.487  -3.043  41.036  1.00  0.00     0.175 HD
HETATM   19  C12 UNL     1      19.298  -0.436  41.920  1.00  0.00     0.163 C
ENDBRANCH  10  12
ENDBRANCH   7  10
BRANCH   6  20
HETATM   20  N3  UNL     1      20.834   0.401  37.359  1.00  0.00    -0.110 N
HETATM   21  O1  UNL     1      20.751  -0.851  37.368  1.00  0.00    -0.532 OA
HETATM   22  O2  UNL     1      21.897   1.021  36.757  1.00  0.00    -0.532 OA
ENDBRANCH   6  20
BRANCH   1  23
HETATM   23  N1  UNL     1      16.821   3.160  39.806  1.00  0.00    -0.205 N
HETATM   24  C3  UNL     1      15.701   3.889  39.587  1.00  0.00     0.078 C
ATOM     25  H1  UNL     1      16.994   3.085  40.809  1.00  0.00     0.183 HD
BRANCH  24  26
HETATM   26  C2  UNL     1      15.171   4.114  38.196  1.00  0.00     0.040 C
HETATM   27  C1  UNL     1      14.251   2.934  37.819  1.00  0.00     0.010 C
ENDBRANCH  24  26
ENDBRANCH   1  23
TORSDOF 5
ENDMDL