MODEL 4
REMARK VINA RESULT: -8.041710985      2.233      7.172
REMARK  5 active torsions:
REMARK  status: ('A' for Active; 'I' for Inactive)
REMARK    1  A    between atoms: C5_8  and  N2_9
REMARK    2  A    between atoms: N2_9  and  C6_12
REMARK    3  A    between atoms: C6_12  and  C7_13
REMARK    4  A    between atoms: C7_13  and  N3_16
REMARK    5  A    between atoms: N3_16  and  C10_18
ROOT
HETATM    1  C7  UNL     1      20.331   1.218  37.805  1.00  0.00     0.048 C
HETATM    2  C8  UNL     1      20.771   2.147  38.908  1.00  0.00     0.039 C
HETATM    3  C9  UNL     1      21.489   1.000  36.885  1.00  0.00     0.039 C
ENDROOT
BRANCH   1   4
HETATM    4  C6  UNL     1      19.136   1.827  37.097  1.00  0.00     0.263 C
BRANCH   4   5
HETATM    5  N2  UNL     1      18.505   2.916  37.696  1.00  0.00    -0.065 N
ATOM      6  H22 UNL     1      18.562   3.737  37.094  1.00  0.00     0.277 HD
ATOM      7  H21 UNL     1      19.046   3.249  38.494  1.00  0.00     0.277 HD
BRANCH   5   8
HETATM    8  C5  UNL     1      17.121   2.660  38.086  1.00  0.00     0.235 C
HETATM    9  C4  UNL     1      16.225   3.193  37.025  1.00  0.00     0.267 C
HETATM   10  N1  UNL     1      14.868   2.694  37.040  1.00  0.00    -0.071 N
HETATM   11  C3  UNL     1      14.123   3.511  37.980  1.00  0.00     0.263 C
ATOM     12  H12 UNL     1      14.811   1.696  37.245  1.00  0.00     0.277 HD
ATOM     13  H11 UNL     1      14.444   2.663  36.113  1.00  0.00     0.277 HD
HETATM   14  C2  UNL     1      14.583   3.041  39.365  1.00  0.00     0.143 C
HETATM   15  C1  UNL     1      13.405   3.182  40.298  1.00  0.00     0.041 C
HETATM   16  O1  UNL     1      15.684   3.783  39.693  1.00  0.00    -0.382 OA
HETATM   17  C16 UNL     1      16.905   3.158  39.467  1.00  0.00     0.203 C
ENDBRANCH   5   8
ENDBRANCH   4   5
ENDBRANCH   1   4
BRANCH   1  18
HETATM   18  N3  UNL     1      19.800  -0.032  38.332  1.00  0.00    -0.370 N
ATOM     19  H3  UNL     1      18.992  -0.417  37.844  1.00  0.00     0.161 HD
BRANCH  18  20
HETATM   20  C10 UNL     1      20.259  -0.761  39.415  1.00  0.00     0.073 C
HETATM   21  N4  UNL     1      21.265  -1.573  39.193  1.00  0.00    -0.378 N
HETATM   22  C11 UNL     1      21.992  -2.477  40.072  1.00  0.00     0.156 C
ATOM     23  H4  UNL     1      21.597  -1.571  38.229  1.00  0.00     0.160 HD
HETATM   24  C12 UNL     1      21.033  -2.838  41.175  1.00  0.00     0.234 A
HETATM   25  N5  UNL     1      20.259  -4.011  41.206  1.00  0.00    -0.061 N
HETATM   26  C13 UNL     1      19.667  -2.954  40.493  1.00  0.00     0.219 A
ATOM     27  H52 UNL     1      20.473  -4.973  40.939  1.00  0.00     0.278 HD
ATOM     28  H51 UNL     1      19.919  -4.579  41.983  1.00  0.00     0.278 HD
HETATM   29  C14 UNL     1      18.824  -1.869  41.103  1.00  0.00     0.042 C
HETATM   30  C15 UNL     1      19.559  -0.569  40.706  1.00  0.00     0.078 C
ENDBRANCH  18  20
ENDBRANCH   1  18
TORSDOF 5
ENDMDL