MODEL 1
REMARK VINA RESULT: -6.664812185      0.000      0.000
REMARK  5 active torsions:
REMARK  status: ('A' for Active; 'I' for Inactive)
REMARK    1  A    between atoms: C2_2  and  N1_3
REMARK       I    between atoms: C3_5  and  N2_6
REMARK       I    between atoms: C3_5  and  N7_22
REMARK    2  A    between atoms: C5_11  and  N4_12
REMARK    3  A    between atoms: N7_22  and  C10_24
REMARK    4  A    between atoms: C10_24  and  C13_27
REMARK    5  A    between atoms: C13_27  and  O2_28
ROOT
HETATM    1  N1  UNL     1      20.100  -4.490  42.825  1.00  0.00    -0.227 N
ATOM      2  H1  UNL     1      19.881  -4.816  43.767  1.00  0.00     0.177 HD
HETATM    3  C3  UNL     1      19.165  -4.110  42.047  1.00  0.00     0.677 C
HETATM    4  N2  UNL     1      19.473  -3.662  40.747  1.00  0.00    -0.153 N
ATOM      5  H2  UNL     1      19.500  -4.316  39.965  1.00  0.00     0.188 HD
HETATM    6  C4  UNL     1      19.721  -2.417  40.567  1.00  0.00     0.276 A
HETATM    7  N3  UNL     1      20.039  -1.790  39.394  1.00  0.00    -0.151 N
ATOM      8  H3  UNL     1      20.123  -2.244  38.485  1.00  0.00     0.188 HD
HETATM    9  C5  UNL     1      20.222  -0.489  39.630  1.00  0.00     0.704 A
HETATM   10  N6  UNL     1      20.021  -0.309  40.933  1.00  0.00    -0.088 N
ATOM     11  H6  UNL     1      20.086   0.579  41.430  1.00  0.00     0.214 HD
HETATM   12  O1  UNL     1      19.725  -1.467  41.468  1.00  0.00    -0.185 OA
HETATM   13  N7  UNL     1      17.819  -4.132  42.472  1.00  0.00    -0.216 N
ATOM     14  H7  UNL     1      17.084  -3.833  41.831  1.00  0.00     0.178 HD
ENDROOT
BRANCH   1  15
HETATM   15  C2  UNL     1      21.472  -4.458  42.369  1.00  0.00     0.133 C
HETATM   16  C1  UNL     1      22.213  -5.578  43.036  1.00  0.00     0.027 C
ENDBRANCH   1  15
BRANCH  13  17
HETATM   17  C10 UNL     1      17.470  -4.575  43.803  1.00  0.00     0.061 C
HETATM   18  C11 UNL     1      17.346  -3.383  44.753  1.00  0.00     0.041 C
HETATM   19  C12 UNL     1      18.467  -5.590  44.344  1.00  0.00     0.041 C
BRANCH  17  20
HETATM   20  C13 UNL     1      16.116  -5.240  43.778  1.00  0.00     0.194 C
BRANCH  20  21
HETATM   21  O2  UNL     1      15.169  -4.493  44.457  1.00  0.00    -0.398 OA
ATOM     22  H2  UNL     1      14.596  -5.044  44.977  1.00  0.00     0.209 HD
ENDBRANCH  20  21
ENDBRANCH  17  20
ENDBRANCH  13  17
BRANCH   9  23
HETATM   23  N4  UNL     1      20.560   0.492  38.680  1.00  0.00    -0.210 N
HETATM   24  C6  UNL     1      20.861   0.175  37.293  1.00  0.00     0.161 C
HETATM   25  C7  UNL     1      20.230   1.138  36.338  1.00  0.00     0.139 C
HETATM   26  N5  UNL     1      19.362   2.100  36.910  1.00  0.00    -0.399 N
HETATM   27  C8  UNL     1      19.683   2.644  38.156  1.00  0.00     0.075 C
ATOM     28  H5  UNL     1      18.517   2.391  36.420  1.00  0.00     0.158 HD
HETATM   29  C9  UNL     1      20.639   1.904  39.010  1.00  0.00     0.185 C
ENDBRANCH   9  23
TORSDOF 5
ENDMDL