MODEL 2
REMARK VINA RESULT: -8.178068405      0.957      1.097
REMARK  6 active torsions:
REMARK  status: ('A' for Active; 'I' for Inactive)
REMARK    1  A    between atoms: N1_4  and  C4_5
REMARK    2  A    between atoms: C5_8  and  N3_9
REMARK    3  A    between atoms: N5_16  and  C8_17
REMARK    4  A    between atoms: C8_17  and  C9_18
REMARK    5  A    between atoms: C9_18  and  C10_19
REMARK    6  A    between atoms: C10_19  and  N6_20
ROOT
HETATM    1  C4  UNL     1      15.750   2.793  38.242  1.00  0.00     0.683 A
HETATM    2  N2  UNL     1      16.113   3.026  36.978  1.00  0.00    -0.176 N
ATOM      3  H2  UNL     1      15.398   3.331  36.316  1.00  0.00     0.186 HD
HETATM    4  C5  UNL     1      17.376   2.879  36.531  1.00  0.00     0.124 A
HETATM    5  C6  UNL     1      18.358   2.465  37.424  1.00  0.00     0.030 A
HETATM    6  C7  UNL     1      17.962   2.230  38.722  1.00  0.00     0.129 A
HETATM    7  N4  UNL     1      16.670   2.395  39.121  1.00  0.00    -0.176 N
ATOM      8  H4  UNL     1      16.408   2.214  40.091  1.00  0.00     0.186 HD
HETATM    9  N5  UNL     1      18.973   1.793  39.658  1.00  0.00    -0.366 N
HETATM   10  C11 UNL     1      20.290   2.364  39.468  1.00  0.00     0.124 C
HETATM   11  C12 UNL     1      20.769   2.266  38.065  1.00  0.00     0.025 C
HETATM   12  C13 UNL     1      19.747   2.293  36.995  1.00  0.00     0.048 C
ENDROOT
BRANCH   1  13
HETATM   13  N1  UNL     1      14.416   2.967  38.643  1.00  0.00    -0.214 N
HETATM   14  C3  UNL     1      13.825   2.436  39.857  1.00  0.00     0.173 C
HETATM   15  C2  UNL     1      12.777   3.457  40.281  1.00  0.00     0.200 C
HETATM   16  C1  UNL     1      12.435   3.380  41.729  1.00  0.00     0.041 C
HETATM   17  N7  UNL     1      11.640   3.324  39.416  1.00  0.00    -0.068 N
HETATM   18  C15 UNL     1      12.068   3.195  38.039  1.00  0.00     0.253 C
ATOM     19  H72 UNL     1      11.035   2.554  39.700  1.00  0.00     0.277 HD
ATOM     20  H71 UNL     1      10.978   4.090  39.538  1.00  0.00     0.277 HD
HETATM   21  C14 UNL     1      13.459   3.737  37.820  1.00  0.00     0.168 C
ENDBRANCH   1  13
BRANCH   4  22
HETATM   22  N3  UNL     1      17.691   3.105  35.310  1.00  0.00    -0.385 N
ATOM     23  H32 UNL     1      17.224   2.582  34.568  1.00  0.00     0.157 HD
ATOM     24  H31 UNL     1      18.395   3.798  35.056  1.00  0.00     0.157 HD
ENDBRANCH   4  22
BRANCH   9  25
HETATM   25  C8  UNL     1      18.599   0.880  40.678  1.00  0.00     0.126 C
BRANCH  25  26
HETATM   26  C9  UNL     1      19.544  -0.223  41.029  1.00  0.00     0.047 C
BRANCH  26  27
HETATM   27  C10 UNL     1      19.589  -1.400  40.132  1.00  0.00     0.231 C
BRANCH  27  28
HETATM   28  N6  UNL     1      20.625  -1.269  39.105  1.00  0.00    -0.079 N
ATOM     29  H63 UNL     1      21.243  -0.481  39.301  1.00  0.00     0.274 HD
ATOM     30  H62 UNL     1      21.305  -2.026  39.168  1.00  0.00     0.274 HD
ATOM     31  H61 UNL     1      20.229  -1.204  38.168  1.00  0.00     0.274 HD
ENDBRANCH  27  28
ENDBRANCH  26  27
ENDBRANCH  25  26
ENDBRANCH   9  25
TORSDOF 6
ENDMDL