MODEL 4
REMARK VINA RESULT: -7.488234862      4.246      6.391
REMARK  8 active torsions:
REMARK  status: ('A' for Active; 'I' for Inactive)
REMARK    1  A    between atoms: C1_2  and  C2_4
REMARK    2  A    between atoms: C2_4  and  C3_5
REMARK    3  A    between atoms: C3_5  and  C4_6
REMARK    4  A    between atoms: C4_6  and  N1_7
REMARK    5  A    between atoms: C4_6  and  C20_32
REMARK       I    between atoms: N1_7  and  C5_9
REMARK    6  A    between atoms: C5_9  and  C6_11
REMARK       I    between atoms: N2_15  and  C10_16
REMARK    7  A    between atoms: C10_16  and  C11_18
REMARK       I    between atoms: N3_24  and  C17_25
REMARK    8  A    between atoms: C17_25  and  C18_27
ROOT
HETATM    1  C6  UNL     1       8.886  62.494   2.534  1.00  0.00     0.096 C
HETATM    2  C7  UNL     1       8.317  61.207   2.023  1.00  0.00     0.017 C
HETATM    3  C8  UNL     1       6.967  60.919   2.590  1.00  0.00     0.021 C
HETATM    4  C9  UNL     1       6.522  61.920   3.636  1.00  0.00     0.126 C
HETATM    5  N2  UNL     1       6.766  63.274   3.246  1.00  0.00    -0.351 N
HETATM    6  C10 UNL     1       5.978  64.319   3.768  1.00  0.00     0.224 C
HETATM    7  O4  UNL     1       6.214  65.517   3.394  1.00  0.00    -0.273 OA
HETATM    8  C19 UNL     1       7.820  63.574   2.314  1.00  0.00     0.139 C
ENDROOT
BRANCH   6   9
HETATM    9  C11 UNL     1       4.872  64.097   4.742  1.00  0.00     0.080 C
HETATM   10  C12 UNL     1       3.567  63.946   3.986  1.00  0.00     0.016 C
HETATM   11  C13 UNL     1       2.410  63.788   4.959  1.00  0.00     0.028 C
HETATM   12  C14 UNL     1       2.282  65.077   5.699  1.00  0.00     0.111 A
HETATM   13  C15 UNL     1       3.461  65.817   5.928  1.00  0.00     0.111 A
HETATM   14  N3  UNL     1       2.689  65.191   7.058  1.00  0.00    -0.334 N
HETATM   15  C16 UNL     1       4.806  65.227   5.739  1.00  0.00     0.041 C
HETATM   16  C17 UNL     1       2.555  64.963   8.439  1.00  0.00     0.292 C
HETATM   17  O5  UNL     1       3.438  65.428   9.236  1.00  0.00    -0.267 OA
BRANCH  16  18
HETATM   18  C18 UNL     1       1.425  64.207   8.968  1.00  0.00     0.336 C
HETATM   19  F1  UNL     1       1.568  63.945  10.336  1.00  0.00    -0.196 F
HETATM   20 CL1  UNL     1      -0.133  65.021   8.744  1.00  0.00    -0.056 Cl
HETATM   21 CL2  UNL     1       1.298  62.616   8.175  1.00  0.00    -0.056 Cl
ENDBRANCH  16  18
ENDBRANCH   6   9
BRANCH   1  22
HETATM   22  C5  UNL     1      10.167  62.840   1.933  1.00  0.00     0.224 C
HETATM   23  N1  UNL     1      10.972  63.856   2.502  1.00  0.00    -0.346 N
ATOM     24  H1  UNL     1      10.643  64.343   3.336  1.00  0.00     0.163 HD
HETATM   25  O3  UNL     1      10.567  62.241   0.909  1.00  0.00    -0.273 OA
BRANCH  23  26
HETATM   26  C4  UNL     1      12.267  64.225   1.920  1.00  0.00     0.186 C
BRANCH  26  27
HETATM   27  C3  UNL     1      12.918  65.122   2.939  1.00  0.00     0.046 C
BRANCH  27  28
HETATM   28  C2  UNL     1      14.214  64.614   3.464  1.00  0.00     0.116 C
BRANCH  28  29
HETATM   29  C1  UNL     1      14.406  65.000   4.909  1.00  0.00     0.172 C
HETATM   30  O1  UNL     1      15.576  65.153   5.315  1.00  0.00    -0.648 OA
HETATM   31  O2  UNL     1      13.284  65.167   5.709  1.00  0.00    -0.648 OA
ENDBRANCH  28  29
ENDBRANCH  27  28
ENDBRANCH  26  27
BRANCH  26  32
HETATM   32  C20 UNL     1      12.094  64.858   0.613  1.00  0.00     0.196 C
HETATM   33  O6  UNL     1      11.074  65.599   0.432  1.00  0.00    -0.646 OA
HETATM   34  O7  UNL     1      12.939  64.723  -0.449  1.00  0.00    -0.646 OA
ENDBRANCH  26  32
ENDBRANCH  23  26
ENDBRANCH   1  22
TORSDOF 8
ENDMDL