MODEL 4
REMARK VINA RESULT: -7.849287934      0.742      1.044
REMARK  9 active torsions:
REMARK  status: ('A' for Active; 'I' for Inactive)
REMARK    1  A    between atoms: C2_2  and  C3_3
REMARK    2  A    between atoms: C3_3  and  C4_4
REMARK       I    between atoms: N2_11  and  C8_12
REMARK    3  A    between atoms: C8_12  and  C9_14
REMARK    4  A    between atoms: C9_14  and  N3_15
REMARK    5  A    between atoms: C16_23  and  C17_24
REMARK    6  A    between atoms: C17_24  and  N4_25
REMARK    7  A    between atoms: C17_24  and  C22_32
REMARK    8  A    between atoms: N4_25  and  C18_27
REMARK    9  A    between atoms: C18_27  and  C19_29
ROOT
HETATM    1  C4  UNL     1       6.639  63.451  -0.156  1.00  0.00     0.278 C
HETATM    2  N1  UNL     1       7.230  64.076   0.975  1.00  0.00    -0.051 N
ATOM      3  H11 UNL     1       6.549  64.208   1.722  1.00  0.00     0.279 HD
ATOM      4  H12 UNL     1       7.451  65.053   0.783  1.00  0.00     0.279 HD
HETATM    5  C5  UNL     1       8.417  63.344   1.457  1.00  0.00     0.152 C
HETATM    6  C6  UNL     1       9.292  63.137   0.240  1.00  0.00     0.061 C
HETATM    7  C7  UNL     1      10.737  62.821   0.585  1.00  0.00     0.128 C
HETATM    8  N2  UNL     1      11.255  63.705   1.583  1.00  0.00    -0.350 N
HETATM    9  C8  UNL     1      12.452  64.406   1.386  1.00  0.00     0.248 C
HETATM   10  O1  UNL     1      13.145  64.298   0.317  1.00  0.00    -0.271 OA
HETATM   11  C14 UNL     1      10.507  63.858   2.794  1.00  0.00     0.128 C
HETATM   12  C15 UNL     1       9.119  64.305   2.350  1.00  0.00     0.061 C
HETATM   13  C16 UNL     1       7.996  62.044   1.996  1.00  0.00     0.152 C
HETATM   14  N5  UNL     1       7.425  61.306   0.851  1.00  0.00    -0.350 N
ATOM     15  H5  UNL     1       7.703  60.348   0.636  1.00  0.00     0.163 HD
HETATM   16  C23 UNL     1       6.467  62.001   0.066  1.00  0.00     0.249 C
HETATM   17  O2  UNL     1       5.481  61.422  -0.446  1.00  0.00    -0.271 OA
ENDROOT
BRANCH  13  18
HETATM   18  C17 UNL     1       6.870  62.074   3.016  1.00  0.00     0.215 C
BRANCH  18  19
HETATM   19  N4  UNL     1       7.015  63.068   4.041  1.00  0.00    -0.369 N
ATOM     20  H4  UNL     1       7.912  63.142   4.522  1.00  0.00     0.161 HD
BRANCH  19  21
HETATM   21  C18 UNL     1       5.974  63.952   4.415  1.00  0.00     0.077 C
HETATM   22  S1  UNL     1       4.399  63.528   4.316  1.00  0.00    -0.065 SA
BRANCH  21  23
HETATM   23  C19 UNL     1       6.251  65.338   4.882  1.00  0.00     0.039 C
HETATM   24  C20 UNL     1       5.263  65.822   5.911  1.00  0.00     0.017 C
HETATM   25  C21 UNL     1       6.251  66.321   3.727  1.00  0.00     0.017 C
ENDBRANCH  21  23
ENDBRANCH  19  21
ENDBRANCH  18  19
BRANCH  18  26
HETATM   26  C22 UNL     1       6.870  60.745   3.761  1.00  0.00     0.409 C
HETATM   27  F2  UNL     1       5.787  59.968   3.551  1.00  0.00    -0.169 F
HETATM   28  F3  UNL     1       7.009  60.976   5.097  1.00  0.00    -0.169 F
HETATM   29  F4  UNL     1       8.052  60.080   3.376  1.00  0.00    -0.169 F
ENDBRANCH  18  26
ENDBRANCH  13  18
BRANCH   1  30
HETATM   30  C3  UNL     1       5.371  64.137  -0.553  1.00  0.00     0.042 C
BRANCH  30  31
HETATM   31  C2  UNL     1       4.642  64.822   0.555  1.00  0.00    -0.002 C
HETATM   32  C1  UNL     1       3.261  64.177   0.644  1.00  0.00     0.005 C
ENDBRANCH  30  31
ENDBRANCH   1  30
BRANCH   9  33
HETATM   33  C9  UNL     1      13.011  65.338   2.419  1.00  0.00     0.374 C
BRANCH  33  34
HETATM   34  N3  UNL     1      13.454  64.649   3.597  1.00  0.00     0.100 N
HETATM   35  C10 UNL     1      14.898  64.629   3.711  1.00  0.00     0.276 C
HETATM   36  C11 UNL     1      15.267  64.995   5.110  1.00  0.00     0.069 C
HETATM   37  C12 UNL     1      13.958  65.171   5.848  1.00  0.00     0.200 C
HETATM   38  F1  UNL     1      14.054  66.333   6.626  1.00  0.00    -0.248 F
HETATM   39  C13 UNL     1      12.972  65.389   4.748  1.00  0.00     0.310 C
ENDBRANCH  33  34
ENDBRANCH   9  33
TORSDOF 9
ENDMDL