MODEL 3
REMARK VINA RESULT: -7.852290618      1.899      2.190
REMARK  7 active torsions:
REMARK  status: ('A' for Active; 'I' for Inactive)
REMARK    1  A    between atoms: N1_2  and  C2_3
REMARK    2  A    between atoms: N1_2  and  S1_19
REMARK    3  A    between atoms: C2_3  and  C3_4
REMARK    4  A    between atoms: C3_4  and  C4_5
REMARK    5  A    between atoms: C4_5  and  N2_6
REMARK       I    between atoms: N2_6  and  C5_8
REMARK    6  A    between atoms: C5_8  and  C6_10
REMARK    7  A    between atoms: S1_19  and  C10_22
ROOT
HETATM    1  C3  UNL     1      10.000  64.976   2.194  1.00  0.00     0.040 C
ENDROOT
BRANCH   1   2
HETATM    2  C2  UNL     1      11.128  64.827   3.185  1.00  0.00     0.136 C
BRANCH   2   3
HETATM    3  N1  UNL     1      12.254  64.117   2.689  1.00  0.00    -0.310 N
HETATM    4  C1  UNL     1      12.144  63.633   1.362  1.00  0.00     0.163 C
BRANCH   3   5
HETATM    5  S1  UNL     1      13.777  64.667   3.150  1.00  0.00     0.278 S
HETATM    6  O2  UNL     1      14.854  63.736   2.717  1.00  0.00    -0.199 OA
HETATM    7  O3  UNL     1      14.026  65.966   2.383  1.00  0.00    -0.199 OA
BRANCH   5   8
HETATM    8  C10 UNL     1      13.916  65.069   4.837  1.00  0.00     0.181 A
HETATM    9  C11 UNL     1      14.861  64.610   5.727  1.00  0.00     0.153 A
HETATM   10  N4  UNL     1      14.632  65.153   6.943  1.00  0.00    -0.295 N
HETATM   11  N5  UNL     1      13.574  65.920   6.788  1.00  0.00    -0.242 N
ATOM     12  H4  UNL     1      15.166  65.000   7.799  1.00  0.00     0.187 HD
HETATM   13  N6  UNL     1      13.126  65.891   5.550  1.00  0.00    -0.273 N
ATOM     14  H5  UNL     1      13.151  66.470   7.536  1.00  0.00     0.208 HD
ATOM     15  H6  UNL     1      12.319  66.403   5.194  1.00  0.00     0.189 HD
ENDBRANCH   5   8
ENDBRANCH   3   5
ENDBRANCH   2   3
ENDBRANCH   1   2
BRANCH   1  16
HETATM   16  C4  UNL     1       8.672  64.594   2.735  1.00  0.00     0.124 C
BRANCH  16  17
HETATM   17  N2  UNL     1       8.264  63.237   2.534  1.00  0.00    -0.356 N
HETATM   18  C5  UNL     1       7.287  62.600   3.324  1.00  0.00     0.270 C
HETATM   19  O1  UNL     1       6.750  63.290   4.270  1.00  0.00    -0.266 OA
ATOM     20  H2  UNL     1       8.702  62.705   1.783  1.00  0.00     0.162 HD
BRANCH  18  21
HETATM   21  C6  UNL     1       6.810  61.240   3.192  1.00  0.00     0.125 A
HETATM   22  N3  UNL     1       7.445  60.145   3.699  1.00  0.00    -0.343 N
HETATM   23  C7  UNL     1       6.784  59.029   3.428  1.00  0.00     0.099 A
ATOM     24  H3  UNL     1       8.320  60.181   4.222  1.00  0.00     0.167 HD
HETATM   25 BR1  UNL     1       7.254  57.229   3.917  1.00  0.00    -0.030 Br
HETATM   26  C8  UNL     1       5.658  59.342   2.715  1.00  0.00     0.069 A
HETATM   27 BR2  UNL     1       4.307  58.193   2.033  1.00  0.00    -0.046 Br
HETATM   28  C9  UNL     1       5.699  60.725   2.581  1.00  0.00     0.086 A
HETATM   29 CL1  UNL     1       4.470  61.634   1.739  1.00  0.00    -0.080 Cl
ENDBRANCH  18  21
ENDBRANCH  16  17
ENDBRANCH   1  16
TORSDOF 7
ENDMDL