MODEL 5
REMARK VINA RESULT: -8.722004883      2.216      2.631
REMARK  9 active torsions:
REMARK  status: ('A' for Active; 'I' for Inactive)
REMARK    1  A    between atoms: C1_2  and  C2_3
REMARK       I    between atoms: C1_2  and  N1_5
REMARK    2  A    between atoms: N1_5  and  C3_7
REMARK    3  A    between atoms: C4_10  and  N3_11
REMARK    4  A    between atoms: N3_11  and  C5_13
REMARK    5  A    between atoms: C5_13  and  C6_14
REMARK    6  A    between atoms: C6_14  and  C7_15
REMARK    7  A    between atoms: N5_27  and  C14_29
REMARK    8  A    between atoms: C14_29  and  C15_30
REMARK    9  A    between atoms: C15_30  and  N6_31
ROOT
HETATM    1  C3  UNL     1      12.798  65.697   4.050  1.00  0.00     0.714 A
HETATM    2  N2  UNL     1      12.321  64.651   3.365  1.00  0.00    -0.021 N
ATOM      3  H2  UNL     1      12.933  63.875   3.113  1.00  0.00     0.203 HD
HETATM    4  C4  UNL     1      10.997  64.637   3.007  1.00  0.00     0.711 A
HETATM    5  N4  UNL     1      10.199  65.676   3.350  1.00  0.00    -0.021 N
ATOM      6  H4  UNL     1       9.215  65.656   3.080  1.00  0.00     0.203 HD
HETATM    7  C13 UNL     1      10.664  66.729   4.035  1.00  0.00     0.711 A
HETATM    8  N5  UNL     1       9.952  67.709   4.368  1.00  0.00    -0.203 N
ATOM      9  H5  UNL     1      10.419  68.452   4.889  1.00  0.00     0.183 HD
HETATM   10  N7  UNL     1      11.990  66.695   4.369  1.00  0.00    -0.021 N
ATOM     11  H7  UNL     1      12.376  67.482   4.891  1.00  0.00     0.203 HD
ENDROOT
BRANCH   4  12
HETATM   12  N3  UNL     1      10.623  63.601   2.357  1.00  0.00    -0.204 N
ATOM     13  H3  UNL     1      11.310  63.156   1.750  1.00  0.00     0.183 HD
BRANCH  12  14
HETATM   14  C5  UNL     1       9.345  63.028   2.413  1.00  0.00     0.083 C
BRANCH  14  15
HETATM   15  C6  UNL     1       8.998  62.315   1.131  1.00  0.00     0.085 C
BRANCH  15  16
HETATM   16  C7  UNL     1       7.915  61.349   1.351  1.00  0.00    -0.030 A
HETATM   17  C8  UNL     1       8.119  60.409   2.360  1.00  0.00     0.034 A
HETATM   18  C9  UNL     1       7.145  59.504   2.665  1.00  0.00     0.056 A
HETATM   19 CL2  UNL     1       7.402  58.323   3.935  1.00  0.00    -0.083 Cl
HETATM   20  C10 UNL     1       5.955  59.508   1.983  1.00  0.00     0.057 A
HETATM   21 CL3  UNL     1       4.689  58.354   2.363  1.00  0.00    -0.082 Cl
HETATM   22  C11 UNL     1       5.723  60.415   0.990  1.00  0.00     0.050 A
HETATM   23  C12 UNL     1       6.724  61.335   0.683  1.00  0.00     0.042 A
HETATM   24 CL4  UNL     1       6.413  62.443  -0.644  1.00  0.00    -0.084 Cl
ENDBRANCH  15  16
ENDBRANCH  14  15
ENDBRANCH  12  14
ENDBRANCH   4  12
BRANCH   1  25
HETATM   25  N1  UNL     1      14.062  65.672   4.372  1.00  0.00    -0.158 N
HETATM   26  C1  UNL     1      14.682  64.501   4.845  1.00  0.00     0.249 C
HETATM   27  O1  UNL     1      15.003  63.516   4.123  1.00  0.00    -0.271 OA
ATOM     28  H1  UNL     1      14.615  66.523   4.279  1.00  0.00     0.187 HD
BRANCH  26  29
HETATM   29  C2  UNL     1      14.991  64.390   6.294  1.00  0.00     0.218 C
HETATM   30 CL1  UNL     1      16.055  62.985   6.587  1.00  0.00    -0.121 Cl
ENDBRANCH  26  29
ENDBRANCH   1  25
BRANCH   8  31
HETATM   31  C14 UNL     1       8.590  67.894   4.103  1.00  0.00     0.109 C
BRANCH  31  32
HETATM   32  C15 UNL     1       8.285  69.022   3.142  1.00  0.00     0.317 C
BRANCH  32  33
HETATM   33  N6  UNL     1       8.629  70.319   3.607  1.00  0.00     0.097 N
HETATM   34  C16 UNL     1       7.501  71.219   3.719  1.00  0.00     0.299 C
HETATM   35  C17 UNL     1       6.808  71.435   2.409  1.00  0.00     0.198 C
HETATM   36  O2  UNL     1       7.593  71.654   1.337  1.00  0.00    -0.388 OA
HETATM   37  C18 UNL     1       8.856  71.192   1.319  1.00  0.00     0.198 C
HETATM   38  C19 UNL     1       9.511  70.934   2.631  1.00  0.00     0.299 C
ENDBRANCH  32  33
ENDBRANCH  31  32
ENDBRANCH   8  31
TORSDOF 9
ENDMDL