MODEL 5
REMARK VINA RESULT: -7.295094250      1.943      3.374
REMARK  9 active torsions:
REMARK  status: ('A' for Active; 'I' for Inactive)
REMARK    1  A    between atoms: O1_2  and  C2_3
REMARK    2  A    between atoms: C2_3  and  C4_6
REMARK    3  A    between atoms: C5_7  and  C6_8
REMARK       I    between atoms: C6_8  and  N1_10
REMARK    4  A    between atoms: N3_24  and  C17_25
REMARK    5  A    between atoms: C17_25  and  C18_26
REMARK       I    between atoms: C18_26  and  N4_28
REMARK    6  A    between atoms: N4_28  and  C19_30
REMARK    7  A    between atoms: C19_30  and  C20_31
REMARK       I    between atoms: C20_31  and  N5_33
REMARK    8  A    between atoms: N5_33  and  C21_35
REMARK    9  A    between atoms: C21_35  and  C22_36
ROOT
HETATM    1  C4  UNL     1       7.038  62.948   2.357  1.00  0.00     0.308 C
HETATM    2  C5  UNL     1       6.327  62.283   1.199  1.00  0.00     0.162 C
HETATM    3  C13 UNL     1       5.781  63.361   0.279  1.00  0.00    -0.003 C
HETATM    4  N2  UNL     1       5.960  63.410  -0.958  1.00  0.00    -0.405 N
ATOM      5  H21 UNL     1       5.594  64.134  -1.577  1.00  0.00     0.155 HD
ATOM      6  H22 UNL     1       6.509  62.684  -1.419  1.00  0.00     0.155 HD
HETATM    7  C14 UNL     1       4.989  64.408   0.943  1.00  0.00     0.088 C
HETATM    8  C15 UNL     1       5.685  64.869   2.186  1.00  0.00     0.225 C
HETATM    9  C16 UNL     1       5.687  66.390   2.117  1.00  0.00     0.043 C
HETATM   10  N3  UNL     1       7.039  64.346   2.204  1.00  0.00     0.113 N
ENDROOT
BRANCH  10  11
HETATM   11  C17 UNL     1       7.879  65.155   2.997  1.00  0.00     0.375 C
BRANCH  11  12
HETATM   12  C18 UNL     1       8.995  65.843   2.354  1.00  0.00     0.246 C
HETATM   13  O3  UNL     1       8.912  66.660   1.393  1.00  0.00    -0.272 OA
HETATM   14  N4  UNL     1      10.301  65.581   2.844  1.00  0.00    -0.351 N
ATOM     15  H4  UNL     1      10.403  64.927   3.620  1.00  0.00     0.163 HD
BRANCH  14  16
HETATM   16  C19 UNL     1      11.499  66.192   2.301  1.00  0.00     0.225 C
BRANCH  16  17
HETATM   17  C20 UNL     1      12.665  65.285   2.426  1.00  0.00     0.235 C
HETATM   18  O4  UNL     1      13.075  64.616   1.418  1.00  0.00    -0.272 OA
HETATM   19  N5  UNL     1      13.378  65.105   3.634  1.00  0.00    -0.351 N
ATOM     20  H5  UNL     1      13.076  65.625   4.458  1.00  0.00     0.162 HD
BRANCH  19  21
HETATM   21  C21 UNL     1      14.509  64.224   3.760  1.00  0.00     0.240 C
BRANCH  21  22
HETATM   22  C22 UNL     1      15.048  64.255   5.173  1.00  0.00     0.403 C
HETATM   23  F2  UNL     1      15.555  63.022   5.539  1.00  0.00    -0.169 F
HETATM   24  F3  UNL     1      14.020  64.557   6.041  1.00  0.00    -0.169 F
HETATM   25  F4  UNL     1      16.072  65.186   5.250  1.00  0.00    -0.169 F
ENDBRANCH  21  22
ENDBRANCH  19  21
ENDBRANCH  16  17
ENDBRANCH  14  16
ENDBRANCH  11  12
ENDBRANCH  10  11
BRANCH   1  26
HETATM   26  C2  UNL     1       8.367  62.283   2.574  1.00  0.00     0.233 C
HETATM   27  C3  UNL     1       8.213  60.770   2.223  1.00  0.00     0.087 C
HETATM   28  F1  UNL     1       8.588  62.200   3.965  1.00  0.00    -0.210 F
BRANCH  26  29
HETATM   29  O1  UNL     1       9.432  62.809   2.010  1.00  0.00    -0.355 OA
HETATM   30  C1  UNL     1       9.930  62.690   0.801  1.00  0.00     0.206 C
ENDBRANCH  26  29
ENDBRANCH   1  26
BRANCH   2  31
HETATM   31  C6  UNL     1       5.131  61.529   1.646  1.00  0.00     0.232 C
HETATM   32  O2  UNL     1       4.548  61.823   2.709  1.00  0.00    -0.272 OA
HETATM   33  N1  UNL     1       4.630  60.466   0.871  1.00  0.00    -0.343 N
HETATM   34  C7  UNL     1       5.169  59.928  -0.360  1.00  0.00     0.127 C
HETATM   35  C10 UNL     1       3.441  59.650   1.099  1.00  0.00     0.028 C
HETATM   36  C8  UNL     1       3.932  60.004  -1.261  1.00  0.00     0.022 C
HETATM   37  C9  UNL     1       2.831  59.569  -0.298  1.00  0.00     0.032 C
HETATM   38  C11 UNL     1       3.738  58.274   1.588  1.00  0.00     0.038 C
HETATM   39  C12 UNL     1       2.428  60.313   1.973  1.00  0.00     0.038 C
ENDBRANCH   2  31
TORSDOF 9
ENDMDL