MODEL 4
REMARK VINA RESULT: -6.831140965      4.732      6.441
REMARK  8 active torsions:
REMARK  status: ('A' for Active; 'I' for Inactive)
REMARK    1  A    between atoms: O1_2  and  C2_3
REMARK    2  A    between atoms: C6_9  and  C7_10
REMARK       I    between atoms: C7_10  and  N1_12
REMARK    3  A    between atoms: N1_12  and  C8_14
REMARK    4  A    between atoms: C8_14  and  C9_15
REMARK    5  A    between atoms: C8_14  and  C12_18
REMARK    6  A    between atoms: C12_18  and  C13_21
REMARK    7  A    between atoms: C13_21  and  O3_22
REMARK    8  A    between atoms: C13_21  and  C14_24
ROOT
HETATM    1  C2  UNL     1       4.718  66.111   5.777  1.00  0.00     0.108 A
HETATM    2  C3  UNL     1       3.609  65.748   6.485  1.00  0.00     0.063 A
HETATM    3 BR1  UNL     1       2.440  67.075   7.188  1.00  0.00    -0.047 Br
HETATM    4  C4  UNL     1       3.350  64.422   6.682  1.00  0.00     0.032 A
HETATM    5 BR2  UNL     1       1.777  63.956   7.676  1.00  0.00    -0.050 Br
HETATM    6  C5  UNL     1       4.209  63.456   6.166  1.00  0.00     0.039 A
HETATM    7  C6  UNL     1       5.337  63.793   5.448  1.00  0.00     0.056 A
HETATM    8  C15 UNL     1       5.571  65.141   5.266  1.00  0.00     0.095 A
HETATM    9  C16 UNL     1       6.711  65.597   4.544  1.00  0.00     0.103 C
HETATM   10  N3  UNL     1       7.651  65.958   3.970  1.00  0.00    -0.191 NA
ENDROOT
BRANCH   1  11
HETATM   11  O1  UNL     1       4.953  67.475   5.595  1.00  0.00    -0.353 OA
HETATM   12  C1  UNL     1       4.443  68.107   4.453  1.00  0.00     0.210 C
ENDBRANCH   1  11
BRANCH   7  13
HETATM   13  C7  UNL     1       6.226  62.811   4.897  1.00  0.00     0.253 C
HETATM   14  O2  UNL     1       7.058  62.260   5.694  1.00  0.00    -0.268 OA
HETATM   15  N1  UNL     1       6.248  62.401   3.523  1.00  0.00    -0.346 N
ATOM     16  H1  UNL     1       5.592  62.822   2.865  1.00  0.00     0.163 HD
BRANCH  15  17
HETATM   17  C8  UNL     1       7.166  61.420   3.058  1.00  0.00     0.163 C
BRANCH  17  18
HETATM   18  C9  UNL     1       6.504  60.076   2.781  1.00  0.00     0.006 C
HETATM   19  C10 UNL     1       6.962  59.044   3.814  1.00  0.00     0.012 C
HETATM   20  C11 UNL     1       5.027  60.134   2.656  1.00  0.00     0.012 C
ENDBRANCH  17  18
BRANCH  17  21
HETATM   21  C12 UNL     1       7.977  61.758   1.870  1.00  0.00     0.297 C
HETATM   22  F1  UNL     1       7.254  61.704   0.683  1.00  0.00    -0.201 F
HETATM   23  F2  UNL     1       8.989  60.802   1.764  1.00  0.00    -0.201 F
BRANCH  21  24
HETATM   24  C13 UNL     1       8.660  63.100   1.894  1.00  0.00     0.281 C
BRANCH  24  25
HETATM   25  O3  UNL     1       9.197  63.383   3.150  1.00  0.00    -0.381 OA
ATOM     26  H3  UNL     1       8.784  62.868   3.833  1.00  0.00     0.210 HD
ENDBRANCH  24  25
BRANCH  24  27
HETATM   27  C14 UNL     1       9.737  63.029   0.871  1.00  0.00     0.266 C
HETATM   28  N2  UNL     1      11.102  62.920   1.217  1.00  0.00    -0.060 NA
HETATM   29  O4  UNL     1       9.425  63.066  -0.338  1.00  0.00    -0.274 OA
ENDBRANCH  24  27
ENDBRANCH  21  24
ENDBRANCH  17  21
ENDBRANCH  15  17
ENDBRANCH   7  13
TORSDOF 8
ENDMDL