MODEL 5
REMARK VINA RESULT: -7.594138206      2.775      4.532
REMARK  10 active torsions:
REMARK  status: ('A' for Active; 'I' for Inactive)
REMARK    1  A    between atoms: O1_2  and  C2_3
REMARK    2  A    between atoms: C2_3  and  C3_4
REMARK    3  A    between atoms: C3_4  and  C4_5
REMARK    4  A    between atoms: C4_5  and  N1_6
REMARK    5  A    between atoms: C4_5  and  C22_33
REMARK       I    between atoms: N1_6  and  C5_8
REMARK    6  A    between atoms: C5_8  and  C6_10
REMARK    7  A    between atoms: C8_12  and  C9_13
REMARK    8  A    between atoms: C9_13  and  O3_14
REMARK    9  A    between atoms: C9_13  and  N2_16
REMARK   10  A    between atoms: C22_33  and  C23_35
ROOT
HETATM    1  C6  UNL     1       6.538  64.291   3.209  1.00  0.00     0.044 C
HETATM    2  C7  UNL     1       8.006  64.281   2.906  1.00  0.00     0.037 C
HETATM    3  C8  UNL     1       8.560  65.667   2.757  1.00  0.00     0.028 C
HETATM    4  C15 UNL     1       8.175  66.610   3.870  1.00  0.00     0.029 C
HETATM    5  C16 UNL     1       6.638  66.560   3.763  1.00  0.00    -0.020 C
HETATM    6  C17 UNL     1       5.985  67.714   4.427  1.00  0.00     0.017 C
HETATM    7  C18 UNL     1       6.284  65.217   4.410  1.00  0.00     0.030 C
HETATM    8  C19 UNL     1       6.384  66.423   2.306  1.00  0.00     0.046 C
HETATM    9 CL1  UNL     1       5.360  67.693   1.636  1.00  0.00    -0.118 Cl
HETATM   10  C20 UNL     1       5.747  65.045   2.146  1.00  0.00     0.045 C
HETATM   11  C21 UNL     1       7.723  66.338   1.620  1.00  0.00     0.044 C
ENDROOT
BRANCH   1  12
HETATM   12  C5  UNL     1       5.940  62.972   3.411  1.00  0.00     0.227 C
HETATM   13  N1  UNL     1       5.855  61.957   2.442  1.00  0.00    -0.349 N
ATOM     14  H1  UNL     1       6.231  62.141   1.512  1.00  0.00     0.163 HD
HETATM   15  O2  UNL     1       5.449  62.692   4.559  1.00  0.00    -0.273 OA
BRANCH  13  16
HETATM   16  C4  UNL     1       5.260  60.661   2.700  1.00  0.00     0.165 C
BRANCH  16  17
HETATM   17  C3  UNL     1       3.937  60.451   2.023  1.00  0.00     0.059 C
BRANCH  17  18
HETATM   18  C2  UNL     1       3.658  61.466   0.947  1.00  0.00     0.169 C
BRANCH  18  19
HETATM   19  O1  UNL     1       4.493  61.388  -0.135  1.00  0.00    -0.396 OA
HETATM   20  C1  UNL     1       4.159  60.405  -1.030  1.00  0.00     0.201 C
ENDBRANCH  18  19
ENDBRANCH  17  18
ENDBRANCH  16  17
BRANCH  16  21
HETATM   21  C22 UNL     1       6.251  59.591   2.410  1.00  0.00     0.255 C
HETATM   22  O5  UNL     1       5.934  58.752   1.555  1.00  0.00    -0.286 OA
BRANCH  21  23
HETATM   23  C23 UNL     1       7.557  59.517   3.102  1.00  0.00     0.453 C
HETATM   24  F1  UNL     1       8.538  60.061   2.280  1.00  0.00    -0.163 F
HETATM   25  F2  UNL     1       7.463  60.160   4.309  1.00  0.00    -0.163 F
HETATM   26  F3  UNL     1       7.917  58.185   3.350  1.00  0.00    -0.163 F
ENDBRANCH  21  23
ENDBRANCH  16  21
ENDBRANCH  13  16
ENDBRANCH   1  12
BRANCH   3  27
HETATM   27  C9  UNL     1       9.971  65.705   2.384  1.00  0.00     0.122 C
BRANCH  27  28
HETATM   28  O3  UNL     1      10.281  66.681   1.569  1.00  0.00    -0.349 OA
ATOM     29  H3  UNL     1      10.228  67.545   1.962  1.00  0.00     0.219 HD
ENDBRANCH  27  28
BRANCH  27  30
HETATM   30  N2  UNL     1      11.036  64.898   2.728  1.00  0.00    -0.356 N
HETATM   31  C10 UNL     1      11.722  65.041   3.972  1.00  0.00     0.127 C
HETATM   32  C11 UNL     1      13.063  65.726   3.699  1.00  0.00     0.039 C
HETATM   33  C12 UNL     1      14.080  64.649   3.445  1.00  0.00     0.124 C
HETATM   34  N3  UNL     1      13.958  64.108   2.103  1.00  0.00    -0.360 N
HETATM   35  C13 UNL     1      12.792  64.001   1.282  1.00  0.00     0.235 C
ATOM     36  H3  UNL     1      14.822  63.756   1.690  1.00  0.00     0.162 HD
HETATM   37  O4  UNL     1      12.981  64.029   0.044  1.00  0.00    -0.272 OA
HETATM   38  C14 UNL     1      11.406  63.862   1.732  1.00  0.00     0.227 C
ENDBRANCH  27  30
ENDBRANCH   3  27
TORSDOF 10
ENDMDL