MODEL 2
REMARK VINA RESULT: -8.774586067      0.628      1.021
REMARK  8 active torsions:
REMARK  status: ('A' for Active; 'I' for Inactive)
REMARK    1  A    between atoms: N1_2  and  C2_5
REMARK    2  A    between atoms: C2_5  and  C3_6
REMARK    3  A    between atoms: C3_6  and  N2_7
REMARK    4  A    between atoms: C6_10  and  C7_11
REMARK    5  A    between atoms: C7_11  and  C8_12
REMARK    6  A    between atoms: C8_12  and  N3_13
REMARK    7  A    between atoms: N5_28  and  S1_29
REMARK    8  A    between atoms: S1_29  and  C19_32
ROOT
HETATM    1  N3  UNL     1       8.728  64.376   1.743  1.00  0.00     0.092 N
HETATM    2  C9  UNL     1       7.472  64.773   1.271  1.00  0.00     0.318 C
HETATM    3  C10 UNL     1       6.591  63.518   1.228  1.00  0.00     0.164 C
HETATM    4  F1  UNL     1       5.347  63.936   1.682  1.00  0.00    -0.238 F
HETATM    5  C11 UNL     1       6.503  63.051  -0.181  1.00  0.00     0.280 C
HETATM    6  N4  UNL     1       6.194  61.660  -0.367  1.00  0.00    -0.050 N
ATOM      7  H41 UNL     1       6.803  61.251  -1.076  1.00  0.00     0.279 HD
ATOM      8  H42 UNL     1       5.292  61.556  -0.831  1.00  0.00     0.279 HD
HETATM    9  C12 UNL     1       6.232  60.871   0.847  1.00  0.00     0.304 C
HETATM   10  C13 UNL     1       7.546  61.279   1.510  1.00  0.00     0.051 C
HETATM   11  C14 UNL     1       8.033  60.201   2.403  1.00  0.00     0.009 C
HETATM   12  C15 UNL     1       7.492  60.182   3.788  1.00  0.00     0.001 C
HETATM   13  C16 UNL     1       7.137  61.522   4.351  1.00  0.00     0.011 C
HETATM   14  C17 UNL     1       6.338  62.278   3.316  1.00  0.00     0.039 C
HETATM   15  C18 UNL     1       5.140  61.526   2.918  1.00  0.00     0.084 C
HETATM   16  N5  UNL     1       5.103  60.932   1.650  1.00  0.00    -0.251 N
HETATM   17  C20 UNL     1       7.280  62.605   2.174  1.00  0.00     0.041 C
HETATM   18  C21 UNL     1       8.471  63.290   2.694  1.00  0.00     0.286 C
ENDROOT
BRANCH   1  19
HETATM   19  C8  UNL     1       9.627  65.316   2.292  1.00  0.00     0.273 C
BRANCH  19  20
HETATM   20  C7  UNL     1      10.948  65.550   1.709  1.00  0.00     0.035 C
BRANCH  20  21
HETATM   21  C6  UNL     1      12.081  65.977   2.573  1.00  0.00    -0.010 C
HETATM   22  C5  UNL     1      11.674  65.648   4.029  1.00  0.00     0.035 C
HETATM   23  C4  UNL     1      12.920  65.952   4.840  1.00  0.00     0.273 C
HETATM   24  N2  UNL     1      13.805  64.794   4.734  1.00  0.00     0.090 N
HETATM   25  C23 UNL     1      13.729  64.234   3.399  1.00  0.00     0.273 C
HETATM   26  C22 UNL     1      13.350  65.204   2.334  1.00  0.00     0.035 C
BRANCH  24  27
HETATM   27  C3  UNL     1      15.113  65.069   5.216  1.00  0.00     0.299 C
BRANCH  27  28
HETATM   28  C2  UNL     1      15.460  64.464   6.535  1.00  0.00     0.262 C
BRANCH  28  29
HETATM   29  N1  UNL     1      15.539  62.998   6.441  1.00  0.00    -0.077 N
HETATM   30  C1  UNL     1      16.823  62.524   6.907  1.00  0.00     0.267 C
ATOM     31  H12 UNL     1      15.335  62.669   5.498  1.00  0.00     0.276 HD
ATOM     32  H11 UNL     1      14.768  62.546   6.932  1.00  0.00     0.276 HD
ENDBRANCH  28  29
ENDBRANCH  27  28
ENDBRANCH  24  27
ENDBRANCH  20  21
ENDBRANCH  19  20
ENDBRANCH   1  19
BRANCH  16  33
HETATM   33  S1  UNL     1       3.851  59.864   1.338  1.00  0.00     0.337 S
HETATM   34  O1  UNL     1       3.647  59.793  -0.173  1.00  0.00    -0.196 OA
HETATM   35  O2  UNL     1       2.530  60.321   1.958  1.00  0.00    -0.196 OA
BRANCH  33  36
HETATM   36  C19 UNL     1       4.083  58.203   1.861  1.00  0.00     0.517 C
HETATM   37  F2  UNL     1       2.929  57.550   2.194  1.00  0.00    -0.155 F
HETATM   38  F3  UNL     1       4.745  57.427   0.934  1.00  0.00    -0.155 F
HETATM   39  F4  UNL     1       4.893  58.159   3.005  1.00  0.00    -0.155 F
ENDBRANCH  33  36
ENDBRANCH  16  33
TORSDOF 8
ENDMDL