MODEL 3
REMARK VINA RESULT: -6.769887872      3.249      5.200
REMARK  11 active torsions:
REMARK  status: ('A' for Active; 'I' for Inactive)
REMARK    1  A    between atoms: C2_2  and  C3_3
REMARK    2  A    between atoms: C3_3  and  N1_4
REMARK    3  A    between atoms: C3_3  and  C12_20
REMARK       I    between atoms: N1_4  and  C4_6
REMARK    4  A    between atoms: C4_6  and  C5_8
REMARK    5  A    between atoms: C5_8  and  N2_9
REMARK    6  A    between atoms: C5_8  and  C9_15
REMARK    7  A    between atoms: C9_15  and  O2_18
REMARK    8  A    between atoms: C12_20  and  C13_22
REMARK    9  A    between atoms: C13_22  and  O4_23
REMARK   10  A    between atoms: C13_22  and  N3_25
REMARK   11  A    between atoms: C19_31  and  O5_32
ROOT
HETATM    1  C12 UNL     1       9.487  64.300  -0.413  1.00  0.00     0.222 C
HETATM    2  O3  UNL     1       9.013  65.213  -1.106  1.00  0.00    -0.286 OA
ENDROOT
BRANCH   1   3
HETATM    3  C3  UNL     1      10.989  64.230  -0.419  1.00  0.00     0.162 C
BRANCH   3   4
HETATM    4  C2  UNL     1      11.546  64.735  -1.732  1.00  0.00     0.029 C
HETATM    5  C1  UNL     1      12.945  65.241  -1.668  1.00  0.00     0.007 C
ENDBRANCH   3   4
BRANCH   3   6
HETATM    6  N1  UNL     1      11.473  65.170   0.610  1.00  0.00    -0.347 N
HETATM    7  C4  UNL     1      11.891  64.700   1.875  1.00  0.00     0.255 C
HETATM    8  O1  UNL     1      11.827  63.453   2.064  1.00  0.00    -0.271 OA
ATOM      9  H1  UNL     1      11.507  66.169   0.405  1.00  0.00     0.163 HD
BRANCH   7  10
HETATM   10  C5  UNL     1      12.393  65.553   2.977  1.00  0.00     0.347 C
BRANCH  10  11
HETATM   11  N2  UNL     1      13.113  64.693   3.904  1.00  0.00     0.117 N
HETATM   12  C6  UNL     1      13.724  65.328   5.030  1.00  0.00     0.354 C
HETATM   13  C7  UNL     1      15.016  64.585   4.695  1.00  0.00     0.295 C
HETATM   14  F1  UNL     1      16.108  65.395   4.451  1.00  0.00    -0.203 F
HETATM   15  F2  UNL     1      15.250  63.508   5.496  1.00  0.00    -0.203 F
HETATM   16  C8  UNL     1      14.355  64.204   3.390  1.00  0.00     0.354 C
ENDBRANCH  10  11
BRANCH  10  17
HETATM   17  C9  UNL     1      11.173  66.151   3.650  1.00  0.00     0.090 C
HETATM   18  C10 UNL     1      11.168  67.684   3.512  1.00  0.00     0.048 C
HETATM   19  C11 UNL     1       9.876  65.681   3.054  1.00  0.00     0.048 C
BRANCH  17  20
HETATM   20  O2  UNL     1      11.178  65.905   5.017  1.00  0.00    -0.388 OA
ATOM     21  H2  UNL     1      12.063  65.893   5.363  1.00  0.00     0.210 HD
ENDBRANCH  17  20
ENDBRANCH  10  17
ENDBRANCH   7  10
ENDBRANCH   3   6
ENDBRANCH   1   3
BRANCH   1  22
HETATM   22  C13 UNL     1       8.693  63.370   0.347  1.00  0.00     0.188 C
BRANCH  22  23
HETATM   23  O4  UNL     1       9.434  62.524   1.055  1.00  0.00    -0.343 OA
ATOM     24  H4  UNL     1       8.929  62.051   1.706  1.00  0.00     0.219 HD
ENDBRANCH  22  23
BRANCH  22  25
HETATM   25  N3  UNL     1       7.343  63.160   0.500  1.00  0.00    -0.349 N
HETATM   26  C14 UNL     1       6.781  63.814   1.676  1.00  0.00     0.134 C
HETATM   27  C15 UNL     1       6.283  62.916   2.719  1.00  0.00     0.044 C
HETATM   28  C16 UNL     1       7.173  63.064   3.942  1.00  0.00     0.009 C
HETATM   29  C19 UNL     1       6.094  61.494   2.517  1.00  0.00     0.129 C
HETATM   30  C17 UNL     1       7.737  61.689   4.207  1.00  0.00     0.004 C
HETATM   31  C18 UNL     1       6.605  60.794   3.804  1.00  0.00     0.044 C
HETATM   32  C20 UNL     1       6.661  60.732   1.400  1.00  0.00     0.280 C
HETATM   33  F3  UNL     1       8.012  60.524   1.497  1.00  0.00    -0.202 F
HETATM   34  F4  UNL     1       6.148  59.402   1.605  1.00  0.00    -0.202 F
HETATM   35  C21 UNL     1       6.174  61.076   0.010  1.00  0.00     0.091 A
HETATM   36  C22 UNL     1       5.128  62.105  -0.138  1.00  0.00     0.044 A
HETATM   37  C23 UNL     1       6.594  62.375  -0.470  1.00  0.00     0.041 A
HETATM   38  C24 UNL     1       6.708  62.702  -1.940  1.00  0.00     0.039 C
BRANCH  29  39
HETATM   39  O5  UNL     1       4.699  61.181   2.555  1.00  0.00    -0.383 OA
ATOM     40  H5  UNL     1       4.540  60.499   3.197  1.00  0.00     0.210 HD
ENDBRANCH  29  39
ENDBRANCH  22  25
ENDBRANCH   1  22
TORSDOF 11
ENDMDL