MODEL 1
REMARK VINA RESULT: -8.652848467      0.000      0.000
REMARK  13 active torsions:
REMARK  status: ('A' for Active; 'I' for Inactive)
REMARK    1  A    between atoms: C2_2  and  N1_3
REMARK    2  A    between atoms: N1_3  and  C3_5
REMARK    3  A    between atoms: C3_5  and  N2_6
REMARK    4  A    between atoms: C3_5  and  O1_11
REMARK    5  A    between atoms: N2_6  and  N3_8
REMARK    6  A    between atoms: O1_11  and  C4_12
REMARK    7  A    between atoms: C4_12  and  C5_13
REMARK    8  A    between atoms: C5_13  and  C6_14
REMARK    9  A    between atoms: C6_14  and  N4_15
REMARK   10  A    between atoms: C6_14  and  N5_18
REMARK   11  A    between atoms: C10_25  and  C12_27
REMARK   12  A    between atoms: S1_32  and  C15_33
REMARK   13  A    between atoms: C15_33  and  C16_34
ROOT
HETATM    1  C16 UNL     1       5.550  60.405   2.872  1.00  0.00     0.017 A
HETATM    2  C17 UNL     1       6.705  59.705   3.373  1.00  0.00     0.166 A
HETATM    3  F1  UNL     1       7.698  60.414   3.952  1.00  0.00    -0.202 F
HETATM    4  C18 UNL     1       6.821  58.345   3.308  1.00  0.00     0.197 A
HETATM    5  F2  UNL     1       7.904  57.735   3.834  1.00  0.00    -0.199 F
HETATM    6  C19 UNL     1       5.807  57.625   2.748  1.00  0.00     0.198 A
HETATM    7  F3  UNL     1       5.856  56.264   2.688  1.00  0.00    -0.199 F
HETATM    8  C20 UNL     1       4.687  58.301   2.257  1.00  0.00     0.179 A
HETATM    9  F4  UNL     1       3.735  57.520   1.701  1.00  0.00    -0.201 F
HETATM   10  C21 UNL     1       4.579  59.677   2.324  1.00  0.00     0.096 A
HETATM   11  C22 UNL     1       3.457  60.326   1.690  1.00  0.00     0.103 C
HETATM   12  N8  UNL     1       2.590  60.859   1.154  1.00  0.00    -0.191 NA
ENDROOT
BRANCH   1  13
HETATM   13  C15 UNL     1       5.690  61.875   3.021  1.00  0.00     0.113 C
BRANCH  13  14
HETATM   14  S1  UNL     1       6.687  62.773   2.019  1.00  0.00    -0.162 SA
HETATM   15  C12 UNL     1       8.100  62.817   1.218  1.00  0.00     0.065 C
HETATM   16  N7  UNL     1       7.935  62.569  -0.034  1.00  0.00    -0.365 N
HETATM   17  C13 UNL     1       6.696  62.255  -0.500  1.00  0.00     0.071 C
ATOM     18  H7  UNL     1       8.728  62.608  -0.673  1.00  0.00     0.165 HD
HETATM   19  C14 UNL     1       5.615  62.721   0.426  1.00  0.00     0.114 C
BRANCH  15  20
HETATM   20  C10 UNL     1       9.514  63.179   1.748  1.00  0.00     0.081 C
HETATM   21  N5  UNL     1       9.785  64.621   1.601  1.00  0.00    -0.332 N
HETATM   22  C7  UNL     1      10.003  65.092   0.254  1.00  0.00     0.359 C
HETATM   23  N6  UNL     1      11.303  64.561  -0.141  1.00  0.00    -0.059 N
HETATM   24  C8  UNL     1      11.670  63.358   0.513  1.00  0.00     0.237 C
ATOM     25  H62 UNL     1      11.345  64.442  -1.153  1.00  0.00     0.279 HD
ATOM     26  H61 UNL     1      12.029  65.268  -0.017  1.00  0.00     0.279 HD
HETATM   27  C9  UNL     1      10.526  62.475   0.974  1.00  0.00     0.065 C
HETATM   28  C11 UNL     1       9.411  62.861   3.217  1.00  0.00     0.046 C
BRANCH  21  29
HETATM   29  C6  UNL     1       9.947  65.509   2.677  1.00  0.00     0.077 C
BRANCH  29  30
HETATM   30  C5  UNL     1      11.218  66.239   3.028  1.00  0.00     0.102 C
BRANCH  30  31
HETATM   31  C4  UNL     1      12.160  65.197   3.649  1.00  0.00     0.186 C
BRANCH  31  32
HETATM   32  O1  UNL     1      12.446  65.257   4.973  1.00  0.00    -0.321 OA
BRANCH  32  33
HETATM   33  C3  UNL     1      13.606  65.551   5.596  1.00  0.00     0.233 C
BRANCH  33  34
HETATM   34  N1  UNL     1      14.907  65.127   5.148  1.00  0.00    -0.355 N
ATOM     35  H1  UNL     1      15.584  65.807   4.800  1.00  0.00     0.163 HD
BRANCH  34  36
HETATM   36  C2  UNL     1      15.233  63.737   5.197  1.00  0.00     0.118 C
HETATM   37  C1  UNL     1      15.921  63.515   6.550  1.00  0.00     0.026 C
ENDBRANCH  34  36
ENDBRANCH  33  34
BRANCH  33  38
HETATM   38  N2  UNL     1      13.565  66.257   6.665  1.00  0.00    -0.272 N
ATOM     39  H2  UNL     1      13.546  67.272   6.552  1.00  0.00     0.190 HD
BRANCH  38  40
HETATM   40  N3  UNL     1      13.544  65.784   7.912  1.00  0.00    -0.342 N
ATOM     41  H32 UNL     1      12.761  65.173   8.146  1.00  0.00     0.176 HD
ATOM     42  H31 UNL     1      14.234  65.980   8.637  1.00  0.00     0.176 HD
ENDBRANCH  38  40
ENDBRANCH  33  38
ENDBRANCH  32  33
ENDBRANCH  31  32
ENDBRANCH  30  31
ENDBRANCH  29  30
BRANCH  29  43
HETATM   43  N4  UNL     1       8.972  65.768   3.478  1.00  0.00    -0.389 N
ATOM     44  H42 UNL     1       8.561  66.700   3.522  1.00  0.00     0.157 HD
ATOM     45  H41 UNL     1       8.677  64.962   4.029  1.00  0.00     0.157 HD
ENDBRANCH  29  43
ENDBRANCH  21  29
ENDBRANCH  15  20
ENDBRANCH  13  14
ENDBRANCH   1  13
TORSDOF 13
ENDMDL