MODEL 2
REMARK VINA RESULT: -7.390091969      2.707      3.880
REMARK  7 active torsions:
REMARK  status: ('A' for Active; 'I' for Inactive)
REMARK    1  A    between atoms: N1_4  and  C3_5
REMARK    2  A    between atoms: C3_5  and  C4_6
REMARK    3  A    between atoms: C4_6  and  N2_7
REMARK    4  A    between atoms: C6_9  and  C7_10
REMARK    5  A    between atoms: C9_13  and  N3_14
REMARK    6  A    between atoms: N3_14  and  C10_16
REMARK    7  A    between atoms: C10_16  and  C11_17
REMARK       I    between atoms: N4_20  and  C14_21
ROOT
HETATM    1  N2  UNL     1       6.657  62.000   0.067  1.00  0.00    -0.340 N
HETATM    2  C5  UNL     1       6.736  61.330   1.216  1.00  0.00     0.102 A
HETATM    3  C6  UNL     1       7.517  62.029   2.146  1.00  0.00    -0.011 A
HETATM    4  C8  UNL     1       7.924  63.183   1.507  1.00  0.00     0.061 A
HETATM    5  C9  UNL     1       8.703  64.237   1.909  1.00  0.00     0.116 A
HETATM    6  N6  UNL     1       8.937  65.231   1.047  1.00  0.00    -0.338 N
ATOM      7  H6  UNL     1       9.516  66.018   1.338  1.00  0.00     0.168 HD
HETATM    8  C17 UNL     1       8.416  65.214  -0.215  1.00  0.00     0.183 A
HETATM    9  N7  UNL     1       7.655  64.170  -0.582  1.00  0.00    -0.338 N
ATOM     10  H7  UNL     1       7.269  64.165  -1.526  1.00  0.00     0.168 HD
HETATM   11  C18 UNL     1       7.372  63.125   0.227  1.00  0.00     0.123 A
ENDROOT
BRANCH   1  12
HETATM   12  C4  UNL     1       5.948  61.641  -1.155  1.00  0.00     0.160 C
BRANCH  12  13
HETATM   13  C3  UNL     1       4.520  62.147  -1.063  1.00  0.00     0.295 C
BRANCH  13  14
HETATM   14  N1  UNL     1       3.652  61.081  -1.481  1.00  0.00     0.117 N
HETATM   15  C2  UNL     1       2.656  60.742  -0.508  1.00  0.00     0.263 C
HETATM   16  C1  UNL     1       1.413  61.565  -0.656  1.00  0.00     0.071 C
HETATM   17 CL1  UNL     1       3.250  60.908   1.158  1.00  0.00    -0.082 Cl
HETATM   18  C21 UNL     1       2.300  59.282  -0.785  1.00  0.00     0.136 C
HETATM   19  C20 UNL     1       3.196  58.872  -1.908  1.00  0.00     0.074 C
HETATM   20  C22 UNL     1       2.600  58.467   0.431  1.00  0.00     0.274 C
HETATM   21  O2  UNL     1       0.981  59.164  -1.209  1.00  0.00    -0.373 OA
HETATM   22  C19 UNL     1       4.343  59.860  -1.800  1.00  0.00     0.278 C
HETATM   23  N8  UNL     1       2.467  57.053   0.157  1.00  0.00    -0.070 N
HETATM   24  C23 UNL     1       1.293  56.848  -0.654  1.00  0.00     0.258 C
ATOM     25  H82 UNL     1       3.307  56.655  -0.264  1.00  0.00     0.277 HD
ATOM     26  H81 UNL     1       2.457  56.490   1.008  1.00  0.00     0.277 HD
HETATM   27  C24 UNL     1       0.376  58.073  -0.616  1.00  0.00     0.196 C
ENDBRANCH  13  14
ENDBRANCH  12  13
ENDBRANCH   1  12
BRANCH   3  28
HETATM   28  C7  UNL     1       7.810  61.572   3.526  1.00  0.00     0.155 C
HETATM   29 CL2  UNL     1       7.023  60.030   3.925  1.00  0.00    -0.125 Cl
ENDBRANCH   3  28
BRANCH   5  30
HETATM   30  N3  UNL     1       9.196  64.281   3.085  1.00  0.00    -0.375 N
ATOM     31  H3  UNL     1       8.537  64.424   3.850  1.00  0.00     0.161 HD
BRANCH  30  32
HETATM   32  C10 UNL     1      10.567  64.152   3.443  1.00  0.00     0.126 C
BRANCH  32  33
HETATM   33  C11 UNL     1      11.500  65.125   2.808  1.00  0.00     0.006 C
HETATM   34  C12 UNL     1      12.845  64.426   2.650  1.00  0.00     0.026 C
HETATM   35  C13 UNL     1      13.888  65.132   3.458  1.00  0.00     0.127 C
HETATM   36  N4  UNL     1      13.428  65.303   4.816  1.00  0.00    -0.337 N
HETATM   37  C14 UNL     1      14.153  64.837   5.942  1.00  0.00     0.330 C
HETATM   38  C15 UNL     1      12.170  65.984   5.035  1.00  0.00     0.127 C
HETATM   39  N5  UNL     1      13.703  65.006   7.260  1.00  0.00    -0.040 NA
HETATM   40  O1  UNL     1      15.235  64.254   5.734  1.00  0.00    -0.251 OA
HETATM   41  C16 UNL     1      11.631  66.353   3.677  1.00  0.00     0.026 C
ENDBRANCH  32  33
ENDBRANCH  30  32
ENDBRANCH   5  30
TORSDOF 7
ENDMDL