MODEL 5
REMARK VINA RESULT: -7.752862858      2.755      7.762
REMARK  6 active torsions:
REMARK  status: ('A' for Active; 'I' for Inactive)
REMARK    1  A    between atoms: C6_7  and  C7_8
REMARK    2  A    between atoms: C9_12  and  N1_13
REMARK       I    between atoms: N1_13  and  C10_15
REMARK    3  A    between atoms: C10_15  and  C11_17
REMARK    4  A    between atoms: C15_21  and  C16_22
REMARK    5  A    between atoms: C16_22  and  O4_23
REMARK       I    between atoms: N2_25  and  C17_26
REMARK    6  A    between atoms: C17_26  and  C18_28
ROOT
HETATM    1  C11 UNL     1       7.832  63.908  -0.587  1.00  0.00     0.183 C
HETATM    2  C12 UNL     1       6.884  64.773  -1.364  1.00  0.00     0.016 C
HETATM    3  C13 UNL     1       7.496  65.632  -2.415  1.00  0.00     0.012 C
HETATM    4  C14 UNL     1       6.289  65.581  -0.222  1.00  0.00     0.034 C
HETATM    5  C15 UNL     1       5.991  64.425   0.762  1.00  0.00     0.112 C
HETATM    6  N2  UNL     1       6.989  63.443   0.510  1.00  0.00    -0.331 N
HETATM    7  C17 UNL     1       7.232  62.213   1.154  1.00  0.00     0.226 C
HETATM    8  O5  UNL     1       8.184  61.447   0.778  1.00  0.00    -0.273 OA
ENDROOT
BRANCH   1   9
HETATM    9  C10 UNL     1       8.978  64.683  -0.019  1.00  0.00     0.243 C
HETATM   10  N1  UNL     1       9.557  64.332   1.203  1.00  0.00    -0.323 N
ATOM     11  H1  UNL     1       9.160  63.525   1.684  1.00  0.00     0.165 HD
HETATM   12  O3  UNL     1       9.406  65.661  -0.670  1.00  0.00    -0.271 OA
BRANCH  10  13
HETATM   13  C9  UNL     1      10.650  64.990   1.847  1.00  0.00     0.247 C
HETATM   14  C4  UNL     1      10.771  64.469   3.268  1.00  0.00     0.182 C
HETATM   15  O1  UNL     1       9.617  64.706   3.993  1.00  0.00    -0.379 OA
HETATM   16  C5  UNL     1      12.015  64.992   3.910  1.00  0.00     0.071 C
HETATM   17  C3  UNL     1       9.445  66.060   4.138  1.00  0.00     0.201 C
HETATM   18  C2  UNL     1       9.421  66.813   2.823  1.00  0.00     0.208 C
HETATM   19  C1  UNL     1       9.674  68.284   3.181  1.00  0.00     0.042 C
HETATM   20  N3  UNL     1      10.470  66.413   1.938  1.00  0.00    -0.038 N
ATOM     21  H32 UNL     1      10.328  66.816   1.011  1.00  0.00     0.281 HD
ATOM     22  H31 UNL     1      11.346  66.869   2.193  1.00  0.00     0.281 HD
HETATM   23  C6  UNL     1      13.190  64.516   3.048  1.00  0.00     0.152 C
HETATM   24  O2  UNL     1      13.051  65.174   1.830  1.00  0.00    -0.379 OA
HETATM   25  C8  UNL     1      11.961  64.685   1.156  1.00  0.00     0.232 C
BRANCH  23  26
HETATM   26  C7  UNL     1      14.462  64.885   3.769  1.00  0.00     0.254 C
HETATM   27  F1  UNL     1      14.942  63.702   4.342  1.00  0.00    -0.253 F
ENDBRANCH  23  26
ENDBRANCH  10  13
ENDBRANCH   1   9
BRANCH   5  28
HETATM   28  C16 UNL     1       4.580  64.030   0.478  1.00  0.00     0.189 C
BRANCH  28  29
HETATM   29  O4  UNL     1       3.820  64.147   1.661  1.00  0.00    -0.399 OA
ATOM     30  H4  UNL     1       3.723  65.066   1.880  1.00  0.00     0.209 HD
ENDBRANCH  28  29
ENDBRANCH   5  28
BRANCH   7  31
HETATM   31  C18 UNL     1       6.438  61.717   2.283  1.00  0.00     0.089 C
HETATM   32  C19 UNL     1       7.447  61.099   3.261  1.00  0.00     0.052 C
HETATM   33  C20 UNL     1       7.559  59.676   2.842  1.00  0.00     0.175 C
HETATM   34  F2  UNL     1       7.887  58.870   3.935  1.00  0.00    -0.249 F
HETATM   35  C21 UNL     1       6.197  59.333   2.329  1.00  0.00     0.025 C
HETATM   36  C22 UNL     1       5.510  58.548   3.434  1.00  0.00     0.014 C
HETATM   37  C23 UNL     1       5.518  60.590   1.982  1.00  0.00    -0.022 C
HETATM   38  C24 UNL     1       4.162  60.751   2.632  1.00  0.00     0.011 C
HETATM   39  C27 UNL     1       5.145  60.552   0.499  1.00  0.00     0.011 C
HETATM   40  C25 UNL     1       3.151  60.170   1.686  1.00  0.00     0.001 C
HETATM   41  C26 UNL     1       3.945  59.589   0.531  1.00  0.00     0.001 C
ENDBRANCH   7  31
TORSDOF 6
ENDMDL