MODEL 1
REMARK VINA RESULT: -7.727022342      0.000      0.000
REMARK  7 active torsions:
REMARK  status: ('A' for Active; 'I' for Inactive)
REMARK    1  A    between atoms: C3_3  and  C4_4
REMARK    2  A    between atoms: C4_4  and  C5_5
REMARK    3  A    between atoms: C5_5  and  C6_6
REMARK       I    between atoms: C6_6  and  N1_8
REMARK    4  A    between atoms: N1_8  and  C7_10
REMARK    5  A    between atoms: C7_10  and  C9_12
REMARK       I    between atoms: C9_12  and  N2_14
REMARK    6  A    between atoms: N2_14  and  C10_16
REMARK    7  A    between atoms: C10_16  and  C11_17
REMARK       I    between atoms: C11_17  and  N3_19
ROOT
HETATM    1  C1  UNL     1       7.444  56.913   4.563  1.00  0.00     0.019 C
HETATM    2  C2  UNL     1       6.948  57.914   4.135  1.00  0.00    -0.066 C
HETATM    3  C3  UNL     1       6.345  59.176   3.623  1.00  0.00     0.108 C
HETATM    4  C21 UNL     1       5.192  58.990   3.036  1.00  0.00     0.189 C
HETATM    5  F1  UNL     1       4.746  57.676   3.002  1.00  0.00    -0.196 F
HETATM    6 BR1  UNL     1       4.128  60.281   2.217  1.00  0.00    -0.015 Br
ENDROOT
BRANCH   3   7
HETATM    7  C4  UNL     1       7.054  60.403   3.878  1.00  0.00    -0.098 C
BRANCH   7   8
HETATM    8  C5  UNL     1       7.632  61.401   4.086  1.00  0.00     0.131 C
BRANCH   8   9
HETATM    9  C6  UNL     1       7.864  62.560   3.140  1.00  0.00     0.249 C
HETATM   10  O1  UNL     1       6.918  63.269   2.781  1.00  0.00    -0.268 OA
HETATM   11  N1  UNL     1       9.143  62.846   2.649  1.00  0.00    -0.344 N
ATOM     12  H1  UNL     1       9.873  62.246   3.034  1.00  0.00     0.163 HD
BRANCH  11  13
HETATM   13  C7  UNL     1       9.624  63.800   1.726  1.00  0.00     0.172 C
HETATM   14  C8  UNL     1       9.130  63.374   0.299  1.00  0.00     0.042 C
BRANCH  13  15
HETATM   15  C9  UNL     1       9.125  65.184   1.865  1.00  0.00     0.241 C
HETATM   16  O2  UNL     1       8.790  65.781   0.818  1.00  0.00    -0.271 OA
HETATM   17  N2  UNL     1       9.068  65.740   3.128  1.00  0.00    -0.341 N
ATOM     18  H2  UNL     1       9.328  65.126   3.899  1.00  0.00     0.163 HD
BRANCH  17  19
HETATM   19  C10 UNL     1       8.677  67.112   3.496  1.00  0.00     0.116 C
HETATM   20  C18 UNL     1       9.693  68.075   3.063  1.00  0.00     0.057 C
HETATM   21  C19 UNL     1      10.498  67.707   4.335  1.00  0.00     0.064 C
HETATM   22  S2  UNL     1      11.636  66.361   4.099  1.00  0.00    -0.092 SA
HETATM   23  C20 UNL     1       9.144  67.417   4.938  1.00  0.00     0.057 C
BRANCH  19  24
HETATM   24  C11 UNL     1       7.257  67.316   3.399  1.00  0.00     0.250 C
HETATM   25  O3  UNL     1       6.871  68.205   2.550  1.00  0.00    -0.270 OA
HETATM   26  N3  UNL     1       6.153  66.702   4.101  1.00  0.00    -0.322 N
HETATM   27  C12 UNL     1       6.318  65.686   5.099  1.00  0.00     0.202 C
HETATM   28  C16 UNL     1       4.772  67.119   3.884  1.00  0.00     0.213 C
HETATM   29  S1  UNL     1       4.613  65.151   5.472  1.00  0.00    -0.137 SA
HETATM   30  C13 UNL     1       3.840  65.970   4.022  1.00  0.00     0.036 C
HETATM   31  C14 UNL     1       2.454  66.378   4.415  1.00  0.00     0.030 C
HETATM   32  C15 UNL     1       3.797  65.026   2.856  1.00  0.00     0.030 C
HETATM   33  C17 UNL     1       4.440  68.174   4.864  1.00  0.00     0.086 C
HETATM   34  N4  UNL     1       4.199  69.007   5.637  1.00  0.00    -0.195 NA
ENDBRANCH  19  24
ENDBRANCH  17  19
ENDBRANCH  13  15
ENDBRANCH  11  13
ENDBRANCH   8   9
ENDBRANCH   7   8
ENDBRANCH   3   7
TORSDOF 7
ENDMDL