MODEL 5
REMARK VINA RESULT: -8.744904429      1.644      2.402
REMARK  9 active torsions:
REMARK  status: ('A' for Active; 'I' for Inactive)
REMARK    1  A    between atoms: C3_3  and  C4_4
REMARK    2  A    between atoms: C4_4  and  C5_5
REMARK    3  A    between atoms: C5_5  and  N1_6
REMARK    4  A    between atoms: N1_6  and  C6_8
REMARK    5  A    between atoms: C7_11  and  N3_12
REMARK    6  A    between atoms: C8_14  and  C9_15
REMARK    7  A    between atoms: C16_23  and  O2_24
REMARK    8  A    between atoms: C18_26  and  O3_27
REMARK    9  A    between atoms: N5_35  and  C24_36
ROOT
HETATM    1  C1  UNL     1       4.949  63.933   5.869  1.00  0.00     0.112 C
HETATM    2  C2  UNL     1       5.635  63.096   4.874  1.00  0.00    -0.110 C
HETATM    3  C3  UNL     1       6.194  62.421   4.043  1.00  0.00    -0.087 C
ENDROOT
BRANCH   3   4
HETATM    4  C4  UNL     1       6.855  61.595   3.030  1.00  0.00     0.127 C
HETATM    5  C22 UNL     1       7.824  60.684   3.740  1.00  0.00     0.052 C
HETATM    6  C23 UNL     1       7.437  59.263   3.352  1.00  0.00     0.133 C
HETATM    7  N5  UNL     1       6.155  59.356   2.714  1.00  0.00    -0.296 N
HETATM    8  C25 UNL     1       5.864  60.706   2.309  1.00  0.00     0.345 C
HETATM    9  F1  UNL     1       4.585  61.019   2.718  1.00  0.00    -0.180 F
HETATM   10  F2  UNL     1       5.956  60.836   0.935  1.00  0.00    -0.180 F
BRANCH   4  11
HETATM   11  C5  UNL     1       7.551  62.429   1.989  1.00  0.00     0.169 C
BRANCH  11  12
HETATM   12  N1  UNL     1       8.942  62.654   2.292  1.00  0.00    -0.224 N
ATOM     13  H1  UNL     1       9.639  61.921   2.164  1.00  0.00     0.177 HD
BRANCH  12  14
HETATM   14  C6  UNL     1       9.269  63.823   2.731  1.00  0.00     0.680 A
HETATM   15  N2  UNL     1      10.478  64.012   3.209  1.00  0.00    -0.176 N
HETATM   16  C7  UNL     1      10.977  65.183   3.710  1.00  0.00     0.133 A
ATOM     17  H2  UNL     1      11.105  63.207   3.207  1.00  0.00     0.186 HD
HETATM   18  C14 UNL     1      10.069  66.247   3.684  1.00  0.00     0.039 A
HETATM   19  C15 UNL     1      10.427  67.487   4.154  1.00  0.00     0.057 A
HETATM   20  C21 UNL     1       8.795  66.085   3.190  1.00  0.00     0.066 A
HETATM   21  C16 UNL     1       9.527  68.554   4.133  1.00  0.00     0.102 A
HETATM   22  C18 UNL     1       8.258  68.374   3.635  1.00  0.00     0.103 A
HETATM   23  C20 UNL     1       7.887  67.140   3.162  1.00  0.00     0.070 A
HETATM   24  N4  UNL     1       8.422  64.860   2.719  1.00  0.00    -0.191 N
ATOM     25  H4  UNL     1       7.479  64.731   2.350  1.00  0.00     0.184 HD
BRANCH  16  26
HETATM   26  N3  UNL     1      12.122  65.207   4.121  1.00  0.00    -0.354 N
HETATM   27  C8  UNL     1      13.453  65.357   3.968  1.00  0.00     0.069 C
ATOM     28  H3  UNL     1      12.020  65.006   5.115  1.00  0.00     0.166 HD
BRANCH  27  29
HETATM   29  C9  UNL     1      14.286  65.247   5.253  1.00  0.00     0.048 C
HETATM   30  C10 UNL     1      14.850  63.840   5.263  1.00  0.00     0.014 C
HETATM   31  C11 UNL     1      15.481  63.593   6.609  1.00  0.00     0.027 C
HETATM   32  C12 UNL     1      15.183  64.671   7.606  1.00  0.00     0.167 C
HETATM   33  O1  UNL     1      13.877  65.076   7.627  1.00  0.00    -0.390 OA
HETATM   34  C13 UNL     1      13.327  65.361   6.406  1.00  0.00     0.177 C
ENDBRANCH  27  29
ENDBRANCH  16  26
BRANCH  21  35
HETATM   35  O2  UNL     1       9.958  69.771   4.622  1.00  0.00    -0.353 OA
HETATM   36  C17 UNL     1      10.384  70.789   3.747  1.00  0.00     0.210 C
ENDBRANCH  21  35
BRANCH  22  37
HETATM   37  O3  UNL     1       7.347  69.408   3.600  1.00  0.00    -0.353 OA
HETATM   38  C19 UNL     1       6.994  70.039   2.393  1.00  0.00     0.210 C
ENDBRANCH  22  37
ENDBRANCH  12  14
ENDBRANCH  11  12
ENDBRANCH   4  11
BRANCH   7  39
HETATM   39  C24 UNL     1       5.279  58.255   2.508  1.00  0.00     0.187 C
HETATM   40  N6  UNL     1       4.120  58.357   1.701  1.00  0.00    -0.070 NA
HETATM   41  S1  UNL     1       5.563  56.787   3.195  1.00  0.00    -0.044 SA
ENDBRANCH   7  39
ENDBRANCH   3   4
TORSDOF 9
ENDMDL