MODEL 2
REMARK VINA RESULT: -7.992442973      2.850      5.178
REMARK  10 active torsions:
REMARK  status: ('A' for Active; 'I' for Inactive)
REMARK    1  A    between atoms: C2_2  and  C3_5
REMARK    2  A    between atoms: C17_19  and  C18_20
REMARK    3  A    between atoms: C18_20  and  O1_21
REMARK    4  A    between atoms: N1_23  and  C19_24
REMARK    5  A    between atoms: N1_23  and  C21_28
REMARK    6  A    between atoms: C19_24  and  C20_25
REMARK    7  A    between atoms: C20_25  and  O2_26
REMARK    8  A    between atoms: C21_28  and  C22_29
REMARK       I    between atoms: C22_29  and  N2_31
REMARK    9  A    between atoms: N2_31  and  C23_33
REMARK   10  A    between atoms: C26_38  and  O6_39
ROOT
HETATM    1  C18 UNL     1       6.959  65.393   4.044  1.00  0.00     0.125 C
HETATM    2  N1  UNL     1       7.513  66.323   3.225  1.00  0.00    -0.354 N
ENDROOT
BRANCH   1   3
HETATM    3  C17 UNL     1       6.383  63.997   3.842  1.00  0.00     0.049 C
HETATM    4  C3  UNL     1       7.313  63.025   3.304  1.00  0.00     0.042 C
HETATM    5  C4  UNL     1       7.808  62.052   4.396  1.00  0.00     0.009 C
HETATM    6  C5  UNL     1       6.641  62.091   5.361  1.00  0.00     0.006 C
HETATM    7  C6  UNL     1       6.190  63.523   5.298  1.00  0.00     0.004 C
HETATM    8  C7  UNL     1       4.943  63.836   5.974  1.00  0.00     0.010 C
HETATM    9  C8  UNL     1       3.633  63.613   5.240  1.00  0.00    -0.013 C
HETATM   10  C9  UNL     1       2.640  64.623   5.586  1.00  0.00     0.005 C
HETATM   11  C16 UNL     1       3.935  63.266   3.823  1.00  0.00     0.023 C
HETATM   12  C10 UNL     1       1.857  65.426   4.665  1.00  0.00     0.001 C
HETATM   13  C11 UNL     1       1.887  66.955   4.946  1.00  0.00     0.012 C
HETATM   14  C12 UNL     1       3.241  67.519   4.391  1.00  0.00     0.094 C
HETATM   15  C13 UNL     1       3.999  66.390   3.938  1.00  0.00    -0.106 C
HETATM   16  C14 UNL     1       4.495  65.480   3.627  1.00  0.00    -0.101 C
HETATM   17  C15 UNL     1       5.041  64.195   3.253  1.00  0.00     0.082 C
BRANCH   4  18
HETATM   18  C2  UNL     1       7.221  62.227   2.105  1.00  0.00     0.114 C
HETATM   19  C1  UNL     1       8.611  61.553   1.910  1.00  0.00     0.051 C
HETATM   20 CL1  UNL     1       6.218  60.715   2.322  1.00  0.00    -0.102 Cl
HETATM   21 CL2  UNL     1       6.775  62.838   0.562  1.00  0.00    -0.102 Cl
ENDBRANCH   4  18
ENDBRANCH   1   3
BRANCH   1  22
HETATM   22  O1  UNL     1       6.925  65.826   5.292  1.00  0.00    -0.349 OA
ATOM     23  H1  UNL     1       7.685  66.330   5.555  1.00  0.00     0.219 HD
ENDBRANCH   1  22
BRANCH   2  24
HETATM   24  C19 UNL     1       8.000  67.591   3.846  1.00  0.00     0.151 C
BRANCH  24  25
HETATM   25  C20 UNL     1       9.463  67.514   4.154  1.00  0.00     0.183 C
BRANCH  25  26
HETATM   26  O2  UNL     1       9.762  66.783   5.280  1.00  0.00    -0.399 OA
ATOM     27  H2  UNL     1      10.045  67.309   6.018  1.00  0.00     0.209 HD
ENDBRANCH  25  26
ENDBRANCH  24  25
ENDBRANCH   2  24
BRANCH   2  28
HETATM   28  C21 UNL     1       7.682  66.283   1.825  1.00  0.00     0.227 C
BRANCH  28  29
HETATM   29  C22 UNL     1       8.832  65.568   1.275  1.00  0.00     0.236 C
HETATM   30  O3  UNL     1       8.957  65.349   0.065  1.00  0.00    -0.272 OA
HETATM   31  N2  UNL     1       9.855  65.098   2.131  1.00  0.00    -0.350 N
ATOM     32  H2  UNL     1       9.760  65.274   3.131  1.00  0.00     0.163 HD
BRANCH  31  33
HETATM   33  C23 UNL     1      11.024  64.386   1.677  1.00  0.00     0.149 C
HETATM   34  C24 UNL     1      11.880  63.857   2.784  1.00  0.00     0.141 C
HETATM   35  C25 UNL     1      13.198  64.513   2.558  1.00  0.00     0.263 C
HETATM   36  O4  UNL     1      14.328  64.123   3.013  1.00  0.00    -0.265 OA
HETATM   37  O5  UNL     1      12.960  65.624   1.759  1.00  0.00    -0.288 OA
HETATM   38  C26 UNL     1      11.934  65.241   0.832  1.00  0.00     0.289 C
BRANCH  38  39
HETATM   39  O6  UNL     1      12.573  64.515  -0.172  1.00  0.00    -0.369 OA
ATOM     40  H6  UNL     1      13.016  65.073  -0.801  1.00  0.00     0.212 HD
ENDBRANCH  38  39
ENDBRANCH  31  33
ENDBRANCH  28  29
ENDBRANCH   2  28
TORSDOF 10
ENDMDL