MODEL 4
REMARK VINA RESULT: -8.465337794      3.023      5.003
REMARK  8 active torsions:
REMARK  status: ('A' for Active; 'I' for Inactive)
REMARK    1  A    between atoms: C2_2  and  N1_3
REMARK    2  A    between atoms: N1_3  and  C3_5
REMARK    3  A    between atoms: C4_8  and  N3_9
REMARK    4  A    between atoms: N3_9  and  C5_11
REMARK    5  A    between atoms: N4_14  and  C8_15
REMARK    6  A    between atoms: C9_18  and  N6_19
REMARK    7  A    between atoms: N6_19  and  C10_20
REMARK    8  A    between atoms: C13_23  and  N7_24
ROOT
HETATM    1  C5  UNL     1      11.096  67.316   4.100  1.00  0.00     0.118 C
HETATM    2  C6  UNL     1      11.945  66.345   4.854  1.00  0.00     0.047 C
HETATM    3  C7  UNL     1      12.106  65.158   3.962  1.00  0.00     0.126 C
HETATM    4  N4  UNL     1      10.985  65.219   3.062  1.00  0.00    -0.364 N
HETATM    5  C20 UNL     1      10.596  66.602   2.885  1.00  0.00     0.150 C
ENDROOT
BRANCH   4   6
HETATM    6  C8  UNL     1      10.298  64.146   2.413  1.00  0.00     0.126 A
HETATM    7  N5  UNL     1       9.353  63.458   3.066  1.00  0.00    -0.301 N
HETATM    8  C9  UNL     1       8.666  62.427   2.469  1.00  0.00     0.255 A
ATOM      9  H5  UNL     1       9.137  63.704   4.031  1.00  0.00     0.171 HD
HETATM   10  N8  UNL     1       8.979  62.131   1.198  1.00  0.00    -0.325 N
HETATM   11  C18 UNL     1       9.928  62.804   0.509  1.00  0.00     0.115 A
ATOM     12  H8  UNL     1       8.484  61.369   0.735  1.00  0.00     0.169 HD
HETATM   13  C19 UNL     1      10.598  63.821   1.109  1.00  0.00     0.070 A
HETATM   14 BR1  UNL     1      11.956  64.806   0.170  1.00  0.00    -0.046 Br
BRANCH   8  15
HETATM   15  N6  UNL     1       7.822  61.851   3.097  1.00  0.00    -0.410 NA
BRANCH  15  16
HETATM   16  C10 UNL     1       7.041  60.862   3.569  1.00  0.00     0.167 C
HETATM   17  C11 UNL     1       5.650  60.842   2.950  1.00  0.00     0.041 C
HETATM   18  C12 UNL     1       5.706  59.881   1.791  1.00  0.00     0.038 C
HETATM   19  C13 UNL     1       5.712  58.456   2.280  1.00  0.00     0.222 C
HETATM   20  C16 UNL     1       6.629  58.407   3.500  1.00  0.00     0.038 C
HETATM   21  C17 UNL     1       7.670  59.472   3.472  1.00  0.00     0.041 C
BRANCH  19  22
HETATM   22  N7  UNL     1       4.440  57.961   2.665  1.00  0.00     0.084 N
HETATM   23  C14 UNL     1       4.600  56.614   3.178  1.00  0.00     0.309 C
HETATM   24  C15 UNL     1       3.451  57.909   1.634  1.00  0.00     0.309 C
ENDBRANCH  19  22
ENDBRANCH  15  16
ENDBRANCH   8  15
ENDBRANCH   4   6
BRANCH   1  25
HETATM   25  N3  UNL     1      10.032  67.860   4.906  1.00  0.00    -0.220 N
ATOM     26  H3  UNL     1      10.294  68.475   5.676  1.00  0.00     0.178 HD
BRANCH  25  27
HETATM   27  C4  UNL     1       8.781  67.634   4.732  1.00  0.00     0.679 A
HETATM   28  N2  UNL     1       8.239  66.403   4.755  1.00  0.00    -0.175 N
HETATM   29  C3  UNL     1       6.916  66.181   4.569  1.00  0.00     0.140 A
ATOM     30  H2  UNL     1       8.850  65.604   4.919  1.00  0.00     0.186 HD
HETATM   31  C22 UNL     1       6.123  67.271   4.350  1.00  0.00     0.094 A
HETATM   32  C21 UNL     1       6.655  68.558   4.320  1.00  0.00     0.133 A
HETATM   33 CL1  UNL     1       4.396  67.163   4.094  1.00  0.00    -0.079 Cl
HETATM   34  N9  UNL     1       7.982  68.714   4.513  1.00  0.00    -0.200 N
ATOM     35  H9  UNL     1       8.389  69.649   4.494  1.00  0.00     0.183 HD
BRANCH  29  36
HETATM   36  N1  UNL     1       6.485  65.005   4.605  1.00  0.00    -0.375 N
ATOM     37  H1  UNL     1       6.511  64.539   3.697  1.00  0.00     0.161 HD
BRANCH  36  38
HETATM   38  C2  UNL     1       5.972  64.189   5.631  1.00  0.00     0.116 C
HETATM   39  C1  UNL     1       4.637  63.610   5.108  1.00  0.00     0.026 C
ENDBRANCH  36  38
ENDBRANCH  29  36
ENDBRANCH  25  27
ENDBRANCH   1  25
TORSDOF 8
ENDMDL