MODEL 4
REMARK VINA RESULT: -7.166158459      2.673      6.702
REMARK  7 active torsions:
REMARK  status: ('A' for Active; 'I' for Inactive)
REMARK    1  A    between atoms: C2_2  and  C3_3
REMARK    2  A    between atoms: C3_3  and  C5_5
REMARK    3  A    between atoms: C7_10  and  C8_11
REMARK    4  A    between atoms: C11_16  and  O2_17
REMARK    5  A    between atoms: C12_19  and  C13_20
REMARK    6  A    between atoms: C13_20  and  C14_22
REMARK    7  A    between atoms: C14_22  and  C15_24
ROOT
HETATM    1  C5  UNL     1       6.103  60.665   3.168  1.00  0.00     0.061 C
HETATM    2  N1  UNL     1       5.316  61.588   3.490  1.00  0.00    -0.325 N
ATOM      3  H1  UNL     1       4.626  61.290   4.180  1.00  0.00     0.168 HD
HETATM    4  C6  UNL     1       5.164  62.909   3.132  1.00  0.00     0.244 C
HETATM    5  O1  UNL     1       4.250  63.398   2.378  1.00  0.00    -0.271 OA
HETATM    6  C7  UNL     1       6.131  63.921   3.641  1.00  0.00     0.175 C
HETATM    7  N2  UNL     1       6.350  64.892   2.600  1.00  0.00    -0.382 N
ATOM      8  H2  UNL     1       5.691  65.021   1.833  1.00  0.00     0.156 HD
HETATM    9  C11 UNL     1       7.540  65.657   2.708  1.00  0.00     0.244 C
HETATM   10  C12 UNL     1       8.785  64.932   2.169  1.00  0.00     0.204 C
HETATM   11  N3  UNL     1       8.634  64.660   0.829  1.00  0.00    -0.347 N
HETATM   12  C18 UNL     1       8.417  65.688  -0.102  1.00  0.00     0.100 C
HETATM   13  C19 UNL     1       8.879  65.327  -1.514  1.00  0.00     0.234 C
HETATM   14  F1  UNL     1       8.480  66.402  -2.315  1.00  0.00    -0.242 F
HETATM   15  C20 UNL     1       8.157  64.110  -1.981  1.00  0.00     0.277 C
HETATM   16  N4  UNL     1       7.771  63.321  -0.833  1.00  0.00    -0.051 N
ATOM     17  H41 UNL     1       7.575  62.352  -1.085  1.00  0.00     0.279 HD
ATOM     18  H42 UNL     1       6.846  63.577  -0.488  1.00  0.00     0.279 HD
HETATM   19  C21 UNL     1       8.805  63.419   0.229  1.00  0.00     0.287 C
HETATM   20  C22 UNL     1       8.692  62.174   1.010  1.00  0.00     0.062 C
HETATM   21  C23 UNL     1       7.306  61.569   1.041  1.00  0.00     0.089 C
HETATM   22  C24 UNL     1       7.197  60.727   2.225  1.00  0.00     0.172 C
HETATM   23  O4  UNL     1       8.201  59.962   2.436  1.00  0.00    -0.291 OA
ENDROOT
BRANCH  10  24
HETATM   24  C13 UNL     1       9.965  65.723   2.611  1.00  0.00     0.168 C
HETATM   25  O3  UNL     1      10.009  66.929   2.428  1.00  0.00    -0.294 OA
BRANCH  24  26
HETATM   26  C14 UNL     1      11.123  65.114   3.288  1.00  0.00     0.133 C
HETATM   27 BR1  UNL     1      11.606  66.408   4.699  1.00  0.00    -0.083 Br
BRANCH  26  28
HETATM   28  C15 UNL     1      12.343  65.108   2.378  1.00  0.00    -0.001 C
HETATM   29  C16 UNL     1      12.227  64.089   1.293  1.00  0.00     0.011 C
HETATM   30  C17 UNL     1      13.562  64.875   3.267  1.00  0.00     0.011 C
ENDBRANCH  26  28
ENDBRANCH  24  26
ENDBRANCH  10  24
BRANCH   9  31
HETATM   31  O2  UNL     1       7.422  66.842   2.012  1.00  0.00    -0.375 OA
ATOM     32  H2  UNL     1       6.835  67.439   2.462  1.00  0.00     0.212 HD
ENDBRANCH   9  31
BRANCH   6  33
HETATM   33  C8  UNL     1       5.597  64.614   4.879  1.00  0.00     0.009 C
HETATM   34  C9  UNL     1       4.471  65.563   4.526  1.00  0.00     0.012 C
HETATM   35  C10 UNL     1       5.155  63.674   5.952  1.00  0.00     0.012 C
ENDBRANCH   6  33
BRANCH   1  36
HETATM   36  C3  UNL     1       5.894  59.324   3.837  1.00  0.00     0.035 C
HETATM   37  C4  UNL     1       7.208  58.696   4.222  1.00  0.00     0.016 C
BRANCH  36  38
HETATM   38  C2  UNL     1       5.207  58.368   2.883  1.00  0.00     0.006 C
HETATM   39  C1  UNL     1       5.775  56.971   3.013  1.00  0.00     0.006 C
ENDBRANCH  36  38
ENDBRANCH   1  36
TORSDOF 7
ENDMDL