MODEL 3
REMARK VINA RESULT: -8.187255572      2.433      3.454
REMARK  9 active torsions:
REMARK  status: ('A' for Active; 'I' for Inactive)
REMARK    1  A    between atoms: N2_8  and  C5_9
REMARK    2  A    between atoms: C5_9  and  C6_10
REMARK    3  A    between atoms: C6_10  and  C7_11
REMARK    4  A    between atoms: C7_11  and  N3_12
REMARK    5  A    between atoms: N3_12  and  C8_14
REMARK    6  A    between atoms: C8_14  and  N4_16
REMARK    7  A    between atoms: N4_16  and  N5_18
REMARK    8  A    between atoms: C9_20  and  C10_21
REMARK    9  A    between atoms: C16_29  and  O2_30
ROOT
HETATM    1  C8  UNL     1       8.299  64.373  -0.384  1.00  0.00     0.186 C
HETATM    2  S1  UNL     1       7.213  65.557  -0.017  1.00  0.00    -0.040 SA
ENDROOT
BRANCH   1   3
HETATM    3  N3  UNL     1       9.640  64.504   0.043  1.00  0.00    -0.366 N
ATOM      4  H3  UNL     1       9.955  65.399   0.416  1.00  0.00     0.161 HD
BRANCH   3   5
HETATM    5  C7  UNL     1      10.573  63.415  -0.033  1.00  0.00     0.123 C
BRANCH   5   6
HETATM    6  C6  UNL     1      11.555  63.362   1.115  1.00  0.00     0.040 C
BRANCH   6   7
HETATM    7  C5  UNL     1      12.249  64.703   1.180  1.00  0.00     0.137 C
BRANCH   7   8
HETATM    8  N2  UNL     1      12.144  65.287   2.522  1.00  0.00    -0.282 N
HETATM    9  C4  UNL     1      13.164  65.010   3.463  1.00  0.00     0.244 A
HETATM   10  C3  UNL     1      13.062  65.597   4.815  1.00  0.00     0.223 A
HETATM   11  O1  UNL     1      14.164  64.267   3.171  1.00  0.00    -0.271 OA
HETATM   12  N1  UNL     1      11.923  66.407   5.045  1.00  0.00    -0.380 N
HETATM   13  C2  UNL     1      10.969  66.697   4.244  1.00  0.00     0.070 A
ATOM     14  H1  UNL     1      11.854  66.815   5.978  1.00  0.00     0.160 HD
HETATM   15  C1  UNL     1       9.832  67.573   4.649  1.00  0.00     0.074 C
HETATM   16  C17 UNL     1      11.058  66.119   2.900  1.00  0.00     0.272 A
HETATM   17  O3  UNL     1      10.141  66.380   2.083  1.00  0.00    -0.266 OA
ENDBRANCH   7   8
ENDBRANCH   6   7
ENDBRANCH   5   6
ENDBRANCH   3   5
ENDBRANCH   1   3
BRANCH   1  18
HETATM   18  N4  UNL     1       7.907  63.230  -1.118  1.00  0.00    -0.277 N
ATOM     19  H4  UNL     1       8.237  63.123  -2.078  1.00  0.00     0.189 HD
BRANCH  18  20
HETATM   20  N5  UNL     1       7.078  62.237  -0.572  1.00  0.00    -0.309 N
HETATM   21  C9  UNL     1       7.009  62.008   0.675  1.00  0.00     0.122 C
ATOM     22  H5  UNL     1       6.507  61.676  -1.204  1.00  0.00     0.186 HD
BRANCH  21  23
HETATM   23  C10 UNL     1       6.187  61.012   1.307  1.00  0.00     0.022 A
HETATM   24  C11 UNL     1       6.812  60.199   2.252  1.00  0.00    -0.030 A
HETATM   25  C12 UNL     1       8.276  60.406   2.534  1.00  0.00     0.050 C
HETATM   26  C13 UNL     1       6.113  59.224   2.915  1.00  0.00     0.019 A
HETATM   27 BR1  UNL     1       6.999  58.138   4.191  1.00  0.00    -0.051 Br
HETATM   28  C14 UNL     1       4.777  59.052   2.640  1.00  0.00     0.041 A
HETATM   29  C15 UNL     1       4.140  59.835   1.718  1.00  0.00     0.046 A
HETATM   30 BR2  UNL     1       2.284  59.602   1.330  1.00  0.00    -0.048 Br
HETATM   31  C16 UNL     1       4.837  60.841   1.026  1.00  0.00     0.095 A
BRANCH  31  32
HETATM   32  O2  UNL     1       4.163  61.591   0.123  1.00  0.00    -0.358 OA
ATOM     33  H2  UNL     1       3.652  62.357   0.357  1.00  0.00     0.217 HD
ENDBRANCH  31  32
ENDBRANCH  21  23
ENDBRANCH  18  20
ENDBRANCH   1  18
TORSDOF 9
ENDMDL