MODEL 2
REMARK VINA RESULT: -7.067707298      2.600      4.912
REMARK  9 active torsions:
REMARK  status: ('A' for Active; 'I' for Inactive)
REMARK    1  A    between atoms: C2_2  and  C4_5
REMARK       I    between atoms: C4_5  and  N1_7
REMARK    2  A    between atoms: C8_11  and  C9_12
REMARK       I    between atoms: C9_12  and  N2_14
REMARK    3  A    between atoms: N2_14  and  C10_16
REMARK    4  A    between atoms: C10_16  and  C11_17
REMARK    5  A    between atoms: C11_17  and  O3_18
REMARK    6  A    between atoms: C11_17  and  N3_20
REMARK    7  A    between atoms: C14_23  and  C15_24
REMARK    8  A    between atoms: C14_23  and  C16_27
REMARK    9  A    between atoms: C15_24  and  O4_25
ROOT
HETATM    1  C10 UNL     1       9.370  64.342   1.617  1.00  0.00     0.128 C
HETATM    2  C22 UNL     1       8.816  63.606   0.376  1.00  0.00     0.043 C
HETATM    3  C23 UNL     1       9.570  64.122  -0.797  1.00  0.00     0.006 C
HETATM    4  C24 UNL     1      10.856  64.683  -0.292  1.00  0.00     0.040 C
HETATM    5  C25 UNL     1      10.725  64.792   1.223  1.00  0.00     0.206 C
HETATM    6  F2  UNL     1      10.932  66.151   1.526  1.00  0.00    -0.246 F
ENDROOT
BRANCH   1   7
HETATM    7  N2  UNL     1       8.499  65.501   1.835  1.00  0.00    -0.340 N
HETATM    8  C9  UNL     1       7.099  65.493   1.725  1.00  0.00     0.241 C
HETATM    9  O2  UNL     1       6.397  64.514   1.428  1.00  0.00    -0.271 OA
ATOM     10  H2  UNL     1       8.945  66.383   2.086  1.00  0.00     0.163 HD
BRANCH   8  11
HETATM   11  C8  UNL     1       6.362  66.772   1.983  1.00  0.00     0.179 C
HETATM   12  N1  UNL     1       7.035  67.599   2.966  1.00  0.00    -0.337 N
HETATM   13  C4  UNL     1       7.860  68.721   2.683  1.00  0.00     0.239 C
HETATM   14  C5  UNL     1       6.676  67.028   4.250  1.00  0.00     0.127 C
HETATM   15  O1  UNL     1       8.051  69.057   1.483  1.00  0.00    -0.272 OA
HETATM   16  C6  UNL     1       5.372  66.281   4.055  1.00  0.00     0.022 C
HETATM   17  C7  UNL     1       5.002  66.468   2.607  1.00  0.00     0.037 C
BRANCH  13  18
HETATM   18  C2  UNL     1       8.519  69.534   3.730  1.00  0.00     0.092 C
HETATM   19  C1  UNL     1       9.126  70.799   3.148  1.00  0.00     0.038 C
HETATM   20  C3  UNL     1       7.461  69.962   4.724  1.00  0.00     0.038 C
HETATM   21  S1  UNL     1       9.808  68.650   4.603  1.00  0.00    -0.077 SA
ENDBRANCH  13  18
ENDBRANCH   8  11
ENDBRANCH   1   7
BRANCH   1  22
HETATM   22  C11 UNL     1       9.265  63.462   2.789  1.00  0.00     0.145 C
BRANCH  22  23
HETATM   23  O3  UNL     1      10.009  63.733   3.822  1.00  0.00    -0.347 OA
ATOM     24  H3  UNL     1       9.762  63.356   4.658  1.00  0.00     0.219 HD
ENDBRANCH  22  23
BRANCH  22  25
HETATM   25  N3  UNL     1       8.456  62.335   2.970  1.00  0.00    -0.361 N
HETATM   26  C12 UNL     1       7.803  62.101   4.278  1.00  0.00     0.126 C
HETATM   27  C13 UNL     1       6.963  60.866   4.234  1.00  0.00     0.037 C
HETATM   28  C14 UNL     1       5.963  60.888   3.101  1.00  0.00     0.041 C
HETATM   29  C20 UNL     1       6.643  61.208   1.821  1.00  0.00     0.201 C
HETATM   30  F1  UNL     1       6.428  60.342   0.792  1.00  0.00    -0.247 F
HETATM   31  C21 UNL     1       8.173  61.351   1.978  1.00  0.00     0.162 C
BRANCH  28  32
HETATM   32  C15 UNL     1       4.987  62.034   3.414  1.00  0.00     0.179 C
BRANCH  32  33
HETATM   33  O4  UNL     1       4.422  62.552   2.254  1.00  0.00    -0.400 OA
ATOM     34  H4  UNL     1       4.069  61.865   1.702  1.00  0.00     0.209 HD
ENDBRANCH  32  33
ENDBRANCH  28  32
BRANCH  28  35
HETATM   35  C16 UNL     1       5.165  59.634   3.135  1.00  0.00     0.135 C
HETATM   36  C17 UNL     1       5.952  58.364   3.193  1.00  0.00     0.035 C
HETATM   37  C18 UNL     1       4.895  57.362   2.707  1.00  0.00     0.029 C
HETATM   38  C19 UNL     1       4.173  58.217   1.694  1.00  0.00     0.168 C
HETATM   39  O5  UNL     1       4.261  59.520   2.088  1.00  0.00    -0.385 OA
ENDBRANCH  28  35
ENDBRANCH  22  25
ENDBRANCH   1  22
TORSDOF 9
ENDMDL