MODEL 2
REMARK VINA RESULT: -7.508465179      2.371      3.150
REMARK  9 active torsions:
REMARK  status: ('A' for Active; 'I' for Inactive)
REMARK    1  A    between atoms: C2_2  and  C3_3
REMARK    2  A    between atoms: C3_3  and  C5_6
REMARK    3  A    between atoms: C3_3  and  N2_9
REMARK    4  A    between atoms: C5_6  and  O1_7
REMARK    5  A    between atoms: N2_9  and  C6_11
REMARK    6  A    between atoms: C7_14  and  N4_15
REMARK       I    between atoms: N4_15  and  C8_17
REMARK    7  A    between atoms: C8_17  and  C9_19
REMARK    8  A    between atoms: C11_21  and  O3_22
REMARK    9  A    between atoms: C13_24  and  O4_25
ROOT
HETATM    1  C3  UNL     1       6.658  60.861   3.028  1.00  0.00     0.142 C
HETATM    2  C4  UNL     1       6.686  61.267   1.577  1.00  0.00     0.093 C
HETATM    3  N1  UNL     1       6.717  61.583   0.465  1.00  0.00    -0.194 NA
ENDROOT
BRANCH   1   4
HETATM    4  C2  UNL     1       7.722  59.760   3.112  1.00  0.00     0.044 C
HETATM    5  C1  UNL     1       7.186  58.569   3.870  1.00  0.00     0.009 C
ENDBRANCH   1   4
BRANCH   1   6
HETATM    6  C5  UNL     1       5.277  60.292   3.230  1.00  0.00     0.210 C
BRANCH   6   7
HETATM    7  O1  UNL     1       4.391  60.512   2.216  1.00  0.00    -0.397 OA
ATOM      8  H1  UNL     1       3.592  59.998   2.246  1.00  0.00     0.209 HD
ENDBRANCH   6   7
ENDBRANCH   1   6
BRANCH   1   9
HETATM    9  N2  UNL     1       7.029  61.954   3.773  1.00  0.00    -0.351 N
ATOM     10  H2  UNL     1       7.063  61.662   4.749  1.00  0.00     0.163 HD
BRANCH   9  11
HETATM   11  C6  UNL     1       7.336  63.140   3.735  1.00  0.00     0.137 A
HETATM   12  N3  UNL     1       8.287  63.706   2.989  1.00  0.00    -0.175 N
HETATM   13  C7  UNL     1       8.580  65.020   2.987  1.00  0.00     0.686 A
ATOM     14  H3  UNL     1       8.830  63.099   2.376  1.00  0.00     0.186 HD
HETATM   15  N5  UNL     1       7.870  65.820   3.789  1.00  0.00    -0.200 N
HETATM   16  C17 UNL     1       6.892  65.350   4.580  1.00  0.00     0.129 A
ATOM     17  H5  UNL     1       8.078  66.819   3.802  1.00  0.00     0.183 HD
HETATM   18  C18 UNL     1       6.604  64.003   4.571  1.00  0.00     0.071 A
HETATM   19 BR2  UNL     1       5.213  63.347   5.699  1.00  0.00    -0.046 Br
BRANCH  13  20
HETATM   20  N4  UNL     1       9.507  65.526   2.249  1.00  0.00    -0.155 N
HETATM   21  C8  UNL     1      10.439  66.462   2.830  1.00  0.00     0.271 C
HETATM   22  O2  UNL     1      10.217  67.688   2.775  1.00  0.00    -0.267 OA
ATOM     23  H4  UNL     1       9.582  65.268   1.265  1.00  0.00     0.187 HD
BRANCH  21  24
HETATM   24  C9  UNL     1      11.643  65.972   3.484  1.00  0.00     0.053 A
HETATM   25  C10 UNL     1      11.918  66.339   4.801  1.00  0.00     0.058 A
HETATM   26  C11 UNL     1      13.041  65.898   5.450  1.00  0.00     0.102 A
HETATM   27  C13 UNL     1      13.910  65.072   4.772  1.00  0.00     0.102 A
HETATM   28  C15 UNL     1      13.678  64.682   3.469  1.00  0.00     0.059 A
HETATM   29  C16 UNL     1      12.532  65.150   2.846  1.00  0.00     0.029 A
HETATM   30 BR1  UNL     1      12.170  64.644   1.057  1.00  0.00    -0.050 Br
BRANCH  26  31
HETATM   31  O3  UNL     1      13.330  66.250   6.753  1.00  0.00    -0.353 OA
HETATM   32  C12 UNL     1      13.342  65.234   7.733  1.00  0.00     0.210 C
ENDBRANCH  26  31
BRANCH  27  33
HETATM   33  O4  UNL     1      15.045  64.640   5.460  1.00  0.00    -0.353 OA
HETATM   34  C14 UNL     1      15.465  63.303   5.485  1.00  0.00     0.210 C
ENDBRANCH  27  33
ENDBRANCH  21  24
ENDBRANCH  13  20
ENDBRANCH   9  11
ENDBRANCH   1   9
TORSDOF 9
ENDMDL