MODEL 3
REMARK VINA RESULT: -8.001436388      2.401      3.723
REMARK  9 active torsions:
REMARK  status: ('A' for Active; 'I' for Inactive)
REMARK    1  A    between atoms: N1_2  and  C2_3
REMARK    2  A    between atoms: N1_2  and  C4_8
REMARK    3  A    between atoms: C2_3  and  O1_4
REMARK    4  A    between atoms: C8_15  and  C9_16
REMARK       I    between atoms: C9_16  and  N3_18
REMARK    5  A    between atoms: N3_18  and  C10_20
REMARK    6  A    between atoms: C10_20  and  C11_21
REMARK    7  A    between atoms: C11_21  and  C12_22
REMARK    8  A    between atoms: C17_31  and  C18_32
REMARK    9  A    between atoms: C18_32  and  C19_33
ROOT
HETATM    1  C9  UNL     1       8.319  66.460   3.809  1.00  0.00     0.225 C
HETATM    2  O2  UNL     1       8.238  67.450   4.563  1.00  0.00    -0.273 OA
HETATM    3  N3  UNL     1       7.369  65.425   3.899  1.00  0.00    -0.361 N
ATOM      4  H3  UNL     1       7.452  64.635   3.259  1.00  0.00     0.162 HD
ENDROOT
BRANCH   3   5
HETATM    5  C10 UNL     1       6.290  65.423   4.843  1.00  0.00     0.125 C
BRANCH   5   6
HETATM    6  C11 UNL     1       5.013  64.994   4.173  1.00  0.00     0.052 C
BRANCH   6   7
HETATM    7  C12 UNL     1       4.753  63.491   4.268  1.00  0.00     0.132 C
HETATM    8  C13 UNL     1       3.985  62.968   3.113  1.00  0.00     0.108 C
HETATM    9  C14 UNL     1       4.855  62.928   1.882  1.00  0.00     0.088 A
HETATM   10  N4  UNL     1       4.693  63.243   0.597  1.00  0.00    -0.339 N
HETATM   11  N5  UNL     1       6.105  62.489   2.149  1.00  0.00    -0.317 N
HETATM   12  C15 UNL     1       5.867  63.014  -0.035  1.00  0.00     0.096 A
ATOM     13  H4  UNL     1       3.837  63.594   0.167  1.00  0.00     0.168 HD
HETATM   14 BR1  UNL     1       6.273  63.272  -1.885  1.00  0.00    -0.030 Br
HETATM   15  C16 UNL     1       6.715  62.557   0.924  1.00  0.00     0.132 A
HETATM   16  C17 UNL     1       6.488  62.112   3.460  1.00  0.00     0.229 C
HETATM   17  O3  UNL     1       5.979  62.914   4.475  1.00  0.00    -0.360 OA
BRANCH  16  18
HETATM   18  C18 UNL     1       6.322  60.714   3.891  1.00  0.00     0.062 C
BRANCH  18  19
HETATM   19  C19 UNL     1       6.953  59.611   3.155  1.00  0.00    -0.047 C
HETATM   20  C20 UNL     1       7.120  58.325   3.926  1.00  0.00     0.014 C
HETATM   21  C21 UNL     1       5.958  59.204   2.015  1.00  0.00     0.014 C
HETATM   22  C22 UNL     1       8.216  59.971   2.440  1.00  0.00     0.014 C
ENDBRANCH  18  19
ENDBRANCH  16  18
ENDBRANCH   6   7
ENDBRANCH   5   6
ENDBRANCH   3   5
BRANCH   1  23
HETATM   23  C8  UNL     1       9.445  66.413   2.822  1.00  0.00     0.126 C
HETATM   24  C4  UNL     1       9.679  65.015   2.379  1.00  0.00     0.102 C
HETATM   25  C5  UNL     1      10.919  64.353   2.883  1.00  0.00     0.054 C
HETATM   26  C6  UNL     1      11.863  65.197   3.653  1.00  0.00     0.234 C
HETATM   27  N2  UNL     1      11.212  66.252   4.410  1.00  0.00    -0.074 N
HETATM   28  C7  UNL     1      10.612  67.129   3.419  1.00  0.00     0.248 C
ATOM     29  H22 UNL     1      10.551  65.908   5.107  1.00  0.00     0.277 HD
ATOM     30  H21 UNL     1      11.833  66.733   5.060  1.00  0.00     0.277 HD
BRANCH  24  31
HETATM   31  N1  UNL     1       9.590  64.893   0.891  1.00  0.00    -0.360 N
HETATM   32  C1  UNL     1       8.606  65.697   0.199  1.00  0.00     0.152 C
BRANCH  31  33
HETATM   33  C2  UNL     1      10.433  64.020   0.198  1.00  0.00     0.149 C
HETATM   34  C3  UNL     1      11.793  64.196  -0.255  1.00  0.00     0.140 C
HETATM   35 CL1  UNL     1      12.534  65.771  -0.052  1.00  0.00    -0.092 Cl
BRANCH  33  36
HETATM   36  O1  UNL     1       9.902  62.865  -0.084  1.00  0.00    -0.346 OA
ATOM     37  H1  UNL     1      10.478  62.267  -0.546  1.00  0.00     0.219 HD
ENDBRANCH  33  36
ENDBRANCH  31  33
ENDBRANCH  24  31
ENDBRANCH   1  23
TORSDOF 9
ENDMDL