MODEL 1
REMARK VINA RESULT: -7.990791476      0.000      0.000
REMARK  7 active torsions:
REMARK  status: ('A' for Active; 'I' for Inactive)
REMARK    1  A    between atoms: C2_2  and  C3_3
REMARK    2  A    between atoms: C4_4  and  C5_5
REMARK       I    between atoms: C5_5  and  N1_7
REMARK       I    between atoms: N5_25  and  C17_26
REMARK    3  A    between atoms: C17_26  and  C18_28
REMARK    4  A    between atoms: C18_28  and  O3_29
REMARK    5  A    between atoms: O3_29  and  C19_30
REMARK    6  A    between atoms: C22_35  and  C23_36
REMARK    7  A    between atoms: C24_37  and  C25_38
ROOT
HETATM    1  C5  UNL     1      10.245  66.514   1.896  1.00  0.00     0.226 C
HETATM    2  O1  UNL     1      11.444  66.514   2.273  1.00  0.00    -0.273 OA
HETATM    3  N1  UNL     1       9.451  67.567   2.405  1.00  0.00    -0.335 N
HETATM    4  C6  UNL     1       8.061  67.841   2.112  1.00  0.00     0.127 C
HETATM    5  C7  UNL     1       7.471  68.337   3.431  1.00  0.00     0.023 C
HETATM    6  C8  UNL     1       8.663  68.594   4.304  1.00  0.00     0.042 C
HETATM    7  C9  UNL     1       9.820  68.619   3.346  1.00  0.00     0.194 C
HETATM    8  C10 UNL     1       9.872  69.914   2.710  1.00  0.00     0.084 C
HETATM    9  N2  UNL     1       9.912  70.965   2.189  1.00  0.00    -0.195 NA
ENDROOT
BRANCH   1  10
HETATM   10  C4  UNL     1       9.640  65.526   0.996  1.00  0.00     0.093 C
HETATM   11  C3  UNL     1      10.572  64.955  -0.024  1.00  0.00     0.028 C
HETATM   12  C14 UNL     1      10.688  63.480   0.285  1.00  0.00     0.029 C
HETATM   13  C13 UNL     1      11.383  63.345   1.664  1.00  0.00     0.009 C
HETATM   14  C15 UNL     1       9.295  63.093   0.698  1.00  0.00     0.100 C
HETATM   15  C12 UNL     1      10.318  63.847   2.588  1.00  0.00     0.009 C
HETATM   16  C11 UNL     1       9.148  64.285   1.678  1.00  0.00     0.035 C
HETATM   17  N3  UNL     1       9.246  61.954   1.597  1.00  0.00    -0.210 N
HETATM   18  C28 UNL     1       8.270  62.981  -0.312  1.00  0.00     0.067 A
HETATM   19  C16 UNL     1       8.032  61.303   1.933  1.00  0.00     0.682 C
ATOM     20  H3  UNL     1      10.116  61.611   2.004  1.00  0.00     0.179 HD
HETATM   21  N4  UNL     1       7.940  60.556   2.973  1.00  0.00    -0.234 N
HETATM   22  N5  UNL     1       6.873  61.467   1.102  1.00  0.00    -0.112 N
ATOM     23  H42 UNL     1       8.763  60.439   3.563  1.00  0.00     0.174 HD
ATOM     24  H41 UNL     1       7.066  60.088   3.214  1.00  0.00     0.174 HD
HETATM   25  C17 UNL     1       5.644  60.865   1.479  1.00  0.00     0.267 C
HETATM   26  C20 UNL     1       7.060  62.323  -0.037  1.00  0.00     0.086 A
HETATM   27  O2  UNL     1       4.587  61.172   0.899  1.00  0.00    -0.270 OA
HETATM   28  C21 UNL     1       6.043  62.318  -0.979  1.00  0.00     0.054 A
HETATM   29  C22 UNL     1       6.180  62.957  -2.227  1.00  0.00     0.035 A
HETATM   30  C27 UNL     1       7.377  63.582  -2.454  1.00  0.00     0.109 A
HETATM   31  N6  UNL     1       8.319  63.559  -1.519  1.00  0.00    -0.364 N
ATOM     32  H6  UNL     1       9.188  64.042  -1.747  1.00  0.00     0.165 HD
BRANCH  11  33
HETATM   33  C2  UNL     1      11.783  65.666  -0.361  1.00  0.00    -0.031 C
HETATM   34  C1  UNL     1      12.596  65.321  -1.312  1.00  0.00     0.007 C
ENDBRANCH  11  33
BRANCH  25  35
HETATM   35  C18 UNL     1       5.476  59.850   2.550  1.00  0.00     0.278 C
BRANCH  35  36
HETATM   36  O3  UNL     1       5.880  58.578   2.050  1.00  0.00    -0.323 OA
BRANCH  36  37
HETATM   37  C19 UNL     1       5.842  57.623   3.029  1.00  0.00     0.500 C
HETATM   38  F1  UNL     1       5.908  56.327   2.513  1.00  0.00    -0.184 F
HETATM   39  F2  UNL     1       6.782  57.794   4.022  1.00  0.00    -0.184 F
ENDBRANCH  36  37
ENDBRANCH  35  36
ENDBRANCH  25  35
BRANCH  29  40
HETATM   40  C23 UNL     1       5.108  62.938  -3.187  1.00  0.00    -0.066 C
HETATM   41  C24 UNL     1       4.205  62.937  -3.985  1.00  0.00    -0.101 C
BRANCH  41  42
HETATM   42  C25 UNL     1       3.095  62.937  -4.944  1.00  0.00     0.090 C
HETATM   43  C26 UNL     1       2.393  61.604  -4.881  1.00  0.00     0.018 C
ENDBRANCH  41  42
ENDBRANCH  29  40
ENDBRANCH   1  10
TORSDOF 7
ENDMDL