MODEL 5
REMARK VINA RESULT: -8.220271624      2.081      5.049
REMARK  7 active torsions:
REMARK  status: ('A' for Active; 'I' for Inactive)
REMARK    1  A    between atoms: N1_2  and  C3_4
REMARK    2  A    between atoms: C3_4  and  C4_5
REMARK    3  A    between atoms: C4_5  and  N2_6
REMARK    4  A    between atoms: N2_6  and  C5_8
REMARK    5  A    between atoms: C6_11  and  N4_12
REMARK    6  A    between atoms: C9_17  and  C10_18
REMARK    7  A    between atoms: N7_26  and  C15_28
ROOT
HETATM    1  C5  UNL     1      10.535  63.379   0.540  1.00  0.00     0.694 A
HETATM    2  N3  UNL     1      11.465  63.969   1.310  1.00  0.00    -0.022 N
ATOM      3  H3  UNL     1      12.384  64.164   0.913  1.00  0.00     0.203 HD
HETATM    4  C6  UNL     1      11.221  64.310   2.585  1.00  0.00     0.695 A
HETATM    5  N5  UNL     1      10.016  64.040   3.068  1.00  0.00    -0.175 N
ATOM      6  H5  UNL     1       9.828  64.297   4.038  1.00  0.00     0.186 HD
HETATM    7  C9  UNL     1       9.000  63.439   2.361  1.00  0.00     0.150 A
HETATM    8  N8  UNL     1       9.314  63.133   1.113  1.00  0.00    -0.175 N
ATOM      9  H8  UNL     1       8.601  62.685   0.539  1.00  0.00     0.186 HD
ENDROOT
BRANCH   7  10
HETATM   10  C10 UNL     1       7.726  63.221   3.032  1.00  0.00     0.054 A
HETATM   11  C11 UNL     1       7.083  64.348   3.591  1.00  0.00     0.039 A
HETATM   12  C12 UNL     1       5.890  64.191   4.213  1.00  0.00     0.027 A
HETATM   13 BR1  UNL     1       5.022  65.722   4.971  1.00  0.00    -0.050 Br
HETATM   14  C13 UNL     1       5.275  62.965   4.321  1.00  0.00     0.108 A
HETATM   15  N6  UNL     1       5.863  61.894   3.801  1.00  0.00    -0.350 N
HETATM   16  C14 UNL     1       7.079  62.030   3.164  1.00  0.00     0.119 A
ATOM     17  H6  UNL     1       5.420  60.978   3.873  1.00  0.00     0.166 HD
HETATM   18  N7  UNL     1       7.618  60.963   2.682  1.00  0.00    -0.342 N
ATOM     19  H7  UNL     1       8.520  61.038   2.211  1.00  0.00     0.167 HD
BRANCH  18  20
HETATM   20  C15 UNL     1       7.007  59.695   2.781  1.00  0.00     0.034 A
HETATM   21  C16 UNL     1       7.556  58.639   3.505  1.00  0.00     0.029 A
HETATM   22  C17 UNL     1       6.947  57.404   3.595  1.00  0.00     0.004 A
HETATM   23  C18 UNL     1       5.739  57.190   2.943  1.00  0.00     0.019 A
HETATM   24  C19 UNL     1       5.167  58.217   2.217  1.00  0.00     0.013 A
HETATM   25 BR2  UNL     1       3.494  57.868   1.338  1.00  0.00    -0.051 Br
HETATM   26  C20 UNL     1       5.791  59.424   2.146  1.00  0.00     0.048 A
ENDBRANCH  18  20
ENDBRANCH   7  10
BRANCH   4  27
HETATM   27  N4  UNL     1      12.226  64.934   3.366  1.00  0.00    -0.226 N
HETATM   28  C7  UNL     1      11.926  65.918   4.385  1.00  0.00     0.168 C
HETATM   29  C8  UNL     1      13.615  64.590   3.152  1.00  0.00     0.168 C
ENDBRANCH   4  27
BRANCH   1  30
HETATM   30  N2  UNL     1      10.772  63.056  -0.686  1.00  0.00    -0.224 N
ATOM     31  H2  UNL     1      10.965  62.085  -0.931  1.00  0.00     0.177 HD
BRANCH  30  32
HETATM   32  C4  UNL     1      10.765  64.058  -1.696  1.00  0.00     0.168 C
BRANCH  32  33
HETATM   33  C3  UNL     1       9.476  64.713  -2.009  1.00  0.00     0.291 C
BRANCH  33  34
HETATM   34  N1  UNL     1       9.167  64.934  -3.380  1.00  0.00     0.081 N
HETATM   35  C1  UNL     1       9.697  63.782  -4.142  1.00  0.00     0.309 C
HETATM   36  C2  UNL     1       9.987  66.053  -3.856  1.00  0.00     0.309 C
ENDBRANCH  33  34
ENDBRANCH  32  33
ENDBRANCH  30  32
ENDBRANCH   1  30
TORSDOF 7
ENDMDL