MODEL 3
REMARK VINA RESULT: -8.009275269      3.584      8.572
REMARK  9 active torsions:
REMARK  status: ('A' for Active; 'I' for Inactive)
REMARK    1  A    between atoms: C2_2  and  O1_3
REMARK    2  A    between atoms: C2_2  and  N1_5
REMARK    3  A    between atoms: C3_6  and  C4_7
REMARK       I    between atoms: N3_16  and  C9_17
REMARK       I    between atoms: C9_17  and  N4_19
REMARK    4  A    between atoms: N4_19  and  C10_21
REMARK    5  A    between atoms: C10_21  and  C12_23
REMARK       I    between atoms: C12_23  and  N5_25
REMARK    6  A    between atoms: C15_28  and  C16_29
REMARK    7  A    between atoms: C16_29  and  N6_30
REMARK    8  A    between atoms: C19_33  and  C20_34
REMARK    9  A    between atoms: C20_34  and  O4_35
ROOT
HETATM    1  N1  UNL     1       5.090  65.044   5.207  1.00  0.00    -0.277 N
HETATM    2  C3  UNL     1       4.386  65.554   6.258  1.00  0.00     0.183 A
HETATM    3  N2  UNL     1       4.467  66.888   6.203  1.00  0.00    -0.339 N
ATOM      4  H2  UNL     1       4.031  67.527   6.868  1.00  0.00     0.167 HD
HETATM    5  C5  UNL     1       5.219  67.273   5.127  1.00  0.00     0.038 A
HETATM    6  C6  UNL     1       5.602  66.129   4.516  1.00  0.00     0.065 A
HETATM    7  C7  UNL     1       6.440  66.209   3.300  1.00  0.00     0.137 C
HETATM    8  C8  UNL     1       5.689  65.854   2.040  1.00  0.00     0.039 C
HETATM    9  N3  UNL     1       7.072  67.491   3.180  1.00  0.00    -0.324 N
HETATM   10  C9  UNL     1       8.421  67.631   2.887  1.00  0.00     0.319 C
HETATM   11  O2  UNL     1       8.893  68.806   2.812  1.00  0.00    -0.247 OA
HETATM   12  N4  UNL     1       9.284  66.549   2.670  1.00  0.00    -0.330 N
ATOM     13  H4  UNL     1       8.916  65.600   2.735  1.00  0.00     0.165 HD
HETATM   14  C25 UNL     1       6.232  68.656   3.358  1.00  0.00     0.134 C
HETATM   15  C26 UNL     1       5.565  68.643   4.692  1.00  0.00     0.079 C
ENDROOT
BRANCH  12  16
HETATM   16  C10 UNL     1      10.714  66.748   2.349  1.00  0.00     0.174 C
HETATM   17  C11 UNL     1      11.482  66.784   3.671  1.00  0.00     0.042 C
BRANCH  16  18
HETATM   18  C12 UNL     1      11.185  65.630   1.534  1.00  0.00     0.242 C
HETATM   19  O3  UNL     1      11.912  65.880   0.511  1.00  0.00    -0.271 OA
HETATM   20  N5  UNL     1      10.872  64.308   1.829  1.00  0.00    -0.350 N
HETATM   21  C13 UNL     1      11.345  63.251   0.913  1.00  0.00     0.126 C
HETATM   22  C24 UNL     1      10.132  63.856   2.987  1.00  0.00     0.126 C
HETATM   23  C14 UNL     1      10.357  62.121   1.000  1.00  0.00     0.026 C
HETATM   24  C15 UNL     1       8.966  62.685   1.121  1.00  0.00     0.017 C
HETATM   25  C23 UNL     1       8.799  63.237   2.546  1.00  0.00     0.026 C
BRANCH  24  26
HETATM   26  C16 UNL     1       7.906  61.627   0.864  1.00  0.00     0.277 C
BRANCH  26  27
HETATM   27  N6  UNL     1       7.342  61.249   2.146  1.00  0.00     0.088 N
HETATM   28  C17 UNL     1       7.938  60.038   2.660  1.00  0.00     0.273 C
HETATM   29  C18 UNL     1       6.976  59.431   3.653  1.00  0.00     0.037 C
HETATM   30  C19 UNL     1       5.803  58.865   2.871  1.00  0.00     0.012 C
HETATM   31  C21 UNL     1       5.393  59.799   1.755  1.00  0.00     0.037 C
HETATM   32  C22 UNL     1       5.892  61.171   2.083  1.00  0.00     0.273 C
BRANCH  30  33
HETATM   33  C20 UNL     1       6.227  57.555   2.243  1.00  0.00     0.168 C
BRANCH  33  34
HETATM   34  O4  UNL     1       5.149  57.088   1.497  1.00  0.00    -0.400 OA
ATOM     35  H4  UNL     1       4.404  57.033   2.084  1.00  0.00     0.209 HD
ENDBRANCH  33  34
ENDBRANCH  30  33
ENDBRANCH  26  27
ENDBRANCH  24  26
ENDBRANCH  16  18
ENDBRANCH  12  16
BRANCH   1  36
HETATM   36  C2  UNL     1       5.258  63.701   4.897  1.00  0.00     0.119 C
HETATM   37  C1  UNL     1       6.313  62.733   5.224  1.00  0.00     0.098 C
BRANCH  36  38
HETATM   38  O1  UNL     1       4.312  63.153   4.172  1.00  0.00    -0.349 OA
ATOM     39  H1  UNL     1       3.484  63.137   4.636  1.00  0.00     0.219 HD
ENDBRANCH  36  38
ENDBRANCH   1  36
BRANCH   2  40
HETATM   40  C4  UNL     1       3.655  64.766   7.281  1.00  0.00     0.311 C
HETATM   41  F1  UNL     1       2.574  64.064   6.800  1.00  0.00    -0.169 F
HETATM   42  F2  UNL     1       3.478  65.370   8.480  1.00  0.00    -0.169 F
ENDBRANCH   2  40
TORSDOF 9
ENDMDL