MODEL 5
REMARK VINA RESULT: -8.415711510      2.122      3.151
REMARK  7 active torsions:
REMARK  status: ('A' for Active; 'I' for Inactive)
REMARK    1  A    between atoms: O1_2  and  C2_3
REMARK    2  A    between atoms: C4_5  and  S1_6
REMARK    3  A    between atoms: S1_6  and  C5_8
REMARK    4  A    between atoms: C7_10  and  N1_11
REMARK    5  A    between atoms: N1_11  and  C8_13
REMARK    6  A    between atoms: C13_23  and  N4_24
REMARK    7  A    between atoms: C20_32  and  O4_33
ROOT
HETATM    1  C5  UNL     1       8.363  63.700   2.774  1.00  0.00     0.047 A
HETATM    2  C6  UNL     1       9.641  64.155   2.500  1.00  0.00     0.054 A
HETATM    3  C7  UNL     1       9.974  65.488   2.535  1.00  0.00     0.065 A
HETATM    4  C13 UNL     1       9.007  66.448   2.856  1.00  0.00     0.097 A
HETATM    5  C16 UNL     1       7.744  65.984   3.125  1.00  0.00     0.152 A
HETATM    6  F1  UNL     1       6.800  66.917   3.437  1.00  0.00    -0.203 F
HETATM    7  C17 UNL     1       7.410  64.646   3.089  1.00  0.00    -0.001 A
HETATM    8  C18 UNL     1       6.002  64.207   3.397  1.00  0.00     0.053 C
ENDROOT
BRANCH   1   9
HETATM    9  S1  UNL     1       8.019  62.012   2.711  1.00  0.00     0.086 S
HETATM   10  O2  UNL     1       7.675  61.321   4.167  1.00  0.00    -0.247 OA
BRANCH   9  11
HETATM   11  C4  UNL     1       7.020  61.523   1.410  1.00  0.00     0.042 A
HETATM   12  C3  UNL     1       7.089  62.170   0.196  1.00  0.00     0.059 A
HETATM   13  C2  UNL     1       6.296  61.801  -0.878  1.00  0.00     0.089 A
HETATM   14  C22 UNL     1       5.410  60.762  -0.736  1.00  0.00     0.077 A
HETATM   15  C20 UNL     1       5.315  60.092   0.469  1.00  0.00     0.089 A
HETATM   16 BR1  UNL     1       4.276  60.183  -2.159  1.00  0.00    -0.045 Br
HETATM   17  C19 UNL     1       6.130  60.485   1.541  1.00  0.00     0.059 A
BRANCH  13  18
HETATM   18  O1  UNL     1       6.351  62.436  -2.101  1.00  0.00    -0.354 OA
HETATM   19  C1  UNL     1       7.185  63.560  -2.355  1.00  0.00     0.210 C
ENDBRANCH  13  18
BRANCH  15  20
HETATM   20  O4  UNL     1       4.424  59.043   0.619  1.00  0.00    -0.354 OA
HETATM   21  C21 UNL     1       4.594  58.127   1.682  1.00  0.00     0.210 C
ENDBRANCH  15  20
ENDBRANCH   9  11
ENDBRANCH   1   9
BRANCH   3  22
HETATM   22  N1  UNL     1      11.277  65.984   2.260  1.00  0.00    -0.340 N
ATOM     23  H1  UNL     1      11.395  66.618   1.470  1.00  0.00     0.167 HD
BRANCH  22  24
HETATM   24  C8  UNL     1      12.311  65.679   2.951  1.00  0.00     0.121 A
HETATM   25  C9  UNL     1      12.315  65.864   4.299  1.00  0.00     0.062 A
HETATM   26  C10 UNL     1      13.418  65.547   5.098  1.00  0.00     0.011 A
HETATM   27  C11 UNL     1      13.421  65.750   6.569  1.00  0.00     0.054 C
HETATM   28  C12 UNL     1      14.510  65.032   4.432  1.00  0.00     0.265 A
HETATM   29  O3  UNL     1      15.535  64.726   5.092  1.00  0.00    -0.266 OA
HETATM   30  N2  UNL     1      14.486  64.855   3.089  1.00  0.00    -0.265 N
HETATM   31  N3  UNL     1      13.407  65.173   2.361  1.00  0.00    -0.283 N
ATOM     32  H2  UNL     1      15.308  64.471   2.622  1.00  0.00     0.190 HD
ATOM     33  H3  UNL     1      13.418  65.029   1.352  1.00  0.00     0.188 HD
ENDBRANCH  22  24
ENDBRANCH   3  22
BRANCH   4  34
HETATM   34  N4  UNL     1       9.348  67.828   2.892  1.00  0.00    -0.373 N
HETATM   35  C14 UNL     1      10.046  68.987   3.535  1.00  0.00     0.143 A
HETATM   36  C15 UNL     1       9.296  69.213   2.339  1.00  0.00     0.143 A
ENDBRANCH   4  34
TORSDOF 7
ENDMDL