MODEL 5
REMARK VINA RESULT: -6.970968074      2.277      2.786
REMARK  7 active torsions:
REMARK  status: ('A' for Active; 'I' for Inactive)
REMARK    1  A    between atoms: O1_2  and  C2_3
REMARK    2  A    between atoms: C2_3  and  C5_6
REMARK    3  A    between atoms: C5_6  and  N1_7
REMARK    4  A    between atoms: C8_12  and  C9_13
REMARK       I    between atoms: N3_17  and  C13_18
REMARK       I    between atoms: C13_18  and  N4_20
REMARK    5  A    between atoms: N4_20  and  C14_22
REMARK       I    between atoms: N5_25  and  C17_26
REMARK    6  A    between atoms: C17_26  and  C18_28
REMARK    7  A    between atoms: C19_29  and  C20_30
ROOT
HETATM    1  N1  UNL     1       3.911  58.806   1.613  1.00  0.00    -0.292 N
HETATM    2  N2  UNL     1       3.253  60.007   1.641  1.00  0.00    -0.300 N
ATOM      3  H2  UNL     1       2.334  60.159   1.226  1.00  0.00     0.187 HD
HETATM    4  C6  UNL     1       3.944  60.948   2.265  1.00  0.00     0.053 A
HETATM    5  C7  UNL     1       5.086  60.394   2.667  1.00  0.00     0.010 A
HETATM    6  C8  UNL     1       5.054  59.023   2.248  1.00  0.00     0.042 A
HETATM    7  C12 UNL     1       5.909  61.390   3.394  1.00  0.00     0.170 C
HETATM    8  N3  UNL     1       5.192  62.610   3.278  1.00  0.00    -0.324 N
HETATM    9  C13 UNL     1       5.627  63.959   3.598  1.00  0.00     0.319 C
HETATM   10  O2  UNL     1       6.767  64.157   3.957  1.00  0.00    -0.247 OA
HETATM   11  N4  UNL     1       4.680  64.986   3.468  1.00  0.00    -0.338 N
ATOM     12  H4  UNL     1       3.754  64.677   3.171  1.00  0.00     0.164 HD
HETATM   13  C24 UNL     1       3.873  62.369   2.736  1.00  0.00     0.187 C
ENDROOT
BRANCH  11  14
HETATM   14  C14 UNL     1       4.795  66.380   3.679  1.00  0.00     0.089 C
HETATM   15  C15 UNL     1       3.452  66.996   3.823  1.00  0.00     0.045 C
HETATM   16  C16 UNL     1       3.576  68.467   4.191  1.00  0.00     0.127 C
HETATM   17  N5  UNL     1       4.962  68.882   4.033  1.00  0.00    -0.352 N
HETATM   18  C17 UNL     1       5.289  69.856   3.093  1.00  0.00     0.228 C
HETATM   19  C22 UNL     1       5.925  68.239   4.871  1.00  0.00     0.127 C
HETATM   20  O3  UNL     1       4.296  70.405   2.467  1.00  0.00    -0.273 OA
HETATM   21  C23 UNL     1       5.601  66.729   4.942  1.00  0.00     0.045 C
BRANCH  18  22
HETATM   22  C18 UNL     1       6.621  70.338   2.712  1.00  0.00     0.135 A
HETATM   23  C19 UNL     1       6.864  70.541   1.206  1.00  0.00     0.142 A
HETATM   24  C21 UNL     1       7.577  69.508   1.981  1.00  0.00     0.140 A
HETATM   25 CL1  UNL     1       7.242  67.832   1.518  1.00  0.00    -0.100 Cl
HETATM   26 CL2  UNL     1       9.317  69.829   2.282  1.00  0.00    -0.100 Cl
BRANCH  23  27
HETATM   27  C20 UNL     1       7.554  71.825   0.875  1.00  0.00     0.181 C
HETATM   28  O4  UNL     1       7.518  72.844   1.572  1.00  0.00    -0.648 OA
HETATM   29  O5  UNL     1       8.290  71.814  -0.336  1.00  0.00    -0.648 OA
ENDBRANCH  23  27
ENDBRANCH  18  22
ENDBRANCH  11  14
BRANCH   6  30
HETATM   30  C9  UNL     1       6.257  58.196   2.469  1.00  0.00     0.038 A
HETATM   31  C10 UNL     1       6.939  58.163   3.790  1.00  0.00     0.011 A
HETATM   32  C11 UNL     1       6.223  56.931   3.272  1.00  0.00     0.011 A
ENDBRANCH   6  30
BRANCH   1  33
HETATM   33  C5  UNL     1       3.232  57.731   0.971  1.00  0.00     0.186 C
BRANCH  33  34
HETATM   34  C2  UNL     1       1.929  57.258   1.578  1.00  0.00     0.071 C
HETATM   35  C3  UNL     1       1.145  56.537   0.459  1.00  0.00     0.047 C
HETATM   36  C4  UNL     1       2.187  56.247   2.660  1.00  0.00     0.047 C
BRANCH  34  37
HETATM   37  O1  UNL     1       1.186  58.286   2.058  1.00  0.00    -0.384 OA
HETATM   38  C1  UNL     1       0.025  57.878   2.663  1.00  0.00     0.202 C
ENDBRANCH  34  37
ENDBRANCH  33  34
ENDBRANCH   1  33
TORSDOF 7
ENDMDL