MODEL 2
REMARK VINA RESULT: -7.190661933      2.385      4.967
REMARK  7 active torsions:
REMARK  status: ('A' for Active; 'I' for Inactive)
REMARK    1  A    between atoms: O1_2  and  C2_3
REMARK    2  A    between atoms: C13_14  and  C14_15
REMARK    3  A    between atoms: C16_18  and  C17_19
REMARK    4  A    between atoms: C16_18  and  C19_26
REMARK    5  A    between atoms: C17_19  and  N1_20
REMARK    6  A    between atoms: N1_20  and  S1_22
REMARK    7  A    between atoms: C22_31  and  O5_32
ROOT
HETATM    1  C2  UNL     1       7.905  62.188   1.950  1.00  0.00     0.076 C
HETATM    2  C3  UNL     1       8.331  62.131   3.420  1.00  0.00     0.047 C
HETATM    3  C4  UNL     1       8.973  62.572   1.030  1.00  0.00     0.033 C
HETATM    4  C5  UNL     1       8.656  63.465  -0.167  1.00  0.00     0.018 C
HETATM    5  C6  UNL     1       7.204  63.693  -0.219  1.00  0.00    -0.030 C
HETATM    6  C7  UNL     1       6.738  62.224  -0.290  1.00  0.00     0.016 C
HETATM    7  C8  UNL     1       5.758  62.260   0.769  1.00  0.00     0.005 C
HETATM    8  C9  UNL     1       4.638  63.067   0.161  1.00  0.00     0.006 C
HETATM    9  C10 UNL     1       4.979  63.855  -1.061  1.00  0.00     0.005 C
HETATM   10  C11 UNL     1       6.457  64.202  -1.349  1.00  0.00    -0.010 C
HETATM   11  C12 UNL     1       6.843  63.471  -2.657  1.00  0.00     0.011 C
HETATM   12  C13 UNL     1       6.604  63.031   1.832  1.00  0.00     0.053 C
HETATM   13  C15 UNL     1       6.793  64.277   1.113  1.00  0.00     0.028 C
HETATM   14  C16 UNL     1       7.364  65.480   1.672  1.00  0.00     0.041 C
HETATM   15  C20 UNL     1       8.582  65.699   2.410  1.00  0.00     0.020 C
HETATM   16  C21 UNL     1       9.951  65.517   1.907  1.00  0.00     0.048 C
HETATM   17  C22 UNL     1      10.649  64.243   2.077  1.00  0.00     0.129 C
HETATM   18  C23 UNL     1      12.031  64.519   1.565  1.00  0.00     0.183 C
HETATM   19  O6  UNL     1      12.859  65.256   2.155  1.00  0.00    -0.290 OA
HETATM   20  C24 UNL     1      12.150  63.787   0.335  1.00  0.00     0.050 C
HETATM   21  C25 UNL     1      11.186  62.927   0.277  1.00  0.00    -0.014 C
HETATM   22  C26 UNL     1      10.303  63.007   1.509  1.00  0.00     0.057 C
ENDROOT
BRANCH  14  23
HETATM   23  C17 UNL     1       6.283  66.024   2.663  1.00  0.00     0.147 C
BRANCH  23  24
HETATM   24  N1  UNL     1       6.788  66.304   3.983  1.00  0.00    -0.319 N
ATOM     25  H1  UNL     1       7.321  65.668   4.575  1.00  0.00     0.172 HD
BRANCH  24  26
HETATM   26  S1  UNL     1       6.312  67.947   4.379  1.00  0.00     0.222 S
HETATM   27  C18 UNL     1       7.698  69.040   4.307  1.00  0.00     0.185 C
HETATM   28  O3  UNL     1       5.297  68.434   3.384  1.00  0.00    -0.206 OA
HETATM   29  O4  UNL     1       5.700  68.040   5.724  1.00  0.00    -0.206 OA
ENDBRANCH  24  26
ENDBRANCH  23  24
ENDBRANCH  14  23
BRANCH  14  30
HETATM   30  C19 UNL     1       7.337  66.602   0.603  1.00  0.00     0.363 C
HETATM   31  F1  UNL     1       7.800  67.811   1.163  1.00  0.00    -0.214 F
HETATM   32  F2  UNL     1       6.029  66.951   0.314  1.00  0.00    -0.214 F
ENDBRANCH  14  30
BRANCH  12  33
HETATM   33  C14 UNL     1       5.798  62.927   3.033  1.00  0.00     0.244 C
HETATM   34  O2  UNL     1       4.888  62.135   3.236  1.00  0.00    -0.306 OA
ENDBRANCH  12  33
BRANCH   1  35
HETATM   35  O1  UNL     1       7.437  60.865   1.849  1.00  0.00    -0.384 OA
HETATM   36  C1  UNL     1       7.974  59.949   2.673  1.00  0.00     0.202 C
ENDBRANCH   1  35
BRANCH  17  37
HETATM   37  O5  UNL     1      10.896  64.083   3.475  1.00  0.00    -0.381 OA
ATOM     38  H5  UNL     1      11.222  63.199   3.602  1.00  0.00     0.211 HD
ENDBRANCH  17  37
TORSDOF 7
ENDMDL