MODEL 4
REMARK VINA RESULT: -8.019199888      0.954      1.156
REMARK  10 active torsions:
REMARK  status: ('A' for Active; 'I' for Inactive)
REMARK    1  A    between atoms: C2_2  and  O2_4
REMARK    2  A    between atoms: O2_4  and  C3_5
REMARK    3  A    between atoms: C3_5  and  C4_6
REMARK       I    between atoms: N1_7  and  C5_8
REMARK    4  A    between atoms: C5_8  and  C6_10
REMARK    5  A    between atoms: C12_16  and  N2_17
REMARK       I    between atoms: N3_25  and  C17_26
REMARK    6  A    between atoms: C17_26  and  O5_28
REMARK    7  A    between atoms: O5_28  and  C18_29
REMARK    8  A    between atoms: C18_29  and  C19_30
REMARK    9  A    between atoms: C25_38  and  C26_39
REMARK   10  A    between atoms: C26_39  and  O6_40
ROOT
HETATM    1  C4  UNL     1       7.990  63.331   2.138  1.00  0.00     0.123 C
HETATM    2  N1  UNL     1       6.806  64.044   1.777  1.00  0.00    -0.344 N
HETATM    3  C5  UNL     1       5.537  64.368   2.257  1.00  0.00     0.226 C
HETATM    4  O3  UNL     1       4.819  65.081   1.443  1.00  0.00    -0.273 OA
HETATM    5  C13 UNL     1       7.239  64.626   0.433  1.00  0.00     0.127 C
HETATM    6  C14 UNL     1       8.567  65.267   0.813  1.00  0.00     0.035 C
HETATM    7  C15 UNL     1       9.118  64.318   1.820  1.00  0.00     0.023 C
HETATM    8  C16 UNL     1      10.406  63.647   1.444  1.00  0.00     0.142 C
HETATM    9  N3  UNL     1      11.109  64.526   2.347  1.00  0.00    -0.319 N
HETATM   10  C17 UNL     1      12.495  64.846   2.507  1.00  0.00     0.363 C
HETATM   11  O4  UNL     1      13.316  64.269   1.714  1.00  0.00    -0.238 OA
HETATM   12  C25 UNL     1       9.858  64.882   2.946  1.00  0.00     0.125 C
ENDROOT
BRANCH   1  13
HETATM   13  C3  UNL     1       8.040  62.683   3.427  1.00  0.00     0.205 C
BRANCH  13  14
HETATM   14  O2  UNL     1       8.183  61.303   3.374  1.00  0.00    -0.320 OA
BRANCH  14  15
HETATM   15  C2  UNL     1       7.132  60.436   3.407  1.00  0.00     0.254 C
HETATM   16  C1  UNL     1       7.344  58.935   3.423  1.00  0.00     0.126 C
HETATM   17  O1  UNL     1       5.945  60.829   3.427  1.00  0.00    -0.266 OA
ENDBRANCH  14  15
ENDBRANCH  13  14
ENDBRANCH   1  13
BRANCH  12  18
HETATM   18  C26 UNL     1       9.647  66.345   3.271  1.00  0.00     0.190 C
BRANCH  18  19
HETATM   19  O6  UNL     1       9.359  66.551   4.620  1.00  0.00    -0.399 OA
ATOM     20  H6  UNL     1      10.092  66.330   5.183  1.00  0.00     0.209 HD
ENDBRANCH  18  19
ENDBRANCH  12  18
BRANCH   3  21
HETATM   21  C6  UNL     1       4.861  64.051   3.509  1.00  0.00     0.113 C
HETATM   22  C7  UNL     1       3.360  64.251   3.483  1.00  0.00     0.001 C
HETATM   23  C8  UNL     1       2.803  63.591   4.712  1.00  0.00     0.006 C
HETATM   24  C11 UNL     1       3.275  65.723   3.890  1.00  0.00     0.012 C
HETATM   25  C9  UNL     1       3.210  64.515   5.856  1.00  0.00     0.007 C
HETATM   26  C10 UNL     1       4.060  65.573   5.183  1.00  0.00     0.017 C
HETATM   27  C12 UNL     1       5.306  64.887   4.704  1.00  0.00     0.201 C
BRANCH  27  28
HETATM   28  N2  UNL     1       6.305  65.861   4.408  1.00  0.00    -0.074 N
ATOM     29  H23 UNL     1       7.064  65.440   3.873  1.00  0.00     0.274 HD
ATOM     30  H22 UNL     1       5.955  66.529   3.720  1.00  0.00     0.274 HD
ATOM     31  H21 UNL     1       6.675  66.351   5.222  1.00  0.00     0.274 HD
ENDBRANCH  27  28
ENDBRANCH   3  21
BRANCH  10  32
HETATM   32  O5  UNL     1      13.006  65.687   3.404  1.00  0.00    -0.304 OA
BRANCH  32  33
HETATM   33  C18 UNL     1      12.880  65.927   4.743  1.00  0.00     0.185 C
BRANCH  33  34
HETATM   34  C19 UNL     1      14.019  65.662   5.670  1.00  0.00     0.010 C
HETATM   35  C20 UNL     1      13.776  64.993   6.951  1.00  0.00     0.013 C
HETATM   36  C21 UNL     1      15.025  64.351   7.550  1.00  0.00     0.079 C
HETATM   37  C22 UNL     1      15.790  63.508   6.602  1.00  0.00     0.243 C
HETATM   38  F1  UNL     1      15.818  62.199   7.061  1.00  0.00    -0.206 F
HETATM   39  F2  UNL     1      17.105  63.957   6.457  1.00  0.00    -0.206 F
HETATM   40  C23 UNL     1      15.178  63.575   5.196  1.00  0.00     0.079 C
HETATM   41  C24 UNL     1      15.147  65.050   4.859  1.00  0.00     0.013 C
ENDBRANCH  33  34
ENDBRANCH  32  33
ENDBRANCH  10  32
TORSDOF 10
ENDMDL