MODEL 1
REMARK VINA RESULT: -8.536074078      0.000      0.000
REMARK  13 active torsions:
REMARK  status: ('A' for Active; 'I' for Inactive)
REMARK    1  A    between atoms: N1_7  and  C7_8
REMARK    2  A    between atoms: C7_8  and  O1_9
REMARK    3  A    between atoms: C7_8  and  C8_11
REMARK    4  A    between atoms: N4_22  and  C16_23
REMARK    5  A    between atoms: C16_23  and  O2_24
REMARK    6  A    between atoms: C16_23  and  N5_26
REMARK    7  A    between atoms: C20_31  and  C21_32
REMARK    8  A    between atoms: C21_32  and  C22_34
REMARK    9  A    between atoms: C22_34  and  C25_37
REMARK   10  A    between atoms: C25_37  and  C26_38
REMARK   11  A    between atoms: C26_38  and  O3_39
REMARK   12  A    between atoms: C26_38  and  C27_41
REMARK   13  A    between atoms: C27_41  and  N6_42
ROOT
HETATM    1  C16 UNL     1       6.299  63.541   0.560  1.00  0.00     0.218 C
ENDROOT
BRANCH   1   2
HETATM    2  N4  UNL     1       7.479  63.817   1.239  1.00  0.00    -0.343 N
HETATM    3  C2  UNL     1       7.761  63.824   2.630  1.00  0.00     0.084 C
HETATM    4  C1  UNL     1       7.392  65.094   3.362  1.00  0.00     0.032 C
HETATM    5  C3  UNL     1       9.223  63.522   2.941  1.00  0.00     0.034 C
HETATM    6  C4  UNL     1      10.220  64.419   2.308  1.00  0.00    -0.034 C
HETATM    7  C5  UNL     1      10.667  65.482   3.273  1.00  0.00     0.029 C
HETATM    8  C13 UNL     1      11.380  63.505   1.873  1.00  0.00     0.029 C
HETATM    9  C14 UNL     1       9.642  65.007   1.055  1.00  0.00     0.029 C
HETATM   10  C6  UNL     1      11.909  66.216   2.893  1.00  0.00     0.125 C
HETATM   11  N1  UNL     1      12.953  65.140   2.756  1.00  0.00    -0.360 N
HETATM   12  C12 UNL     1      12.639  64.310   1.636  1.00  0.00     0.125 C
HETATM   13  C15 UNL     1       8.673  64.134   0.361  1.00  0.00     0.127 C
BRANCH  11  14
HETATM   14  C7  UNL     1      13.998  65.123   3.674  1.00  0.00     0.167 C
BRANCH  14  15
HETATM   15  O1  UNL     1      15.186  65.166   3.107  1.00  0.00    -0.344 OA
ATOM     16  H1  UNL     1      15.785  64.513   3.447  1.00  0.00     0.219 HD
ENDBRANCH  14  15
BRANCH  14  17
HETATM   17  C8  UNL     1      14.039  65.071   5.093  1.00  0.00     0.102 A
HETATM   18  C9  UNL     1      13.390  65.810   6.044  1.00  0.00     0.054 A
HETATM   19  C10 UNL     1      13.751  65.369   7.332  1.00  0.00     0.110 A
HETATM   20  N2  UNL     1      14.607  64.377   7.109  1.00  0.00    -0.310 N
HETATM   21  N3  UNL     1      14.786  64.191   5.822  1.00  0.00    -0.293 N
ATOM     22  H2  UNL     1      15.064  63.833   7.842  1.00  0.00     0.186 HD
HETATM   23  C11 UNL     1      15.679  63.163   5.315  1.00  0.00     0.178 C
ENDBRANCH  14  17
ENDBRANCH  11  14
ENDBRANCH   1   2
BRANCH   1  24
HETATM   24  O2  UNL     1       5.988  64.537  -0.251  1.00  0.00    -0.332 OA
ATOM     25  H2  UNL     1       6.239  64.330  -1.143  1.00  0.00     0.220 HD
ENDBRANCH   1  24
BRANCH   1  26
HETATM   26  N5  UNL     1       5.407  62.494   0.540  1.00  0.00    -0.334 N
HETATM   27  C17 UNL     1       3.983  62.536   0.216  1.00  0.00     0.164 C
HETATM   28  C18 UNL     1       3.855  61.377  -0.817  1.00  0.00     0.190 C
HETATM   29  F1  UNL     1       2.809  60.589  -0.430  1.00  0.00    -0.248 F
HETATM   30  C19 UNL     1       5.156  60.577  -0.608  1.00  0.00     0.071 C
HETATM   31  C20 UNL     1       5.495  61.081   0.784  1.00  0.00     0.149 C
BRANCH  31  32
HETATM   32  C21 UNL     1       6.505  60.319   1.413  1.00  0.00     0.102 C
HETATM   33  F2  UNL     1       7.817  60.783   1.193  1.00  0.00    -0.212 F
BRANCH  32  34
HETATM   34  C22 UNL     1       6.395  59.676   2.722  1.00  0.00     0.007 C
HETATM   35  C23 UNL     1       6.248  60.713   3.866  1.00  0.00     0.022 C
HETATM   36  C24 UNL     1       7.817  59.104   3.036  1.00  0.00     0.022 C
BRANCH  34  37
HETATM   37  C25 UNL     1       5.463  58.583   2.994  1.00  0.00     0.049 C
BRANCH  37  38
HETATM   38  C26 UNL     1       4.877  57.706   1.982  1.00  0.00     0.144 C
BRANCH  38  39
HETATM   39  O3  UNL     1       5.027  56.371   2.577  1.00  0.00    -0.394 OA
ATOM     40  H3  UNL     1       4.134  56.052   2.612  1.00  0.00     0.210 HD
ENDBRANCH  38  39
BRANCH  38  41
HETATM   41  C27 UNL     1       3.433  57.727   1.655  1.00  0.00     0.261 C
BRANCH  41  42
HETATM   42  N6  UNL     1       3.235  57.382   0.264  1.00  0.00    -0.077 N
ATOM     43  H63 UNL     1       4.102  57.086  -0.183  1.00  0.00     0.274 HD
ATOM     44  H62 UNL     1       2.709  56.515   0.157  1.00  0.00     0.274 HD
ATOM     45  H61 UNL     1       2.797  58.159  -0.228  1.00  0.00     0.274 HD
ENDBRANCH  41  42
ENDBRANCH  38  41
ENDBRANCH  37  38
ENDBRANCH  34  37
ENDBRANCH  32  34
ENDBRANCH  31  32
ENDBRANCH   1  26
TORSDOF 13
ENDMDL