MODEL 1
REMARK VINA RESULT: -8.954763714      0.000      0.000
REMARK  8 active torsions:
REMARK  status: ('A' for Active; 'I' for Inactive)
REMARK    1  A    between atoms: N1_2  and  C3_4
REMARK    2  A    between atoms: C3_4  and  C4_5
REMARK    3  A    between atoms: C4_5  and  N2_6
REMARK    4  A    between atoms: C9_11  and  C10_12
REMARK       I    between atoms: C10_12  and  N3_14
REMARK    5  A    between atoms: C11_16  and  C13_19
REMARK    6  A    between atoms: C13_19  and  C14_24
REMARK    7  A    between atoms: N5_20  and  O2_22
REMARK    8  A    between atoms: C17_28  and  O3_29
ROOT
HETATM    1  C10 UNL     1       9.101  64.073   3.118  1.00  0.00     0.254 C
HETATM    2  O1  UNL     1       8.519  65.149   3.536  1.00  0.00    -0.271 OA
HETATM    3  N3  UNL     1      10.495  64.120   3.274  1.00  0.00    -0.315 N
ATOM      4  H3  UNL     1      10.960  63.341   3.739  1.00  0.00     0.169 HD
HETATM    5  C11 UNL     1      11.223  65.122   2.850  1.00  0.00     0.146 C
HETATM    6  C12 UNL     1      10.471  66.156   2.215  1.00  0.00     0.120 C
HETATM    7  N4  UNL     1       9.811  66.999   1.696  1.00  0.00    -0.190 NA
ENDROOT
BRANCH   5   8
HETATM    8  C13 UNL     1      12.623  65.140   3.088  1.00  0.00     0.102 C
HETATM    9  N5  UNL     1      13.397  65.301   2.026  1.00  0.00    -0.266 N
ATOM     10  H5  UNL     1      14.407  65.320   2.172  1.00  0.00     0.194 HD
BRANCH   9  11
HETATM   11  O2  UNL     1      12.954  65.439   0.802  1.00  0.00    -0.289 OA
ATOM     12  H2  UNL     1      12.065  65.248   0.529  1.00  0.00     0.244 HD
ENDBRANCH   9  11
BRANCH   8  13
HETATM   13  C14 UNL     1      13.371  64.994   4.316  1.00  0.00    -0.000 A
HETATM   14  C15 UNL     1      13.015  65.819   5.395  1.00  0.00     0.059 A
HETATM   15  C16 UNL     1      13.647  65.734   6.621  1.00  0.00     0.151 A
HETATM   16  F1  UNL     1      13.268  66.552   7.632  1.00  0.00    -0.203 F
HETATM   17  C17 UNL     1      14.654  64.830   6.829  1.00  0.00     0.121 A
HETATM   18  C18 UNL     1      15.018  64.018   5.801  1.00  0.00     0.048 A
HETATM   19 BR1  UNL     1      16.417  62.743   6.046  1.00  0.00    -0.048 Br
HETATM   20  C19 UNL     1      14.361  64.116   4.550  1.00  0.00     0.036 A
BRANCH  17  21
HETATM   21  O3  UNL     1      15.298  64.735   8.061  1.00  0.00    -0.356 OA
ATOM     22  H3  UNL     1      15.034  64.090   8.707  1.00  0.00     0.218 HD
ENDBRANCH  17  21
ENDBRANCH   8  13
ENDBRANCH   5   8
BRANCH   1  23
HETATM   23  C9  UNL     1       8.346  62.966   2.549  1.00  0.00     0.282 C
HETATM   24  N2  UNL     1       7.331  63.227   1.591  1.00  0.00    -0.052 N
HETATM   25  C5  UNL     1       6.119  63.756   2.189  1.00  0.00     0.239 C
HETATM   26  C24 UNL     1       6.883  62.052   0.849  1.00  0.00     0.239 C
HETATM   27  C6  UNL     1       5.392  62.699   2.993  1.00  0.00     0.033 C
HETATM   28  C7  UNL     1       6.363  61.711   3.518  1.00  0.00    -0.003 C
HETATM   29  C8  UNL     1       7.749  62.199   3.743  1.00  0.00     0.048 C
HETATM   30  C20 UNL     1       6.481  60.438   2.701  1.00  0.00    -0.042 C
HETATM   31  C21 UNL     1       5.123  59.867   2.479  1.00  0.00     0.015 C
HETATM   32  C22 UNL     1       7.307  59.464   3.501  1.00  0.00     0.015 C
HETATM   33  C23 UNL     1       7.244  60.731   1.415  1.00  0.00     0.037 C
BRANCH  24  34
HETATM   34  C4  UNL     1       7.719  64.223   0.579  1.00  0.00     0.268 C
BRANCH  34  35
HETATM   35  C3  UNL     1       8.478  63.661  -0.575  1.00  0.00     0.299 C
BRANCH  35  36
HETATM   36  N1  UNL     1       9.868  64.081  -0.543  1.00  0.00     0.081 N
HETATM   37  C1  UNL     1      10.761  63.026  -0.197  1.00  0.00     0.309 C
HETATM   38  C2  UNL     1      10.261  64.865  -1.662  1.00  0.00     0.309 C
ENDBRANCH  35  36
ENDBRANCH  34  35
ENDBRANCH  24  34
ENDBRANCH   1  23
TORSDOF 8
ENDMDL