MODEL 4
REMARK VINA RESULT: -7.508121290      2.503      6.043
REMARK  8 active torsions:
REMARK  status: ('A' for Active; 'I' for Inactive)
REMARK    1  A    between atoms: C2_2  and  C4_4
REMARK    2  A    between atoms: C6_9  and  C7_10
REMARK    3  A    between atoms: C14_20  and  C15_21
REMARK    4  A    between atoms: C17_25  and  C18_26
REMARK    5  A    between atoms: C18_26  and  O4_27
REMARK    6  A    between atoms: C18_26  and  C19_29
REMARK    7  A    between atoms: C19_29  and  S1_30
REMARK    8  A    between atoms: S1_30  and  C20_31
ROOT
HETATM    1  C4  UNL     1       9.284  63.048   1.993  1.00  0.00     0.083 C
HETATM    2  N1  UNL     1       8.752  62.016   1.455  1.00  0.00    -0.315 N
ATOM      3  H1  UNL     1       9.436  61.414   0.997  1.00  0.00     0.170 HD
HETATM    4  C5  UNL     1       7.471  61.536   1.353  1.00  0.00     0.246 C
HETATM    5  O1  UNL     1       6.830  61.546   0.245  1.00  0.00    -0.271 OA
HETATM    6  C6  UNL     1       6.678  60.953   2.484  1.00  0.00     0.180 C
HETATM    7  N2  UNL     1       5.385  61.576   2.459  1.00  0.00    -0.347 N
ATOM      8  H2  UNL     1       4.559  61.012   2.258  1.00  0.00     0.163 HD
HETATM    9  C10 UNL     1       5.240  62.949   2.707  1.00  0.00     0.225 C
HETATM   10  O2  UNL     1       4.385  63.657   2.124  1.00  0.00    -0.273 OA
HETATM   11  C11 UNL     1       6.120  63.624   3.694  1.00  0.00     0.109 C
HETATM   12  C12 UNL     1       5.444  63.568   5.004  1.00  0.00     0.019 C
HETATM   13  C13 UNL     1       5.227  64.839   5.739  1.00  0.00     0.034 C
HETATM   14  C14 UNL     1       5.237  65.995   4.767  1.00  0.00     0.135 C
HETATM   15  O3  UNL     1       6.495  65.965   4.189  1.00  0.00    -0.377 OA
HETATM   16  C16 UNL     1       6.432  65.000   3.154  1.00  0.00     0.160 C
HETATM   17  C17 UNL     1       7.683  65.073   2.350  1.00  0.00     0.142 C
HETATM   18  N4  UNL     1       8.659  64.078   2.711  1.00  0.00    -0.370 N
ATOM     19  H4  UNL     1       8.956  64.133   3.685  1.00  0.00     0.161 HD
ENDROOT
BRANCH  17  20
HETATM   20  C18 UNL     1       7.455  65.247   0.887  1.00  0.00     0.153 C
BRANCH  20  21
HETATM   21  O4  UNL     1       8.570  65.828   0.258  1.00  0.00    -0.393 OA
ATOM     22  H4  UNL     1       8.367  66.692  -0.081  1.00  0.00     0.210 HD
ENDBRANCH  20  21
BRANCH  20  23
HETATM   23  C19 UNL     1       6.347  66.281   0.640  1.00  0.00     0.114 C
BRANCH  23  24
HETATM   24  S1  UNL     1       6.996  67.927   0.442  1.00  0.00    -0.108 SA
BRANCH  24  25
HETATM   25  C20 UNL     1       7.838  68.548   1.848  1.00  0.00     0.091 A
HETATM   26  N3  UNL     1       9.154  68.366   2.019  1.00  0.00    -0.359 N
HETATM   27  C21 UNL     1       9.811  68.846   3.108  1.00  0.00     0.089 A
ATOM     28  H3  UNL     1       9.678  67.852   1.311  1.00  0.00     0.166 HD
HETATM   29  C22 UNL     1       9.146  69.540   4.080  1.00  0.00     0.019 A
HETATM   30  C23 UNL     1       7.785  69.747   3.938  1.00  0.00     0.028 A
HETATM   31  C24 UNL     1       7.135  69.241   2.805  1.00  0.00     0.067 A
HETATM   32 CL2  UNL     1       5.413  69.549   2.704  1.00  0.00    -0.081 Cl
ENDBRANCH  24  25
ENDBRANCH  23  24
ENDBRANCH  20  23
ENDBRANCH  17  20
BRANCH   1  33
HETATM   33  C2  UNL     1      10.798  63.136   1.830  1.00  0.00     0.045 C
HETATM   34  C1  UNL     1      11.092  62.912   0.351  1.00  0.00     0.017 C
HETATM   35  C3  UNL     1      11.325  64.492   2.242  1.00  0.00     0.017 C
ENDBRANCH   1  33
BRANCH  14  36
HETATM   36  C15 UNL     1       4.948  67.309   5.453  1.00  0.00     0.146 C
HETATM   37 CL1  UNL     1       3.288  67.850   5.215  1.00  0.00    -0.128 Cl
ENDBRANCH  14  36
BRANCH   6  38
HETATM   38  C7  UNL     1       6.596  59.445   2.360  1.00  0.00     0.009 C
HETATM   39  C8  UNL     1       7.274  58.707   3.468  1.00  0.00     0.012 C
HETATM   40  C9  UNL     1       5.183  59.014   2.126  1.00  0.00     0.012 C
ENDBRANCH   6  38
TORSDOF 8
ENDMDL