MODEL 4
REMARK VINA RESULT: -7.359338932      1.553      1.794
REMARK  10 active torsions:
REMARK  status: ('A' for Active; 'I' for Inactive)
REMARK    1  A    between atoms: C3_3  and  C4_4
REMARK    2  A    between atoms: C4_4  and  N1_5
REMARK    3  A    between atoms: C6_8  and  C7_9
REMARK    4  A    between atoms: C7_9  and  N2_10
REMARK    5  A    between atoms: N2_10  and  C9_12
REMARK    6  A    between atoms: C9_12  and  C10_13
REMARK    7  A    between atoms: C10_13  and  N3_14
REMARK    8  A    between atoms: C18_24  and  C19_25
REMARK    9  A    between atoms: C19_25  and  O4_26
REMARK   10  A    between atoms: C22_31  and  O5_32
ROOT
HETATM    1  N1  UNL     1       7.210  62.522   3.366  1.00  0.00    -0.336 N
HETATM    2  C5  UNL     1       8.202  62.534   2.309  1.00  0.00     0.261 C
HETATM    3  O1  UNL     1       8.460  61.460   1.781  1.00  0.00    -0.269 OA
HETATM    4  C6  UNL     1       8.954  63.763   1.796  1.00  0.00     0.175 C
HETATM    5  C13 UNL     1       8.379  64.067   0.496  1.00  0.00     0.080 C
HETATM    6  C14 UNL     1       8.234  65.475   0.081  1.00  0.00     0.171 C
HETATM    7  O2  UNL     1       8.524  66.385   1.096  1.00  0.00    -0.391 OA
HETATM    8  C15 UNL     1       7.399  66.917   1.678  1.00  0.00     0.170 C
HETATM    9  C16 UNL     1       6.974  66.192   2.982  1.00  0.00     0.060 C
HETATM   10  C17 UNL     1       7.222  64.768   2.797  1.00  0.00     0.150 C
HETATM   11  O3  UNL     1       8.600  64.582   2.895  1.00  0.00    -0.357 OA
HETATM   12  C18 UNL     1       6.639  63.775   3.793  1.00  0.00     0.140 C
ENDROOT
BRANCH   1  13
HETATM   13  C4  UNL     1       6.989  61.228   3.960  1.00  0.00     0.165 C
BRANCH  13  14
HETATM   14  C3  UNL     1       6.049  60.306   3.325  1.00  0.00    -0.031 A
HETATM   15  C2  UNL     1       6.184  58.985   3.066  1.00  0.00    -0.029 A
HETATM   16  C1  UNL     1       7.116  58.260   4.035  1.00  0.00     0.050 C
HETATM   17  C23 UNL     1       5.506  58.291   2.120  1.00  0.00     0.075 A
HETATM   18  C22 UNL     1       4.619  58.905   1.332  1.00  0.00     0.105 A
HETATM   19 CL1  UNL     1       5.770  56.539   1.956  1.00  0.00    -0.081 Cl
HETATM   20  C21 UNL     1       4.383  60.267   1.507  1.00  0.00     0.046 A
HETATM   21  C20 UNL     1       5.068  60.978   2.486  1.00  0.00     0.031 A
HETATM   22 BR1  UNL     1       3.122  61.142   0.357  1.00  0.00    -0.048 Br
BRANCH  18  23
HETATM   23  O5  UNL     1       3.898  58.208   0.303  1.00  0.00    -0.358 OA
ATOM     24  H5  UNL     1       3.691  57.291   0.434  1.00  0.00     0.217 HD
ENDBRANCH  18  23
ENDBRANCH  13  14
ENDBRANCH   1  13
BRANCH  12  25
HETATM   25  C19 UNL     1       5.163  63.815   3.714  1.00  0.00     0.192 C
BRANCH  25  26
HETATM   26  O4  UNL     1       4.652  63.645   5.012  1.00  0.00    -0.399 OA
ATOM     27  H4  UNL     1       4.096  62.876   5.011  1.00  0.00     0.209 HD
ENDBRANCH  25  26
ENDBRANCH  12  25
BRANCH   4  28
HETATM   28  C7  UNL     1      10.437  63.517   1.864  1.00  0.00     0.110 C
BRANCH  28  29
HETATM   29  N2  UNL     1      11.344  64.439   1.373  1.00  0.00    -0.370 N
HETATM   30  C8  UNL     1      11.944  64.138   0.108  1.00  0.00     0.154 C
BRANCH  29  31
HETATM   31  C9  UNL     1      11.905  65.502   2.044  1.00  0.00     0.101 C
BRANCH  31  32
HETATM   32  C10 UNL     1      11.874  65.340   3.561  1.00  0.00     0.076 C
BRANCH  32  33
HETATM   33  N3  UNL     1      12.979  64.856   4.230  1.00  0.00    -0.300 NA
HETATM   34  C11 UNL     1      14.182  64.733   3.439  1.00  0.00     0.115 C
HETATM   35  C12 UNL     1      13.257  65.638   5.395  1.00  0.00     0.115 C
ENDBRANCH  32  33
ENDBRANCH  31  32
ENDBRANCH  29  31
ENDBRANCH  28  29
ENDBRANCH   4  28
TORSDOF 10
ENDMDL