MODEL 2
REMARK VINA RESULT: -7.528742443      4.566      9.581
REMARK  7 active torsions:
REMARK  status: ('A' for Active; 'I' for Inactive)
REMARK    1  A    between atoms: C4_5  and  C5_7
REMARK    2  A    between atoms: C5_7  and  N2_8
REMARK       I    between atoms: N2_8  and  C6_10
REMARK    3  A    between atoms: C6_10  and  C7_12
REMARK    4  A    between atoms: N3_15  and  C10_16
REMARK    5  A    between atoms: C10_16  and  C11_17
REMARK    6  A    between atoms: N4_19  and  C13_20
REMARK    7  A    between atoms: C16_26  and  C17_27
ROOT
HETATM    1  C7  UNL     1       7.122  62.177   2.518  1.00  0.00     0.081 C
HETATM    2  C8  UNL     1       8.200  61.352   1.895  1.00  0.00     0.033 C
HETATM    3  C9  UNL     1       8.149  59.938   2.481  1.00  0.00     0.118 C
HETATM    4  N3  UNL     1       6.877  59.769   3.101  1.00  0.00    -0.407 N
HETATM    5  C19 UNL     1       6.712  60.492   4.318  1.00  0.00     0.118 C
HETATM    6  C20 UNL     1       6.966  61.962   3.991  1.00  0.00     0.033 C
ENDROOT
BRANCH   4   7
HETATM    7  C10 UNL     1       6.302  58.475   3.041  1.00  0.00     0.177 C
BRANCH   7   8
HETATM    8  C11 UNL     1       5.186  58.328   2.070  1.00  0.00     0.061 A
HETATM    9  C12 UNL     1       4.226  59.245   1.705  1.00  0.00     0.141 A
HETATM   10  N4  UNL     1       3.408  58.696   0.791  1.00  0.00    -0.272 N
HETATM   11  N6  UNL     1       3.851  57.469   0.596  1.00  0.00    -0.240 N
HETATM   12  N7  UNL     1       4.911  57.226   1.348  1.00  0.00    -0.287 N
ATOM     13  H6  UNL     1       3.433  56.799  -0.050  1.00  0.00     0.208 HD
ATOM     14  H7  UNL     1       5.432  56.349   1.377  1.00  0.00     0.188 HD
BRANCH  10  15
HETATM   15  C13 UNL     1       2.271  59.363   0.160  1.00  0.00     0.184 C
HETATM   16  S1  UNL     1       2.673  59.611  -1.612  1.00  0.00    -0.097 SA
HETATM   17  C14 UNL     1       1.623  58.890  -2.636  1.00  0.00     0.131 C
HETATM   18  N5  UNL     1       0.560  58.183  -2.021  1.00  0.00    -0.393 N
HETATM   19  C15 UNL     1       0.753  57.585  -0.739  1.00  0.00     0.131 C
ATOM     20  H5  UNL     1      -0.341  58.102  -2.492  1.00  0.00     0.159 HD
HETATM   21  C16 UNL     1       0.997  58.574   0.363  1.00  0.00     0.061 C
BRANCH  21  22
HETATM   22  C17 UNL     1       1.041  57.837   1.652  1.00  0.00    -0.010 C
HETATM   23  C18 UNL     1       0.543  56.629   1.858  1.00  0.00     0.052 C
HETATM   24 BR1  UNL     1       0.636  55.747   3.543  1.00  0.00    -0.064 Br
ENDBRANCH  21  22
ENDBRANCH  10  15
ENDBRANCH   7   8
ENDBRANCH   4   7
BRANCH   1  25
HETATM   25  C6  UNL     1       7.472  63.626   2.290  1.00  0.00     0.222 C
HETATM   26  N2  UNL     1       8.598  64.152   2.907  1.00  0.00    -0.358 N
ATOM     27  H2  UNL     1       9.145  63.512   3.484  1.00  0.00     0.162 HD
HETATM   28  O1  UNL     1       6.715  64.267   1.552  1.00  0.00    -0.273 OA
BRANCH  26  29
HETATM   29  C5  UNL     1       9.069  65.488   2.819  1.00  0.00     0.166 C
BRANCH  29  30
HETATM   30  C4  UNL     1      10.509  65.589   2.453  1.00  0.00     0.122 C
HETATM   31  C3  UNL     1      11.124  64.168   2.468  1.00  0.00     0.075 C
HETATM   32  C2  UNL     1      12.567  64.282   2.065  1.00  0.00     0.275 C
HETATM   33  N1  UNL     1      13.291  65.205   2.943  1.00  0.00     0.084 N
HETATM   34  C1  UNL     1      14.388  64.452   3.567  1.00  0.00     0.309 C
HETATM   35  C22 UNL     1      12.437  65.645   4.031  1.00  0.00     0.275 C
HETATM   36  C21 UNL     1      11.213  66.369   3.552  1.00  0.00     0.075 C
HETATM   37  F1  UNL     1      10.767  66.070   1.220  1.00  0.00    -0.241 F
ENDBRANCH  29  30
ENDBRANCH  26  29
ENDBRANCH   1  25
TORSDOF 7
ENDMDL