MODEL 2
REMARK VINA RESULT: -6.851816341      1.181      1.382
REMARK  7 active torsions:
REMARK  status: ('A' for Active; 'I' for Inactive)
REMARK    1  A    between atoms: C10_13  and  C11_14
REMARK    2  A    between atoms: C14_19  and  O5_20
REMARK    3  A    between atoms: O5_20  and  C15_21
REMARK    4  A    between atoms: C15_21  and  C16_22
REMARK    5  A    between atoms: C16_22  and  O6_23
REMARK    6  A    between atoms: C17_25  and  N1_26
REMARK       I    between atoms: N1_26  and  C18_28
REMARK    7  A    between atoms: C18_28  and  C19_30
ROOT
HETATM    1  C1  UNL     1       6.037  67.195   2.833  1.00  0.00     0.026 C
HETATM    2  C2  UNL     1       6.101  67.296   1.537  1.00  0.00     0.023 C
HETATM    3  C3  UNL     1       5.509  68.459   0.829  1.00  0.00     0.289 C
HETATM    4  O1  UNL     1       5.087  69.546   1.332  1.00  0.00    -0.260 OA
HETATM    5  O2  UNL     1       5.508  68.109  -0.529  1.00  0.00    -0.316 OA
HETATM    6  C4  UNL     1       6.687  67.363  -0.685  1.00  0.00     0.198 C
HETATM    7  C5  UNL     1       6.725  66.385   0.515  1.00  0.00     0.041 C
HETATM    8  C6  UNL     1       5.755  65.349   0.139  1.00  0.00     0.004 C
HETATM    9  C7  UNL     1       5.937  64.790  -1.257  1.00  0.00     0.011 C
HETATM   10  C8  UNL     1       5.508  64.234   1.104  1.00  0.00     0.040 C
HETATM   11  C9  UNL     1       6.518  63.124   1.009  1.00  0.00     0.154 C
HETATM   12  O3  UNL     1       6.122  62.145   1.941  1.00  0.00    -0.352 OA
HETATM   13  C10 UNL     1       6.668  62.481   3.155  1.00  0.00     0.274 C
HETATM   14  O4  UNL     1       7.313  63.718   2.990  1.00  0.00    -0.352 OA
HETATM   15  C12 UNL     1       7.761  63.633   1.722  1.00  0.00     0.164 C
HETATM   16  C13 UNL     1       8.510  64.655   1.054  1.00  0.00     0.079 C
HETATM   17  C14 UNL     1       9.908  64.705   1.754  1.00  0.00     0.159 C
HETATM   18  C17 UNL     1       9.899  65.459   3.018  1.00  0.00     0.143 C
HETATM   19  C20 UNL     1       9.511  66.863   2.737  1.00  0.00    -0.059 C
HETATM   20  C21 UNL     1       9.919  68.052   3.542  1.00  0.00     0.046 C
HETATM   21  C22 UNL     1       8.702  67.056   1.711  1.00  0.00     0.009 C
HETATM   22  C23 UNL     1       8.132  66.022   0.805  1.00  0.00    -0.054 C
ENDROOT
BRANCH  17  23
HETATM   23  O5  UNL     1      10.283  63.400   1.964  1.00  0.00    -0.381 OA
BRANCH  23  24
HETATM   24  C15 UNL     1      10.770  62.796   0.805  1.00  0.00     0.194 C
BRANCH  24  25
HETATM   25  C16 UNL     1      11.779  63.751   0.210  1.00  0.00     0.190 C
BRANCH  25  26
HETATM   26  O6  UNL     1      13.054  63.467   0.652  1.00  0.00    -0.399 OA
ATOM     27  H6  UNL     1      13.440  62.757   0.152  1.00  0.00     0.209 HD
ENDBRANCH  25  26
ENDBRANCH  24  25
ENDBRANCH  23  24
ENDBRANCH  17  23
BRANCH  18  28
HETATM   28  N1  UNL     1      11.087  65.198   3.734  1.00  0.00    -0.350 N
HETATM   29  C18 UNL     1      12.428  65.394   3.515  1.00  0.00     0.228 C
HETATM   30  O7  UNL     1      12.871  65.887   2.467  1.00  0.00    -0.273 OA
ATOM     31  H1  UNL     1      10.905  64.755   4.635  1.00  0.00     0.163 HD
BRANCH  29  32
HETATM   32  C19 UNL     1      13.436  65.025   4.544  1.00  0.00     0.187 C
HETATM   33 BR1  UNL     1      14.993  64.322   3.653  1.00  0.00    -0.087 Br
ENDBRANCH  29  32
ENDBRANCH  18  28
BRANCH  13  34
HETATM   34  C11 UNL     1       7.586  61.466   3.753  1.00  0.00     0.175 C
HETATM   35 CL1  UNL     1       7.915  60.160   2.625  1.00  0.00    -0.125 Cl
ENDBRANCH  13  34
TORSDOF 7
ENDMDL