MODEL 4
REMARK VINA RESULT: -6.667888045      2.839      5.902
REMARK  9 active torsions:
REMARK  status: ('A' for Active; 'I' for Inactive)
REMARK    1  A    between atoms: O1_2  and  C2_3
REMARK       I    between atoms: C2_3  and  N1_5
REMARK    2  A    between atoms: N1_5  and  C3_7
REMARK    3  A    between atoms: C9_15  and  C10_16
REMARK    4  A    between atoms: C10_16  and  C11_17
REMARK    5  A    between atoms: C11_17  and  C12_18
REMARK    6  A    between atoms: C12_18  and  C13_19
REMARK    7  A    between atoms: C14_21  and  O4_22
REMARK    8  A    between atoms: C15_24  and  O5_25
REMARK    9  A    between atoms: O5_25  and  C16_26
ROOT
HETATM    1  C3  UNL     1       7.901  63.980  -0.390  1.00  0.00     0.158 C
HETATM    2  C4  UNL     1       7.096  63.759   0.833  1.00  0.00    -0.021 C
HETATM    3  C5  UNL     1       5.823  63.955   0.640  1.00  0.00    -0.019 C
HETATM    4  C6  UNL     1       4.661  63.858   1.550  1.00  0.00     0.031 C
HETATM    5  C7  UNL     1       4.968  64.700   2.755  1.00  0.00     0.047 C
HETATM    6  C8  UNL     1       6.115  64.256   3.588  1.00  0.00     0.194 C
HETATM    7 BR1  UNL     1       5.268  63.509   5.218  1.00  0.00    -0.061 Br
HETATM    8  O3  UNL     1       6.957  63.338   3.177  1.00  0.00    -0.357 OA
HETATM    9  C9  UNL     1       7.774  63.385   2.116  1.00  0.00     0.116 C
HETATM   10  C14 UNL     1       8.979  64.305   2.330  1.00  0.00     0.190 C
HETATM   11  C15 UNL     1       9.867  64.446   1.162  1.00  0.00     0.203 C
HETATM   12  C18 UNL     1       9.327  64.248  -0.185  1.00  0.00     0.135 A
HETATM   13  C19 UNL     1      10.264  63.751  -1.282  1.00  0.00     0.212 A
HETATM   14  O7  UNL     1       9.923  65.079  -1.227  1.00  0.00    -0.369 OA
ENDROOT
BRANCH   1  15
HETATM   15  N1  UNL     1       7.734  62.983  -1.421  1.00  0.00    -0.325 N
HETATM   16  C2  UNL     1       7.159  63.238  -2.682  1.00  0.00     0.360 C
HETATM   17  O2  UNL     1       6.739  64.365  -3.024  1.00  0.00    -0.239 OA
ATOM     18  H1  UNL     1       8.052  62.033  -1.224  1.00  0.00     0.165 HD
BRANCH  16  19
HETATM   19  O1  UNL     1       7.042  62.212  -3.600  1.00  0.00    -0.309 OA
HETATM   20  C1  UNL     1       7.750  62.273  -4.837  1.00  0.00     0.215 C
ENDBRANCH  16  19
ENDBRANCH   1  15
BRANCH   9  21
HETATM   21  C10 UNL     1       8.369  62.017   1.934  1.00  0.00     0.046 C
BRANCH  21  22
HETATM   22  C11 UNL     1       7.480  60.840   1.945  1.00  0.00     0.004 C
BRANCH  22  23
HETATM   23  C12 UNL     1       7.913  59.667   2.768  1.00  0.00     0.011 C
BRANCH  23  24
HETATM   24  C13 UNL     1       6.630  59.047   3.353  1.00  0.00     0.085 C
HETATM   25 BR2  UNL     1       7.022  57.215   3.769  1.00  0.00    -0.097 Br
ENDBRANCH  23  24
ENDBRANCH  22  23
ENDBRANCH  21  22
ENDBRANCH   9  21
BRANCH  11  26
HETATM   26  O5  UNL     1      11.016  63.612   1.274  1.00  0.00    -0.310 OA
BRANCH  26  27
HETATM   27  C16 UNL     1      12.300  64.057   1.443  1.00  0.00     0.255 C
HETATM   28  C17 UNL     1      12.760  64.797   2.647  1.00  0.00     0.126 C
HETATM   29  O6  UNL     1      13.138  63.831   0.537  1.00  0.00    -0.266 OA
ENDBRANCH  26  27
ENDBRANCH  11  26
BRANCH  10  30
HETATM   30  O4  UNL     1       8.579  65.555   2.792  1.00  0.00    -0.389 OA
ATOM     31  H4  UNL     1       9.156  65.866   3.479  1.00  0.00     0.210 HD
ENDBRANCH  10  30
TORSDOF 9
ENDMDL