MODEL 5
REMARK VINA RESULT: -7.090757401      4.115      5.636
REMARK  8 active torsions:
REMARK  status: ('A' for Active; 'I' for Inactive)
REMARK    1  A    between atoms: C2_2  and  N1_3
REMARK    2  A    between atoms: N1_3  and  C3_5
REMARK    3  A    between atoms: C4_8  and  C5_9
REMARK    4  A    between atoms: N3_12  and  C8_13
REMARK       I    between atoms: N4_16  and  C11_17
REMARK    5  A    between atoms: C11_17  and  C12_19
REMARK    6  A    between atoms: C12_19  and  C13_20
REMARK    7  A    between atoms: C20_31  and  N7_32
REMARK    8  A    between atoms: C23_37  and  C24_38
ROOT
HETATM    1  C3  UNL     1       5.437  59.954   1.959  1.00  0.00     0.128 A
HETATM    2  N2  UNL     1       6.679  60.476   1.749  1.00  0.00    -0.330 N
ATOM      3  H2  UNL     1       7.466  59.958   2.138  1.00  0.00     0.168 HD
HETATM    4  C4  UNL     1       6.962  61.578   1.096  1.00  0.00     0.091 A
HETATM    5  N6  UNL     1       5.905  62.263   0.578  1.00  0.00    -0.330 N
ATOM      6  H6  UNL     1       6.075  63.125   0.060  1.00  0.00     0.168 HD
HETATM    7  C20 UNL     1       4.646  61.829   0.734  1.00  0.00     0.132 A
HETATM    8  C26 UNL     1       4.384  60.663   1.429  1.00  0.00     0.121 A
HETATM    9 CL1  UNL     1       2.718  60.119   1.607  1.00  0.00    -0.076 Cl
ENDROOT
BRANCH   4  10
HETATM   10  C5  UNL     1       8.251  62.219   0.884  1.00  0.00     0.093 C
HETATM   11  C6  UNL     1       8.229  63.222  -0.262  1.00  0.00     0.045 C
HETATM   12  C7  UNL     1       9.467  64.031   0.047  1.00  0.00     0.275 C
HETATM   13  N3  UNL     1      10.011  63.515   1.315  1.00  0.00     0.103 N
HETATM   14  C17 UNL     1       8.801  63.090   1.979  1.00  0.00     0.163 C
HETATM   15  C18 UNL     1       9.023  62.189   3.161  1.00  0.00     0.049 C
HETATM   16  C19 UNL     1       7.871  64.239   2.289  1.00  0.00     0.049 C
BRANCH  13  17
HETATM   17  C8  UNL     1      10.780  64.530   1.912  1.00  0.00     0.227 C
HETATM   18  C9  UNL     1      12.229  64.016   1.911  1.00  0.00     0.056 C
HETATM   19  C10 UNL     1      13.182  65.067   2.431  1.00  0.00     0.128 C
HETATM   20  N4  UNL     1      12.799  65.329   3.795  1.00  0.00    -0.347 N
HETATM   21  C11 UNL     1      13.690  65.205   4.882  1.00  0.00     0.228 C
HETATM   22  C14 UNL     1      11.437  65.735   4.002  1.00  0.00     0.085 C
HETATM   23  O1  UNL     1      13.278  65.454   6.046  1.00  0.00    -0.273 OA
HETATM   24  C15 UNL     1      11.154  67.119   3.491  1.00  0.00     0.032 C
HETATM   25  C16 UNL     1      10.433  64.777   3.356  1.00  0.00     0.061 C
BRANCH  21  26
HETATM   26  C12 UNL     1      15.105  64.799   4.751  1.00  0.00     0.202 C
BRANCH  26  27
HETATM   27  C13 UNL     1      15.377  63.744   5.791  1.00  0.00     0.239 C
HETATM   28  N5  UNL     1      15.253  64.031   7.176  1.00  0.00    -0.062 NA
HETATM   29  O2  UNL     1      15.718  62.614   5.364  1.00  0.00    -0.276 OA
ENDBRANCH  26  27
ENDBRANCH  21  26
ENDBRANCH  13  17
ENDBRANCH   4  10
BRANCH   1  30
HETATM   30  N1  UNL     1       5.368  58.900   2.597  1.00  0.00    -0.375 N
ATOM     31  H1  UNL     1       4.545  58.939   3.199  1.00  0.00     0.161 HD
BRANCH  30  32
HETATM   32  C2  UNL     1       5.997  57.689   2.790  1.00  0.00     0.116 C
HETATM   33  C1  UNL     1       7.119  57.733   3.834  1.00  0.00     0.026 C
ENDBRANCH  30  32
ENDBRANCH   1  30
BRANCH   7  34
HETATM   34  N7  UNL     1       3.552  62.563   0.186  1.00  0.00    -0.334 N
HETATM   35  C21 UNL     1       3.041  62.371  -1.161  1.00  0.00     0.193 C
HETATM   36  C22 UNL     1       2.466  63.746  -1.439  1.00  0.00     0.327 C
HETATM   37  F1  UNL     1       1.100  63.682  -1.745  1.00  0.00    -0.218 F
HETATM   38  O3  UNL     1       2.574  64.501  -0.297  1.00  0.00    -0.331 OA
HETATM   39  C23 UNL     1       2.743  63.609   0.757  1.00  0.00     0.227 C
BRANCH  39  40
HETATM   40  C24 UNL     1       3.394  64.293   1.947  1.00  0.00     0.049 C
HETATM   41  C25 UNL     1       4.026  65.607   1.464  1.00  0.00     0.009 C
ENDBRANCH  39  40
ENDBRANCH   7  34
TORSDOF 8
ENDMDL