MODEL 4
REMARK VINA RESULT: -7.371877104      2.083      3.077
REMARK  8 active torsions:
REMARK  status: ('A' for Active; 'I' for Inactive)
REMARK       I    between atoms: N2_9  and  C6_10
REMARK    1  A    between atoms: C6_10  and  O3_12
REMARK    2  A    between atoms: O3_12  and  C7_13
REMARK    3  A    between atoms: C7_13  and  C8_14
REMARK    4  A    between atoms: C8_14  and  C9_15
REMARK    5  A    between atoms: C9_15  and  C10_16
REMARK    6  A    between atoms: C10_16  and  C11_17
REMARK    7  A    between atoms: C10_16  and  C16_26
REMARK       I    between atoms: C11_17  and  N3_19
REMARK    8  A    between atoms: N3_19  and  C12_21
ROOT
HETATM    1  C12 UNL     1      11.332  65.022   2.943  1.00  0.00     0.122 A
HETATM    2  C13 UNL     1      12.130  64.441   1.858  1.00  0.00     0.091 C
HETATM    3  N4  UNL     1      12.749  64.001   0.994  1.00  0.00    -0.195 NA
HETATM    4  C14 UNL     1      12.105  65.268   4.263  1.00  0.00     0.050 A
HETATM    5  C15 UNL     1      11.798  66.390   3.372  1.00  0.00     0.050 A
ENDROOT
BRANCH   1   6
HETATM    6  N3  UNL     1       9.948  64.658   3.106  1.00  0.00    -0.339 N
HETATM    7  C11 UNL     1       8.897  65.120   2.284  1.00  0.00     0.224 C
HETATM    8  O4  UNL     1       9.262  65.894   1.341  1.00  0.00    -0.273 OA
ATOM      9  H3  UNL     1       9.711  64.021   3.867  1.00  0.00     0.164 HD
BRANCH   7  10
HETATM   10  C10 UNL     1       7.445  64.764   2.462  1.00  0.00     0.088 C
BRANCH  10  11
HETATM   11  C9  UNL     1       7.199  63.379   2.856  1.00  0.00     0.055 C
BRANCH  11  12
HETATM   12  C8  UNL     1       7.178  62.226   1.939  1.00  0.00     0.092 C
HETATM   13  O5  UNL     1       8.202  61.397   2.559  1.00  0.00    -0.371 OA
HETATM   14  C20 UNL     1       8.068  60.075   2.365  1.00  0.00     0.247 C
HETATM   15  C21 UNL     1       6.858  59.444   3.015  1.00  0.00     0.265 C
HETATM   16  F1  UNL     1       7.171  58.936   4.256  1.00  0.00    -0.204 F
HETATM   17  F2  UNL     1       6.373  58.382   2.278  1.00  0.00    -0.204 F
HETATM   18  C22 UNL     1       5.829  60.529   3.234  1.00  0.00     0.094 C
HETATM   19  C23 UNL     1       5.820  61.529   2.076  1.00  0.00     0.002 C
HETATM   20  C24 UNL     1       4.730  62.526   2.500  1.00  0.00     0.039 C
HETATM   21  C27 UNL     1       5.268  60.936   0.847  1.00  0.00     0.039 C
HETATM   22  C25 UNL     1       3.361  61.894   2.409  1.00  0.00     0.168 C
HETATM   23  O6  UNL     1       2.987  61.643   1.117  1.00  0.00    -0.391 OA
HETATM   24  C26 UNL     1       4.062  61.701   0.276  1.00  0.00     0.168 C
BRANCH  12  25
HETATM   25  C7  UNL     1       7.619  62.282   0.537  1.00  0.00     0.219 C
BRANCH  25  26
HETATM   26  O3  UNL     1       7.440  63.275  -0.360  1.00  0.00    -0.301 OA
BRANCH  26  27
HETATM   27  C6  UNL     1       7.203  63.189  -1.687  1.00  0.00     0.363 C
HETATM   28  N2  UNL     1       8.043  63.753  -2.685  1.00  0.00    -0.313 N
HETATM   29  C2  UNL     1       9.219  64.467  -2.258  1.00  0.00     0.177 C
HETATM   30  C5  UNL     1       7.746  63.624  -4.080  1.00  0.00     0.149 C
HETATM   31  C1  UNL     1      10.182  63.592  -1.479  1.00  0.00     0.043 C
HETATM   32  C3  UNL     1       9.975  65.079  -3.362  1.00  0.00     0.240 C
HETATM   33  O1  UNL     1      10.712  66.082  -3.104  1.00  0.00    -0.271 OA
HETATM   34  N1  UNL     1       9.862  64.541  -4.662  1.00  0.00    -0.358 N
HETATM   35  C4  UNL     1       9.031  63.373  -4.859  1.00  0.00     0.142 C
ATOM     36  H1  UNL     1      10.356  64.967  -5.446  1.00  0.00     0.162 HD
HETATM   37  O2  UNL     1       6.164  62.567  -2.102  1.00  0.00    -0.238 OA
ENDBRANCH  26  27
ENDBRANCH  25  26
ENDBRANCH  12  25
ENDBRANCH  11  12
ENDBRANCH  10  11
BRANCH  10  38
HETATM   38  C16 UNL     1       6.824  65.715   3.479  1.00  0.00    -0.039 C
HETATM   39  C17 UNL     1       5.569  66.355   2.872  1.00  0.00     0.015 C
HETATM   40  C18 UNL     1       6.308  64.927   4.683  1.00  0.00     0.015 C
HETATM   41  C19 UNL     1       7.759  66.730   4.007  1.00  0.00     0.015 C
ENDBRANCH  10  38
ENDBRANCH   7  10
ENDBRANCH   1   6
TORSDOF 8
ENDMDL