MODEL 3
REMARK VINA RESULT: -7.855356731      3.161      4.972
REMARK  9 active torsions:
REMARK  status: ('A' for Active; 'I' for Inactive)
REMARK    1  A    between atoms: C1_2  and  C2_3
REMARK       I    between atoms: C1_2  and  N1_10
REMARK    2  A    between atoms: C2_3  and  C3_4
REMARK    3  A    between atoms: N1_10  and  C7_12
REMARK    4  A    between atoms: C10_16  and  C11_17
REMARK    5  A    between atoms: C11_17  and  C12_18
REMARK    6  A    between atoms: C12_18  and  C13_19
REMARK    7  A    between atoms: C13_19  and  C14_20
REMARK    8  A    between atoms: C14_20  and  C15_21
REMARK       I    between atoms: N4_27  and  C17_29
REMARK    9  A    between atoms: C17_29  and  C18_31
ROOT
HETATM    1  C7  UNL     1      10.178  62.692   0.862  1.00  0.00     0.123 A
HETATM    2  C8  UNL     1       9.367  61.920   1.690  1.00  0.00     0.071 A
HETATM    3  C9  UNL     1       8.045  61.660   1.414  1.00  0.00     0.038 A
HETATM    4 BR1  UNL     1       7.026  60.589   2.620  1.00  0.00    -0.049 Br
HETATM    5  C10 UNL     1       7.517  62.198   0.260  1.00  0.00     0.043 A
HETATM    6  N5  UNL     1       8.328  62.936  -0.515  1.00  0.00    -0.302 N
ATOM      7  H5  UNL     1       7.938  63.334  -1.370  1.00  0.00     0.186 HD
HETATM    8  N6  UNL     1       9.594  63.181  -0.244  1.00  0.00    -0.285 N
ATOM      9  H6  UNL     1      10.141  63.754  -0.888  1.00  0.00     0.188 HD
ENDROOT
BRANCH   5  10
HETATM   10  C11 UNL     1       6.110  61.940  -0.061  1.00  0.00     0.060 C
BRANCH  10  11
HETATM   11  C12 UNL     1       5.322  63.141  -0.470  1.00  0.00     0.006 C
BRANCH  11  12
HETATM   12  C13 UNL     1       4.941  64.019   0.698  1.00  0.00     0.007 C
BRANCH  12  13
HETATM   13  C14 UNL     1       5.592  65.378   0.649  1.00  0.00     0.066 C
BRANCH  13  14
HETATM   14  C15 UNL     1       6.591  65.537   1.769  1.00  0.00     0.069 A
HETATM   15  N2  UNL     1       6.808  64.774   2.829  1.00  0.00    -0.296 N
HETATM   16  N3  UNL     1       7.705  65.079   3.668  1.00  0.00    -0.279 N
ATOM     17  H2  UNL     1       6.248  63.932   2.970  1.00  0.00     0.187 HD
HETATM   18  C16 UNL     1       8.425  66.185   3.463  1.00  0.00     0.168 A
ATOM     19  H3  UNL     1       7.874  64.492   4.484  1.00  0.00     0.189 HD
HETATM   20  N4  UNL     1       9.392  66.679   4.202  1.00  0.00    -0.297 N
HETATM   21  S1  UNL     1       7.753  66.769   2.003  1.00  0.00    -0.038 SA
HETATM   22  C17 UNL     1      10.039  67.881   3.806  1.00  0.00     0.324 C
ATOM     23  H4  UNL     1       9.678  66.201   5.056  1.00  0.00     0.171 HD
HETATM   24  O3  UNL     1      11.267  67.843   3.540  1.00  0.00    -0.260 OA
BRANCH  22  25
HETATM   25  C18 UNL     1       9.299  69.141   3.704  1.00  0.00     0.270 C
HETATM   26  O4  UNL     1       8.414  69.468   4.505  1.00  0.00    -0.640 OA
HETATM   27  O5  UNL     1       9.593  70.020   2.670  1.00  0.00    -0.640 OA
ENDBRANCH  22  25
ENDBRANCH  13  14
ENDBRANCH  12  13
ENDBRANCH  11  12
ENDBRANCH  10  11
ENDBRANCH   5  10
BRANCH   1  28
HETATM   28  N1  UNL     1      11.414  62.917   1.160  1.00  0.00    -0.312 N
HETATM   29  C1  UNL     1      12.111  64.084   0.765  1.00  0.00     0.229 C
HETATM   30  O1  UNL     1      12.552  64.126  -0.415  1.00  0.00    -0.273 OA
ATOM     31  H1  UNL     1      11.913  62.218   1.709  1.00  0.00     0.170 HD
BRANCH  29  32
HETATM   32  C2  UNL     1      12.335  65.229   1.670  1.00  0.00     0.168 C
BRANCH  32  33
HETATM   33  C3  UNL     1      13.330  64.871   2.714  1.00  0.00     0.063 A
HETATM   34  C4  UNL     1      13.195  65.103   4.067  1.00  0.00     0.059 A
HETATM   35  C5  UNL     1      14.339  64.619   4.688  1.00  0.00     0.058 A
HETATM   36 CL1  UNL     1      14.759  64.622   6.370  1.00  0.00    -0.082 Cl
HETATM   37  C6  UNL     1      15.115  64.113   3.677  1.00  0.00     0.166 A
HETATM   38  O2  UNL     1      14.484  64.283   2.541  1.00  0.00    -0.325 OA
ENDBRANCH  32  33
ENDBRANCH  29  32
ENDBRANCH   1  28
TORSDOF 9
ENDMDL