MODEL 5
REMARK VINA RESULT: -8.839378225      2.219      2.866
REMARK  8 active torsions:
REMARK  status: ('A' for Active; 'I' for Inactive)
REMARK    1  A    between atoms: C3_4  and  O1_5
REMARK    2  A    between atoms: O1_5  and  C4_6
REMARK    3  A    between atoms: C4_6  and  C5_7
REMARK    4  A    between atoms: C5_7  and  N2_8
REMARK    5  A    between atoms: C7_10  and  O2_11
REMARK    6  A    between atoms: C11_18  and  N4_21
REMARK    7  A    between atoms: N5_26  and  C16_27
REMARK    8  A    between atoms: C19_30  and  N6_31
ROOT
HETATM    1  C1  UNL     1       8.579  66.454   3.119  1.00  0.00     0.152 C
HETATM    2  N1  UNL     1       9.583  65.621   2.496  1.00  0.00    -0.351 N
HETATM    3  C2  UNL     1      10.641  65.143   3.364  1.00  0.00     0.163 C
HETATM    4  C3  UNL     1      11.942  65.556   2.688  1.00  0.00     0.211 C
HETATM    5  C9  UNL     1      12.227  64.723   1.470  1.00  0.00     0.274 C
HETATM    6  F1  UNL     1      13.421  64.022   1.748  1.00  0.00    -0.203 F
HETATM    7  F2  UNL     1      12.522  65.465   0.345  1.00  0.00    -0.203 F
HETATM    8  C10 UNL     1      11.225  63.693   1.123  1.00  0.00     0.139 C
HETATM    9  C11 UNL     1       9.989  64.222   0.372  1.00  0.00     0.208 C
HETATM   10  C12 UNL     1      10.452  64.661  -0.975  1.00  0.00     0.101 C
HETATM   11  N3  UNL     1      10.793  64.994  -2.044  1.00  0.00    -0.194 NA
HETATM   12  C27 UNL     1       9.427  65.373   1.110  1.00  0.00     0.263 C
HETATM   13  O3  UNL     1       8.742  66.218   0.432  1.00  0.00    -0.269 OA
ENDROOT
BRANCH   9  14
HETATM   14  N4  UNL     1       9.082  63.167   0.288  1.00  0.00    -0.346 N
HETATM   15  C13 UNL     1       8.364  62.444   0.975  1.00  0.00     0.118 A
HETATM   16  C14 UNL     1       8.097  62.340   2.319  1.00  0.00     0.068 A
HETATM   17  N7  UNL     1       7.564  61.482   0.383  1.00  0.00    -0.283 N
HETATM   18  C15 UNL     1       7.163  61.344   2.524  1.00  0.00     0.114 A
HETATM   19  N5  UNL     1       6.875  60.855   1.308  1.00  0.00    -0.297 N
ATOM     20  H7  UNL     1       7.517  61.289  -0.617  1.00  0.00     0.188 HD
ATOM     21  H4  UNL     1       8.979  62.899  -0.691  1.00  0.00     0.163 HD
BRANCH  19  22
HETATM   22  C16 UNL     1       5.928  59.794   1.041  1.00  0.00     0.107 C
HETATM   23  C17 UNL     1       5.466  59.240   2.382  1.00  0.00     0.029 C
HETATM   24  C18 UNL     1       4.425  58.188   2.040  1.00  0.00     0.027 C
HETATM   25  C19 UNL     1       3.186  58.963   1.635  1.00  0.00     0.079 C
HETATM   26  C25 UNL     1       3.439  60.044   0.644  1.00  0.00     0.027 C
HETATM   27  C26 UNL     1       4.824  60.153   0.114  1.00  0.00     0.029 C
BRANCH  25  28
HETATM   28  N6  UNL     1       2.159  58.035   1.304  1.00  0.00    -0.408 N
HETATM   29  C20 UNL     1       2.268  57.384   0.040  1.00  0.00     0.117 C
HETATM   30  C21 UNL     1       1.154  56.329  -0.002  1.00  0.00     0.019 C
HETATM   31  C22 UNL     1       0.745  55.956   1.419  1.00  0.00     0.003 C
HETATM   32  C23 UNL     1       0.118  57.147   2.137  1.00  0.00     0.019 C
HETATM   33  C24 UNL     1       0.826  58.416   1.640  1.00  0.00     0.117 C
ENDBRANCH  25  28
ENDBRANCH  19  22
ENDBRANCH   9  14
BRANCH   4  34
HETATM   34  O1  UNL     1      13.004  65.622   3.553  1.00  0.00    -0.376 OA
BRANCH  34  35
HETATM   35  C4  UNL     1      12.733  65.846   4.868  1.00  0.00     0.198 C
BRANCH  35  36
HETATM   36  C5  UNL     1      13.862  65.668   5.824  1.00  0.00     0.298 C
BRANCH  36  37
HETATM   37  N2  UNL     1      14.230  64.315   6.082  1.00  0.00     0.095 N
HETATM   38  C6  UNL     1      14.715  64.008   7.406  1.00  0.00     0.305 A
HETATM   39  C7  UNL     1      15.958  63.420   6.754  1.00  0.00     0.174 A
HETATM   40  C8  UNL     1      15.321  63.730   5.391  1.00  0.00     0.305 A
BRANCH  39  41
HETATM   41  O2  UNL     1      16.089  62.058   6.964  1.00  0.00    -0.392 OA
ATOM     42  H2  UNL     1      15.255  61.614   7.067  1.00  0.00     0.210 HD
ENDBRANCH  39  41
ENDBRANCH  36  37
ENDBRANCH  35  36
ENDBRANCH  34  35
ENDBRANCH   4  34
TORSDOF 8
ENDMDL