MODEL 4
REMARK VINA RESULT: -7.611128147      2.280      2.804
REMARK  8 active torsions:
REMARK  status: ('A' for Active; 'I' for Inactive)
REMARK       I    between atoms: C1_2  and  N1_3
REMARK    1  A    between atoms: C1_2  and  C16_26
REMARK    2  A    between atoms: N1_3  and  C2_5
REMARK    3  A    between atoms: C7_10  and  C8_11
REMARK       I    between atoms: C8_11  and  N2_13
REMARK    4  A    between atoms: C9_14  and  C10_15
REMARK    5  A    between atoms: C10_15  and  O3_16
REMARK    6  A    between atoms: C12_20  and  C13_21
REMARK    7  A    between atoms: C13_21  and  C14_23
REMARK    8  A    between atoms: N4_30  and  C18_31
ROOT
HETATM    1  C2  UNL     1       6.376  60.458   3.700  1.00  0.00     0.093 C
HETATM    2  C3  UNL     1       7.684  60.003   3.007  1.00  0.00     0.009 C
HETATM    3  C4  UNL     1       7.535  58.550   3.379  1.00  0.00     0.007 C
HETATM    4  C5  UNL     1       6.251  58.200   3.341  1.00  0.00     0.008 C
HETATM    5  C6  UNL     1       5.527  59.480   2.919  1.00  0.00     0.022 C
HETATM    6  C7  UNL     1       5.924  59.640   1.503  1.00  0.00     0.084 C
HETATM    7  C15 UNL     1       7.334  60.263   1.592  1.00  0.00     0.021 C
ENDROOT
BRANCH   1   8
HETATM    8  N1  UNL     1       6.095  61.828   3.557  1.00  0.00    -0.350 N
HETATM    9  C1  UNL     1       6.378  62.662   4.705  1.00  0.00     0.271 C
HETATM   10  O1  UNL     1       6.847  62.189   5.780  1.00  0.00    -0.266 OA
ATOM     11  H1  UNL     1       5.714  62.212   2.692  1.00  0.00     0.163 HD
BRANCH   9  12
HETATM   12  C16 UNL     1       6.132  64.113   4.685  1.00  0.00     0.134 A
HETATM   13  C17 UNL     1       5.042  64.781   5.189  1.00  0.00     0.145 A
HETATM   14  N3  UNL     1       5.253  66.088   4.935  1.00  0.00    -0.292 N
HETATM   15  N4  UNL     1       6.406  66.231   4.310  1.00  0.00    -0.224 N
ATOM     16  H3  UNL     1       4.620  66.848   5.186  1.00  0.00     0.187 HD
HETATM   17  N5  UNL     1       6.942  65.037   4.156  1.00  0.00    -0.277 N
ATOM     18  H5  UNL     1       7.836  64.846   3.703  1.00  0.00     0.189 HD
BRANCH  15  19
HETATM   19  C18 UNL     1       6.932  67.518   3.888  1.00  0.00     0.071 C
HETATM   20  C19 UNL     1       6.448  68.633   4.788  1.00  0.00     0.039 C
HETATM   21  C20 UNL     1       7.039  69.921   4.286  1.00  0.00    -0.011 C
HETATM   22  C21 UNL     1       8.558  69.899   4.300  1.00  0.00     0.009 C
HETATM   23  C25 UNL     1       6.609  70.250   2.878  1.00  0.00     0.009 C
HETATM   24  C22 UNL     1       9.030  68.764   3.423  1.00  0.00    -0.011 C
HETATM   25  C23 UNL     1       8.571  69.065   2.018  1.00  0.00     0.009 C
HETATM   26  C27 UNL     1       8.430  67.479   3.949  1.00  0.00     0.039 C
HETATM   27  C24 UNL     1       7.066  69.087   1.992  1.00  0.00    -0.011 C
HETATM   28  C26 UNL     1       6.460  67.807   2.473  1.00  0.00     0.039 C
ENDBRANCH  15  19
ENDBRANCH   9  12
ENDBRANCH   1   8
BRANCH   6  29
HETATM   29  C8  UNL     1       5.065  60.353   0.591  1.00  0.00     0.227 C
HETATM   30  O2  UNL     1       5.608  61.277  -0.116  1.00  0.00    -0.273 OA
HETATM   31  N2  UNL     1       3.674  60.093   0.439  1.00  0.00    -0.314 N
HETATM   32  C9  UNL     1       2.815  59.126   1.071  1.00  0.00     0.137 C
HETATM   33  C12 UNL     1       2.831  60.853  -0.450  1.00  0.00     0.261 C
HETATM   34  C11 UNL     1       1.473  59.370   0.391  1.00  0.00     0.198 C
HETATM   35  O4  UNL     1       1.855  59.911  -0.855  1.00  0.00    -0.361 OA
BRANCH  32  36
HETATM   36  C10 UNL     1       3.227  57.696   0.945  1.00  0.00     0.191 C
BRANCH  36  37
HETATM   37  O3  UNL     1       2.760  57.052  -0.187  1.00  0.00    -0.399 OA
ATOM     38  H3  UNL     1       2.136  56.355  -0.022  1.00  0.00     0.209 HD
ENDBRANCH  36  37
ENDBRANCH  32  36
BRANCH  33  39
HETATM   39  C13 UNL     1       3.469  61.495  -1.622  1.00  0.00     0.232 C
HETATM   40  F1  UNL     1       3.082  60.940  -2.811  1.00  0.00    -0.244 F
BRANCH  39  41
HETATM   41  C14 UNL     1       2.855  62.932  -1.659  1.00  0.00     0.156 C
HETATM   42 CL1  UNL     1       2.914  63.581  -0.016  1.00  0.00    -0.127 Cl
ENDBRANCH  39  41
ENDBRANCH  33  39
ENDBRANCH   6  29
TORSDOF 8
ENDMDL