MODEL 4
REMARK VINA RESULT: -8.535608129      1.462      2.258
REMARK  8 active torsions:
REMARK  status: ('A' for Active; 'I' for Inactive)
REMARK    1  A    between atoms: N2_5  and  C4_6
REMARK    2  A    between atoms: N3_9  and  C7_10
REMARK    3  A    between atoms: C7_10  and  C8_14
REMARK    4  A    between atoms: C8_14  and  N5_15
REMARK       I    between atoms: N5_15  and  C9_17
REMARK    5  A    between atoms: C9_17  and  C10_19
REMARK    6  A    between atoms: C10_19  and  C11_20
REMARK    7  A    between atoms: C10_19  and  C16_30
REMARK    8  A    between atoms: C11_20  and  C12_21
ROOT
HETATM    1  C8  UNL     1      -3.250  11.162  20.179  1.00  0.00     0.198 C
ENDROOT
BRANCH   1   2
HETATM    2  C7  UNL     1      -2.692  12.158  21.081  1.00  0.00     0.090 C
HETATM    3  N4  UNL     1      -2.461  13.366  20.750  1.00  0.00    -0.388 N
ATOM      4  H42 UNL     1      -2.070  14.065  21.382  1.00  0.00     0.157 HD
ATOM      5  H41 UNL     1      -2.692  13.617  19.788  1.00  0.00     0.157 HD
BRANCH   2   6
HETATM    6  N3  UNL     1      -2.369  11.804  22.433  1.00  0.00    -0.370 N
HETATM    7  C6  UNL     1      -3.276  12.233  23.479  1.00  0.00     0.126 C
HETATM    8  C5  UNL     1      -3.334  11.073  24.461  1.00  0.00     0.055 C
HETATM    9  C4  UNL     1      -2.007  10.811  25.100  1.00  0.00     0.226 C
HETATM   10  C18 UNL     1      -0.836  11.028  24.183  1.00  0.00     0.055 C
HETATM   11  C17 UNL     1      -1.191  11.055  22.722  1.00  0.00     0.126 C
BRANCH   9  12
HETATM   12  N2  UNL     1      -1.966   9.529  25.742  1.00  0.00     0.096 N
HETATM   13  C3  UNL     1      -2.440   9.511  27.090  1.00  0.00     0.303 C
HETATM   14  C2  UNL     1      -2.267   8.074  27.594  1.00  0.00     0.302 C
HETATM   15  N1  UNL     1      -0.854   7.735  27.672  1.00  0.00     0.087 N
HETATM   16  C1  UNL     1      -0.591   6.416  27.096  1.00  0.00     0.310 C
HETATM   17  C20 UNL     1      -0.041   8.713  26.973  1.00  0.00     0.302 C
HETATM   18  C19 UNL     1      -0.648   8.940  25.603  1.00  0.00     0.303 C
ENDBRANCH   9  12
ENDBRANCH   2   6
ENDBRANCH   1   2
BRANCH   1  19
HETATM   19  N5  UNL     1      -4.679  11.077  20.125  1.00  0.00    -0.354 N
HETATM   20  C9  UNL     1      -5.347  10.105  20.922  1.00  0.00     0.225 C
HETATM   21  O1  UNL     1      -4.616   9.357  21.651  1.00  0.00    -0.273 OA
ATOM     22  H5  UNL     1      -5.212  11.706  19.523  1.00  0.00     0.162 HD
BRANCH  20  23
HETATM   23  C10 UNL     1      -6.821   9.940  20.932  1.00  0.00     0.116 C
BRANCH  23  24
HETATM   24  C11 UNL     1      -7.413  10.036  19.561  1.00  0.00     0.075 C
BRANCH  24  25
HETATM   25  C12 UNL     1      -7.194   8.722  18.871  1.00  0.00     0.035 A
HETATM   26  N6  UNL     1      -6.948   7.519  19.411  1.00  0.00    -0.347 N
HETATM   27  C13 UNL     1      -6.816   6.599  18.454  1.00  0.00     0.127 A
ATOM     28  H6  UNL     1      -6.871   7.334  20.411  1.00  0.00     0.167 HD
HETATM   29 CL1  UNL     1      -6.488   4.871  18.621  1.00  0.00    -0.063 Cl
HETATM   30  C14 UNL     1      -6.978   7.201  17.242  1.00  0.00     0.096 A
HETATM   31 CL2  UNL     1      -6.915   6.503  15.630  1.00  0.00    -0.079 Cl
HETATM   32  C15 UNL     1      -7.215   8.531  17.495  1.00  0.00     0.081 A
HETATM   33 CL3  UNL     1      -7.502   9.811  16.306  1.00  0.00    -0.080 Cl
ENDBRANCH  24  25
ENDBRANCH  23  24
BRANCH  23  34
HETATM   34  C16 UNL     1      -7.499  10.866  21.880  1.00  0.00     0.191 C
HETATM   35 CL4  UNL     1      -7.499  12.491  21.112  1.00  0.00    -0.107 Cl
HETATM   36 CL5  UNL     1      -9.137  10.429  22.321  1.00  0.00    -0.107 Cl
ENDBRANCH  23  34
ENDBRANCH  20  23
ENDBRANCH   1  19
TORSDOF 8
ENDMDL