MODEL 2
REMARK VINA RESULT: -7.876071254      2.279      7.368
REMARK  11 active torsions:
REMARK  status: ('A' for Active; 'I' for Inactive)
REMARK    1  A    between atoms: C2_3  and  N2_4
REMARK    2  A    between atoms: N2_4  and  C3_6
REMARK    3  A    between atoms: C3_6  and  O1_7
REMARK    4  A    between atoms: C3_6  and  C4_9
REMARK       I    between atoms: C4_9  and  N3_11
REMARK    5  A    between atoms: N3_11  and  C5_13
REMARK    6  A    between atoms: C5_13  and  C6_14
REMARK    7  A    between atoms: C6_14  and  N4_15
REMARK    8  A    between atoms: C15_30  and  N7_31
REMARK    9  A    between atoms: N7_31  and  C16_33
REMARK   10  A    between atoms: C19_36  and  C20_37
REMARK   11  A    between atoms: C20_37  and  C23_40
ROOT
HETATM    1  C1  UNL     1      -3.179  10.160  20.031  1.00  0.00     0.175 C
HETATM    2  N1  UNL     1      -3.872  10.863  19.014  1.00  0.00    -0.185 N
HETATM    3  C2  UNL     1      -3.418  12.084  18.514  1.00  0.00     0.683 A
HETATM    4  N5  UNL     1      -4.127  12.424  17.453  1.00  0.00    -0.188 N
ATOM      5  H5  UNL     1      -3.998  13.270  16.897  1.00  0.00     0.184 HD
HETATM    6  C13 UNL     1      -5.044  11.470  17.228  1.00  0.00     0.092 A
HETATM    7  C14 UNL     1      -5.931  11.316  16.185  1.00  0.00     0.122 A
HETATM    8  N6  UNL     1      -6.654  10.209  16.125  1.00  0.00    -0.350 N
ATOM      9  H6  UNL     1      -7.309  10.084  15.352  1.00  0.00     0.166 HD
HETATM   10  C15 UNL     1      -6.546   9.229  17.075  1.00  0.00     0.111 A
HETATM   11  C19 UNL     1      -5.698   9.301  18.156  1.00  0.00     0.032 A
HETATM   12  C24 UNL     1      -4.886  10.487  18.227  1.00  0.00     0.091 A
ENDROOT
BRANCH   3  13
HETATM   13  N2  UNL     1      -2.456  12.684  19.102  1.00  0.00    -0.190 N
ATOM     14  H2  UNL     1      -1.538  12.238  19.073  1.00  0.00     0.181 HD
BRANCH  13  15
HETATM   15  C3  UNL     1      -2.556  13.929  19.798  1.00  0.00     0.327 C
BRANCH  15  16
HETATM   16  O1  UNL     1      -3.031  14.968  19.038  1.00  0.00    -0.368 OA
ATOM     17  H1  UNL     1      -2.357  15.489  18.618  1.00  0.00     0.212 HD
ENDBRANCH  15  16
BRANCH  15  18
HETATM   18  C4  UNL     1      -3.355  13.701  21.029  1.00  0.00     0.267 C
HETATM   19  O2  UNL     1      -4.454  14.266  21.188  1.00  0.00    -0.269 OA
HETATM   20  N3  UNL     1      -2.854  12.835  22.017  1.00  0.00    -0.356 N
ATOM     21  H3  UNL     1      -1.950  12.387  21.874  1.00  0.00     0.162 HD
BRANCH  20  22
HETATM   22  C5  UNL     1      -3.582  12.568  23.216  1.00  0.00     0.150 C
BRANCH  22  23
HETATM   23  C6  UNL     1      -3.331  11.197  23.737  1.00  0.00     0.256 C
BRANCH  23  24
HETATM   24  N4  UNL     1      -2.537  11.078  24.907  1.00  0.00    -0.069 N
HETATM   25  C7  UNL     1      -2.524  12.326  25.639  1.00  0.00     0.272 C
HETATM   26  C8  UNL     1      -2.946   9.983  25.733  1.00  0.00     0.243 C
HETATM   27  C9  UNL     1      -1.796   9.610  26.692  1.00  0.00     0.107 C
HETATM   28  C10 UNL     1      -0.651   9.010  25.911  1.00  0.00     0.246 C
HETATM   29  F1  UNL     1      -0.634   7.641  25.992  1.00  0.00    -0.206 F
HETATM   30  F2  UNL     1       0.556   9.566  26.315  1.00  0.00    -0.206 F
HETATM   31  C11 UNL     1      -0.840   9.406  24.461  1.00  0.00     0.107 C
HETATM   32  C12 UNL     1      -1.152  10.879  24.436  1.00  0.00     0.243 C
ENDBRANCH  23  24
ENDBRANCH  22  23
ENDBRANCH  20  22
ENDBRANCH  15  18
ENDBRANCH  13  15
ENDBRANCH   3  13
BRANCH  11  33
HETATM   33  C20 UNL     1      -5.554   8.336  19.247  1.00  0.00     0.083 C
HETATM   34  C21 UNL     1      -5.160   6.942  19.006  1.00  0.00     0.029 C
HETATM   35  C22 UNL     1      -5.507   8.920  20.650  1.00  0.00     0.029 C
BRANCH  33  36
HETATM   36  C23 UNL     1      -7.126   7.887  19.483  1.00  0.00     0.399 C
HETATM   37  F3  UNL     1      -7.940   8.894  19.448  1.00  0.00    -0.170 F
HETATM   38  F4  UNL     1      -7.089   7.610  20.964  1.00  0.00    -0.170 F
HETATM   39  F5  UNL     1      -7.352   6.602  19.237  1.00  0.00    -0.170 F
ENDBRANCH  33  36
ENDBRANCH  11  33
BRANCH  10  40
HETATM   40  N7  UNL     1      -7.212   8.168  16.881  1.00  0.00    -0.371 N
ATOM     41  H7  UNL     1      -7.985   7.917  17.497  1.00  0.00     0.161 HD
BRANCH  40  42
HETATM   42  C16 UNL     1      -6.848   7.309  15.752  1.00  0.00     0.083 A
HETATM   43  C17 UNL     1      -7.950   6.408  15.257  1.00  0.00     0.027 A
HETATM   44  C18 UNL     1      -6.777   5.853  16.011  1.00  0.00     0.027 A
ENDBRANCH  40  42
ENDBRANCH  10  40
TORSDOF 11
ENDMDL