MODEL 3
REMARK VINA RESULT: -7.813222631      3.090      5.779
REMARK  10 active torsions:
REMARK  status: ('A' for Active; 'I' for Inactive)
REMARK    1  A    between atoms: N1_2  and  C2_3
REMARK    2  A    between atoms: N1_2  and  C18_32
REMARK    3  A    between atoms: C2_3  and  C3_4
REMARK    4  A    between atoms: C3_4  and  O1_5
REMARK    5  A    between atoms: C3_4  and  N2_7
REMARK    6  A    between atoms: C6_10  and  C7_11
REMARK    7  A    between atoms: C7_11  and  N3_12
REMARK       I    between atoms: N3_12  and  C8_14
REMARK    8  A    between atoms: C8_14  and  C9_16
REMARK    9  A    between atoms: C15_27  and  C16_28
REMARK   10  A    between atoms: C21_35  and  C22_36
ROOT
HETATM    1  N2  UNL     1      -4.709  12.291  21.155  1.00  0.00    -0.363 N
HETATM    2  C4  UNL     1      -5.145  13.050  19.952  1.00  0.00     0.125 C
HETATM    3  C5  UNL     1      -4.111  13.831  19.305  1.00  0.00     0.029 C
HETATM    4  C6  UNL     1      -3.012  13.202  18.538  1.00  0.00     0.044 C
HETATM    5  C14 UNL     1      -2.133  12.261  19.263  1.00  0.00     0.020 C
HETATM    6  C15 UNL     1      -2.708  11.425  20.334  1.00  0.00     0.069 C
HETATM    7  C17 UNL     1      -3.339  12.215  21.489  1.00  0.00     0.134 C
ENDROOT
BRANCH   1   8
HETATM    8  C3  UNL     1      -5.773  11.669  21.791  1.00  0.00     0.142 C
BRANCH   8   9
HETATM    9  C2  UNL     1      -6.821  10.765  21.324  1.00  0.00     0.355 C
BRANCH   9  10
HETATM   10  N1  UNL     1      -7.076  10.609  19.944  1.00  0.00     0.096 N
HETATM   11  C1  UNL     1      -8.538  10.776  19.718  1.00  0.00     0.310 C
BRANCH  10  12
HETATM   12  C18 UNL     1      -6.775   9.203  19.554  1.00  0.00     0.223 C
HETATM   13  C19 UNL     1      -5.290   8.988  19.359  1.00  0.00     0.036 C
HETATM   14  C20 UNL     1      -5.088   7.474  19.281  1.00  0.00     0.015 C
HETATM   15  C21 UNL     1      -5.705   7.030  17.996  1.00  0.00     0.093 C
HETATM   16  C23 UNL     1      -6.614   8.023  17.358  1.00  0.00     0.015 C
HETATM   17  C24 UNL     1      -7.514   8.772  18.325  1.00  0.00     0.036 C
BRANCH  15  18
HETATM   18  C22 UNL     1      -6.360   5.675  18.186  1.00  0.00     0.391 C
HETATM   19  F3  UNL     1      -5.383   4.714  18.464  1.00  0.00    -0.171 F
HETATM   20  F4  UNL     1      -7.050   5.250  17.086  1.00  0.00    -0.171 F
HETATM   21  F5  UNL     1      -7.185   5.724  19.293  1.00  0.00    -0.171 F
ENDBRANCH  15  18
ENDBRANCH  10  12
ENDBRANCH   9  10
ENDBRANCH   8   9
BRANCH   8  22
HETATM   22  O1  UNL     1      -5.911  11.924  23.101  1.00  0.00    -0.348 OA
ATOM     23  H1  UNL     1      -6.141  12.835  23.245  1.00  0.00     0.219 HD
ENDBRANCH   8  22
ENDBRANCH   1   8
BRANCH   6  24
HETATM   24  C16 UNL     1      -1.544  10.645  20.966  1.00  0.00     0.358 C
HETATM   25  F1  UNL     1      -0.362  11.301  20.598  1.00  0.00    -0.214 F
HETATM   26  F2  UNL     1      -1.522   9.345  20.537  1.00  0.00    -0.214 F
ENDBRANCH   6  24
BRANCH   4  27
HETATM   27  C7  UNL     1      -3.501  12.719  17.166  1.00  0.00     0.204 C
HETATM   28  C10 UNL     1      -4.410  11.517  17.296  1.00  0.00     0.062 C
HETATM   29  C11 UNL     1      -4.667  10.971  15.908  1.00  0.00     0.006 C
HETATM   30  C12 UNL     1      -5.489  12.043  15.179  1.00  0.00     0.028 C
HETATM   31  C13 UNL     1      -4.683  13.331  15.200  1.00  0.00     0.235 C
HETATM   32  N5  UNL     1      -4.307  13.726  16.513  1.00  0.00    -0.048 N
ATOM     33  H52 UNL     1      -5.122  13.973  17.075  1.00  0.00     0.280 HD
ATOM     34  H51 UNL     1      -3.837  14.632  16.508  1.00  0.00     0.280 HD
BRANCH  27  35
HETATM   35  N3  UNL     1      -2.417  12.319  16.318  1.00  0.00    -0.320 N
HETATM   36  C8  UNL     1      -1.449  13.213  15.795  1.00  0.00     0.308 C
HETATM   37  O2  UNL     1      -1.426  14.460  16.025  1.00  0.00    -0.263 OA
ATOM     38  H3  UNL     1      -2.337  11.331  16.076  1.00  0.00     0.165 HD
BRANCH  36  39
HETATM   39  C9  UNL     1      -0.371  12.737  14.923  1.00  0.00     0.322 C
HETATM   40  N4  UNL     1       0.336  11.561  15.208  1.00  0.00    -0.053 NA
HETATM   41  O3  UNL     1      -0.091  13.409  13.908  1.00  0.00    -0.266 OA
ENDBRANCH  36  39
ENDBRANCH  27  35
ENDBRANCH   4  27
TORSDOF 10
ENDMDL