MODEL 5
REMARK VINA RESULT: -6.719445517      3.459      6.768
REMARK  9 active torsions:
REMARK  status: ('A' for Active; 'I' for Inactive)
REMARK    1  A    between atoms: C2_2  and  O1_5
REMARK    2  A    between atoms: O1_5  and  C5_6
REMARK    3  A    between atoms: C5_6  and  O2_7
REMARK    4  A    between atoms: C5_6  and  C6_9
REMARK    5  A    between atoms: C9_19  and  C10_21
REMARK    6  A    between atoms: C13_24  and  O4_25
REMARK    7  A    between atoms: O4_25  and  C14_26
REMARK    8  A    between atoms: C14_26  and  C15_27
REMARK    9  A    between atoms: C15_27  and  C16_28
ROOT
HETATM    1  C6  UNL     1      -2.768  10.907  22.758  1.00  0.00     0.180 C
HETATM    2  C7  UNL     1      -1.334  11.258  23.144  1.00  0.00     0.337 C
HETATM    3  F1  UNL     1      -1.248  12.116  24.205  1.00  0.00    -0.182 F
HETATM    4  F2  UNL     1      -0.731  10.080  23.539  1.00  0.00    -0.182 F
HETATM    5  N1  UNL     1      -0.568  11.835  22.073  1.00  0.00    -0.280 N
ATOM      6  H1  UNL     1       0.443  11.704  22.058  1.00  0.00     0.170 HD
HETATM    7  C8  UNL     1      -1.191  12.593  21.019  1.00  0.00     0.322 C
HETATM    8  O3  UNL     1      -0.644  13.567  20.493  1.00  0.00    -0.247 OA
HETATM    9  N2  UNL     1      -2.492  12.084  20.679  1.00  0.00    -0.319 N
ATOM     10  H2  UNL     1      -3.144  12.576  20.069  1.00  0.00     0.166 HD
HETATM   11  C9  UNL     1      -2.789  10.790  21.295  1.00  0.00     0.136 C
HETATM   12 BR1  UNL     1      -1.165   9.719  20.882  1.00  0.00    -0.055 Br
ENDROOT
BRANCH  11  13
HETATM   13  C10 UNL     1      -3.904  10.123  20.625  1.00  0.00    -0.017 A
HETATM   14  C11 UNL     1      -4.716   9.211  21.300  1.00  0.00     0.013 A
HETATM   15  C12 UNL     1      -5.732   8.522  20.675  1.00  0.00     0.039 A
HETATM   16  C13 UNL     1      -6.000   8.700  19.338  1.00  0.00     0.086 A
HETATM   17  C17 UNL     1      -5.217   9.595  18.650  1.00  0.00     0.044 A
HETATM   18 BR2  UNL     1      -5.527   9.907  16.816  1.00  0.00    -0.048 Br
HETATM   19  C18 UNL     1      -4.180  10.296  19.291  1.00  0.00     0.032 A
BRANCH  16  20
HETATM   20  O4  UNL     1      -7.033   7.991  18.695  1.00  0.00    -0.350 OA
BRANCH  20  21
HETATM   21  C14 UNL     1      -7.115   6.588  18.842  1.00  0.00     0.178 C
BRANCH  21  22
HETATM   22  C15 UNL     1      -5.943   5.875  18.245  1.00  0.00     0.058 C
BRANCH  22  23
HETATM   23  C16 UNL     1      -6.372   4.628  17.489  1.00  0.00     0.224 C
HETATM   24  F3  UNL     1      -6.387   3.507  18.295  1.00  0.00    -0.255 F
ENDBRANCH  22  23
ENDBRANCH  21  22
ENDBRANCH  20  21
ENDBRANCH  16  20
ENDBRANCH  11  13
BRANCH   1  25
HETATM   25  C5  UNL     1      -3.722  11.924  23.387  1.00  0.00     0.273 C
BRANCH  25  26
HETATM   26  O1  UNL     1      -4.687  12.175  22.517  1.00  0.00    -0.351 OA
BRANCH  26  27
HETATM   27  C2  UNL     1      -5.410  13.254  22.324  1.00  0.00     0.053 C
HETATM   28  C1  UNL     1      -5.939  13.317  20.852  1.00  0.00     0.045 C
HETATM   29  C3  UNL     1      -4.560  14.506  22.454  1.00  0.00     0.045 C
HETATM   30  C4  UNL     1      -6.633  13.491  23.163  1.00  0.00     0.045 C
ENDBRANCH  26  27
ENDBRANCH  25  26
BRANCH  25  31
HETATM   31  O2  UNL     1      -4.203  11.481  24.625  1.00  0.00    -0.370 OA
ATOM     32  H2  UNL     1      -4.613  10.625  24.580  1.00  0.00     0.212 HD
ENDBRANCH  25  31
ENDBRANCH   1  25
TORSDOF 9
ENDMDL