MODEL 3
REMARK VINA RESULT: -7.952594045      0.753      1.855
REMARK  9 active torsions:
REMARK  status: ('A' for Active; 'I' for Inactive)
REMARK    1  A    between atoms: N1_1  and  C1_4
REMARK    2  A    between atoms: C2_5  and  C3_6
REMARK    3  A    between atoms: C4_7  and  C5_8
REMARK    4  A    between atoms: C5_8  and  N2_9
REMARK    5  A    between atoms: N2_9  and  S1_11
REMARK    6  A    between atoms: S1_11  and  N3_12
REMARK    7  A    between atoms: C9_22  and  O3_23
REMARK    8  A    between atoms: O3_23  and  C10_24
REMARK    9  A    between atoms: C10_24  and  C11_25
ROOT
HETATM    1  C3  UNL     1      -4.962  10.807  21.051  1.00  0.00     0.064 A
HETATM    2  C4  UNL     1      -5.426  11.710  22.016  1.00  0.00    -0.001 A
HETATM    3  C6  UNL     1      -6.728  12.089  21.954  1.00  0.00     0.021 A
HETATM    4 BR1  UNL     1      -7.457  13.272  23.256  1.00  0.00    -0.050 Br
HETATM    5  C7  UNL     1      -7.542  11.581  20.952  1.00  0.00     0.042 A
HETATM    6  C8  UNL     1      -7.059  10.688  20.007  1.00  0.00     0.047 A
HETATM    7 BR2  UNL     1      -8.324  10.052  18.738  1.00  0.00    -0.048 Br
HETATM    8  C9  UNL     1      -5.752  10.289  20.049  1.00  0.00     0.111 A
ENDROOT
BRANCH   8   9
HETATM    9  O3  UNL     1      -5.238   9.422  19.152  1.00  0.00    -0.319 OA
BRANCH   9  10
HETATM   10  C10 UNL     1      -4.918   8.086  19.230  1.00  0.00     0.154 C
BRANCH  10  11
HETATM   11  C11 UNL     1      -5.584   7.129  18.368  1.00  0.00    -0.008 A
HETATM   12  C12 UNL     1      -6.121   7.558  17.162  1.00  0.00     0.059 A
HETATM   13  C13 UNL     1      -6.778   6.716  16.294  1.00  0.00     0.158 A
HETATM   14  F1  UNL     1      -7.305   7.115  15.118  1.00  0.00    -0.203 F
HETATM   15  C14 UNL     1      -6.890   5.393  16.673  1.00  0.00     0.193 A
HETATM   16  F2  UNL     1      -7.529   4.540  15.842  1.00  0.00    -0.200 F
HETATM   17  C15 UNL     1      -6.357   4.961  17.871  1.00  0.00     0.158 A
HETATM   18  F3  UNL     1      -6.487   3.647  18.209  1.00  0.00    -0.203 F
HETATM   19  C16 UNL     1      -5.699   5.805  18.739  1.00  0.00     0.059 A
ENDBRANCH  10  11
ENDBRANCH   9  10
ENDBRANCH   8   9
BRANCH   1  20
HETATM   20  C2  UNL     1      -3.591  10.379  21.084  1.00  0.00    -0.041 C
HETATM   21  C1  UNL     1      -2.419  10.024  21.132  1.00  0.00     0.009 C
BRANCH  21  22
HETATM   22  N1  UNL     1      -1.075   9.636  21.199  1.00  0.00    -0.359 N
ATOM     23  H12 UNL     1      -2.012   9.248  21.089  1.00  0.00     0.166 HD
ATOM     24  H11 UNL     1      -0.093   9.369  21.250  1.00  0.00     0.166 HD
ENDBRANCH  21  22
ENDBRANCH   1  20
BRANCH   2  25
HETATM   25  C5  UNL     1      -4.437  12.130  23.018  1.00  0.00     0.175 C
BRANCH  25  26
HETATM   26  N2  UNL     1      -4.547  11.535  24.313  1.00  0.00    -0.299 N
ATOM     27  H2  UNL     1      -5.383  11.134  24.738  1.00  0.00     0.174 HD
BRANCH  26  28
HETATM   28  S1  UNL     1      -2.923  11.639  25.030  1.00  0.00     0.313 S
HETATM   29  O1  UNL     1      -1.907  11.418  23.937  1.00  0.00    -0.183 OA
HETATM   30  O2  UNL     1      -2.817  13.012  25.615  1.00  0.00    -0.183 OA
BRANCH  28  31
HETATM   31  N3  UNL     1      -2.726  10.421  26.226  1.00  0.00    -0.312 N
ATOM     32  H32 UNL     1      -3.486   9.841  26.584  1.00  0.00     0.170 HD
ATOM     33  H31 UNL     1      -1.750  10.369  26.517  1.00  0.00     0.170 HD
ENDBRANCH  28  31
ENDBRANCH  26  28
ENDBRANCH  25  26
ENDBRANCH   2  25
TORSDOF 9
ENDMDL