MODEL 1
REMARK VINA RESULT: -8.967908619      0.000      0.000
REMARK  9 active torsions:
REMARK  status: ('A' for Active; 'I' for Inactive)
REMARK    1  A    between atoms: C4_5  and  N2_6
REMARK       I    between atoms: N2_6  and  C5_8
REMARK    2  A    between atoms: C5_8  and  C6_10
REMARK    3  A    between atoms: C6_10  and  N3_11
REMARK    4  A    between atoms: C6_10  and  C10_22
REMARK       I    between atoms: N3_11  and  C7_13
REMARK    5  A    between atoms: C7_13  and  C8_15
REMARK    6  A    between atoms: C8_15  and  C9_18
REMARK    7  A    between atoms: N4_25  and  C13_26
REMARK    8  A    between atoms: C13_26  and  N5_28
REMARK    9  A    between atoms: N5_28  and  C14_30
ROOT
HETATM    1  C6  UNL     1      -3.110  11.890  23.360  1.00  0.00     0.181 C
ENDROOT
BRANCH   1   2
HETATM    2  C5  UNL     1      -3.908  13.020  23.878  1.00  0.00     0.241 C
HETATM    3  N2  UNL     1      -3.731  14.382  23.533  1.00  0.00    -0.355 N
ATOM      4  H2  UNL     1      -2.989  14.624  22.877  1.00  0.00     0.162 HD
HETATM    5  O1  UNL     1      -4.860  12.817  24.724  1.00  0.00    -0.271 OA
BRANCH   3   6
HETATM    6  C4  UNL     1      -4.561  15.457  24.071  1.00  0.00     0.087 C
HETATM    7  C3  UNL     1      -5.639  15.695  23.059  1.00  0.00     0.055 C
HETATM    8  C2  UNL     1      -6.489  16.861  23.416  1.00  0.00     0.274 C
HETATM    9  N1  UNL     1      -5.855  17.844  24.239  1.00  0.00     0.084 N
HETATM   10  C1  UNL     1      -6.214  17.758  25.627  1.00  0.00     0.309 C
HETATM   11  C23 UNL     1      -4.439  17.975  24.006  1.00  0.00     0.274 C
HETATM   12  C22 UNL     1      -3.689  16.691  24.138  1.00  0.00     0.055 C
ENDBRANCH   3   6
ENDBRANCH   1   2
BRANCH   1  13
HETATM   13  N3  UNL     1      -3.075  10.818  24.388  1.00  0.00    -0.342 N
HETATM   14  C7  UNL     1      -2.010  10.677  25.302  1.00  0.00     0.300 C
HETATM   15  O2  UNL     1      -1.062  11.505  25.226  1.00  0.00    -0.266 OA
ATOM     16  H3  UNL     1      -3.851  10.157  24.434  1.00  0.00     0.163 HD
BRANCH  14  17
HETATM   17  C8  UNL     1      -1.962   9.629  26.317  1.00  0.00     0.417 C
HETATM   18  F1  UNL     1      -3.103   8.812  26.242  1.00  0.00    -0.185 F
HETATM   19  F2  UNL     1      -1.911  10.090  27.619  1.00  0.00    -0.185 F
BRANCH  17  20
HETATM   20  C9  UNL     1      -0.801   8.675  26.130  1.00  0.00     0.464 C
HETATM   21  F3  UNL     1       0.251   9.158  26.890  1.00  0.00    -0.165 F
HETATM   22  F4  UNL     1      -1.101   7.420  26.653  1.00  0.00    -0.165 F
HETATM   23  F5  UNL     1      -0.377   8.546  24.846  1.00  0.00    -0.165 F
ENDBRANCH  17  20
ENDBRANCH  14  17
ENDBRANCH   1  13
BRANCH   1  24
HETATM   24  C10 UNL     1      -3.511  11.321  22.063  1.00  0.00     0.021 C
HETATM   25  C11 UNL     1      -3.381  12.183  20.842  1.00  0.00     0.027 C
HETATM   26  C12 UNL     1      -4.068  11.502  19.654  1.00  0.00     0.125 C
HETATM   27  N4  UNL     1      -4.313  10.104  19.857  1.00  0.00    -0.358 N
HETATM   28  C20 UNL     1      -3.443   9.281  20.641  1.00  0.00     0.125 C
HETATM   29  C21 UNL     1      -2.771  10.045  21.764  1.00  0.00     0.027 C
BRANCH  27  30
HETATM   30  C13 UNL     1      -5.445   9.510  19.243  1.00  0.00     0.170 C
HETATM   31  S1  UNL     1      -6.897  10.278  19.494  1.00  0.00    -0.041 SA
BRANCH  30  32
HETATM   32  N5  UNL     1      -5.383   8.335  18.469  1.00  0.00    -0.363 N
ATOM     33  H5  UNL     1      -4.480   7.926  18.230  1.00  0.00     0.162 HD
BRANCH  32  34
HETATM   34  C14 UNL     1      -6.630   7.701  18.007  1.00  0.00     0.083 C
HETATM   35  C15 UNL     1      -6.863   6.527  18.932  1.00  0.00     0.025 C
HETATM   36  C16 UNL     1      -5.883   5.441  18.462  1.00  0.00     0.002 C
HETATM   37  C17 UNL     1      -6.532   4.878  17.215  1.00  0.00     0.000 C
HETATM   38  C18 UNL     1      -6.941   5.921  16.240  1.00  0.00     0.002 C
HETATM   39  C19 UNL     1      -6.553   7.318  16.571  1.00  0.00     0.025 C
ENDBRANCH  32  34
ENDBRANCH  30  32
ENDBRANCH  27  30
ENDBRANCH   1  24
TORSDOF 9
ENDMDL