MODEL 5
REMARK VINA RESULT: -5.435908898      3.616      5.850
REMARK  8 active torsions:
REMARK  status: ('A' for Active; 'I' for Inactive)
REMARK    1  A    between atoms: C2_2  and  C3_3
REMARK    2  A    between atoms: C2_2  and  N1_10
REMARK    3  A    between atoms: C3_3  and  O1_4
REMARK    4  A    between atoms: C3_3  and  C4_6
REMARK    5  A    between atoms: C9_14  and  C10_15
REMARK       I    between atoms: C10_15  and  N2_17
REMARK    6  A    between atoms: N2_17  and  C11_19
REMARK    7  A    between atoms: C11_19  and  C12_20
REMARK    8  A    between atoms: C12_20  and  O3_21
ROOT
HETATM    1  N1  UNL     1      -2.629  11.215  23.268  1.00  0.00    -0.393 N
HETATM    2  C6  UNL     1      -1.702  12.058  22.566  1.00  0.00     0.118 C
HETATM    3  C7  UNL     1      -1.407  11.348  21.233  1.00  0.00     0.022 C
HETATM    4  C8  UNL     1      -1.753   9.936  21.561  1.00  0.00     0.036 C
HETATM    5  C9  UNL     1      -2.990  10.138  22.472  1.00  0.00     0.172 C
ENDROOT
BRANCH   5   6
HETATM    6  C10 UNL     1      -4.093  10.362  21.479  1.00  0.00     0.241 C
HETATM    7  O2  UNL     1      -4.122  11.459  20.948  1.00  0.00    -0.271 OA
HETATM    8  N2  UNL     1      -4.966   9.302  21.266  1.00  0.00    -0.345 N
ATOM      9  H2  UNL     1      -4.733   8.488  21.835  1.00  0.00     0.163 HD
BRANCH   8  10
HETATM   10  C11 UNL     1      -6.102   9.080  20.448  1.00  0.00     0.091 A
HETATM   11  C13 UNL     1      -6.046   7.974  19.412  1.00  0.00     0.012 A
HETATM   12  C14 UNL     1      -7.277   7.077  19.231  1.00  0.00     0.020 C
HETATM   13  C15 UNL     1      -4.756   7.300  19.050  1.00  0.00     0.020 C
HETATM   14  C16 UNL     1      -6.323   9.403  19.043  1.00  0.00     0.113 A
HETATM   15 BR1  UNL     1      -5.085  10.169  17.824  1.00  0.00    -0.069 Br
HETATM   16 BR2  UNL     1      -8.190   9.886  18.605  1.00  0.00    -0.069 Br
BRANCH  10  17
HETATM   17  C12 UNL     1      -7.428   8.888  21.275  1.00  0.00     0.198 C
BRANCH  17  18
HETATM   18  O3  UNL     1      -7.615   9.916  22.154  1.00  0.00    -0.398 OA
ATOM     19  H3  UNL     1      -7.593   9.609  23.052  1.00  0.00     0.209 HD
ENDBRANCH  17  18
ENDBRANCH  10  17
ENDBRANCH   8  10
ENDBRANCH   5   6
BRANCH   1  20
HETATM   20  C2  UNL     1      -3.636  11.919  24.028  1.00  0.00     0.107 C
HETATM   21  C1  UNL     1      -3.419  11.623  25.484  1.00  0.00     0.034 C
BRANCH  20  22
HETATM   22  C3  UNL     1      -3.422  13.400  23.794  1.00  0.00     0.178 C
BRANCH  22  23
HETATM   23  O1  UNL     1      -3.720  13.703  22.431  1.00  0.00    -0.390 OA
ATOM     24  H1  UNL     1      -3.704  14.646  22.313  1.00  0.00     0.210 HD
ENDBRANCH  22  23
BRANCH  22  25
HETATM   25  C4  UNL     1      -4.282  14.334  24.559  1.00  0.00     0.137 C
HETATM   26  C5  UNL     1      -3.846  14.793  25.905  1.00  0.00     0.053 C
HETATM   27 CL1  UNL     1      -4.395  15.854  23.574  1.00  0.00    -0.099 Cl
HETATM   28 CL2  UNL     1      -5.978  13.748  24.642  1.00  0.00    -0.099 Cl
ENDBRANCH  22  25
ENDBRANCH  20  22
ENDBRANCH   1  20
TORSDOF 8
ENDMDL