MODEL 2
REMARK VINA RESULT: -8.164369039      0.049      1.553
REMARK  9 active torsions:
REMARK  status: ('A' for Active; 'I' for Inactive)
REMARK    1  A    between atoms: C5_5  and  C6_6
REMARK    2  A    between atoms: C6_6  and  O1_7
REMARK    3  A    between atoms: C6_6  and  N1_9
REMARK    4  A    between atoms: N1_9  and  C7_11
REMARK    5  A    between atoms: C7_11  and  C8_12
REMARK    6  A    between atoms: C7_11  and  C15_21
REMARK    7  A    between atoms: C8_12  and  C9_13
REMARK    8  A    between atoms: C15_21  and  O2_22
REMARK    9  A    between atoms: C15_21  and  C16_24
ROOT
HETATM    1  C7  UNL     1      -5.291   9.570  18.419  1.00  0.00     0.114 C
ENDROOT
BRANCH   1   2
HETATM    2  N1  UNL     1      -6.501  10.190  18.186  1.00  0.00    -0.389 N
ATOM      3  H1  UNL     1      -6.772  10.267  17.205  1.00  0.00     0.156 HD
BRANCH   2   4
HETATM    4  C6  UNL     1      -7.389  10.717  19.083  1.00  0.00     0.218 C
BRANCH   4   5
HETATM    5  C5  UNL     1      -8.389   9.859  19.775  1.00  0.00     0.037 C
HETATM    6  C2  UNL     1      -7.996   9.556  21.239  1.00  0.00    -0.010 C
HETATM    7  C1  UNL     1      -7.581   8.116  21.473  1.00  0.00     0.010 C
HETATM    8  C3  UNL     1      -9.414   9.865  21.617  1.00  0.00     0.005 C
HETATM    9  C4  UNL     1      -9.531  10.683  20.360  1.00  0.00     0.010 C
ENDBRANCH   4   5
BRANCH   4  10
HETATM   10  O1  UNL     1      -8.178  11.751  18.471  1.00  0.00    -0.377 OA
ATOM     11  H1  UNL     1      -7.923  11.727  17.557  1.00  0.00     0.212 HD
ENDBRANCH   4  10
ENDBRANCH   2   4
ENDBRANCH   1   2
BRANCH   1  12
HETATM   12  C8  UNL     1      -5.123   8.207  18.947  1.00  0.00     0.066 C
BRANCH  12  13
HETATM   13  C9  UNL     1      -5.736   7.111  18.145  1.00  0.00    -0.050 A
HETATM   14  C10 UNL     1      -5.762   5.830  18.590  1.00  0.00     0.049 A
HETATM   15  C11 UNL     1      -6.347   4.805  17.834  1.00  0.00     0.119 A
HETATM   16  F1  UNL     1      -6.369   3.527  18.286  1.00  0.00    -0.206 F
HETATM   17  C12 UNL     1      -6.903   5.117  16.618  1.00  0.00     0.084 A
HETATM   18  C13 UNL     1      -6.878   6.439  16.154  1.00  0.00     0.119 A
HETATM   19  F2  UNL     1      -7.450   6.672  14.936  1.00  0.00    -0.206 F
HETATM   20  C14 UNL     1      -6.307   7.422  16.899  1.00  0.00     0.049 A
ENDBRANCH  12  13
ENDBRANCH   1  12
BRANCH   1  21
HETATM   21  C15 UNL     1      -4.346  10.490  19.227  1.00  0.00     0.170 C
BRANCH  21  22
HETATM   22  O2  UNL     1      -3.537  11.207  18.307  1.00  0.00    -0.391 OA
ATOM     23  H2  UNL     1      -3.138  10.581  17.714  1.00  0.00     0.210 HD
ENDBRANCH  21  22
BRANCH  21  24
HETATM   24  C16 UNL     1      -3.431   9.763  20.126  1.00  0.00     0.165 C
HETATM   25  C17 UNL     1      -3.810  10.019  21.596  1.00  0.00     0.079 C
HETATM   26  C18 UNL     1      -2.860  11.083  22.064  1.00  0.00     0.165 C
HETATM   27 BR1  UNL     1      -1.457  10.327  23.197  1.00  0.00    -0.062 Br
HETATM   28 BR2  UNL     1      -3.752  12.545  22.938  1.00  0.00    -0.062 Br
HETATM   29  C19 UNL     1      -2.157  11.516  20.810  1.00  0.00     0.290 C
HETATM   30  O3  UNL     1      -1.705  12.679  20.539  1.00  0.00    -0.262 OA
HETATM   31  O4  UNL     1      -2.127  10.360  20.047  1.00  0.00    -0.311 OA
ENDBRANCH  21  24
ENDBRANCH   1  21
TORSDOF 9
ENDMDL