MODEL 1
REMARK VINA RESULT: -8.221228757      0.000      0.000
REMARK  8 active torsions:
REMARK  status: ('A' for Active; 'I' for Inactive)
REMARK    1  A    between atoms: C2_2  and  C3_4
REMARK    2  A    between atoms: C3_4  and  N1_5
REMARK    3  A    between atoms: C3_4  and  C14_27
REMARK    4  A    between atoms: C3_4  and  C22_35
REMARK       I    between atoms: N1_5  and  C4_7
REMARK    5  A    between atoms: C4_7  and  C5_9
REMARK       I    between atoms: N3_16  and  C9_17
REMARK    6  A    between atoms: C9_17  and  C10_19
REMARK    7  A    between atoms: C10_19  and  C11_20
REMARK    8  A    between atoms: C11_20  and  N4_23
ROOT
HETATM    1  N1  UNL     1      -5.494  10.171  21.467  1.00  0.00    -0.339 N
ATOM      2  H1  UNL     1      -5.632   9.454  22.179  1.00  0.00     0.163 HD
HETATM    3  C4  UNL     1      -4.289  10.787  21.597  1.00  0.00     0.269 C
HETATM    4  O1  UNL     1      -3.829  11.691  20.894  1.00  0.00    -0.269 OA
ENDROOT
BRANCH   3   5
HETATM    5  C5  UNL     1      -3.340  10.371  22.709  1.00  0.00     0.382 C
HETATM    6  N2  UNL     1      -2.031  10.003  22.112  1.00  0.00    -0.039 N
HETATM    7  C6  UNL     1      -1.178  10.500  23.144  1.00  0.00     0.213 A
ATOM      8  H22 UNL     1      -1.909   9.024  21.856  1.00  0.00     0.280 HD
ATOM      9  H21 UNL     1      -1.851  10.347  21.169  1.00  0.00     0.280 HD
HETATM   10  C7  UNL     1      -0.450  11.681  23.353  1.00  0.00     0.062 A
HETATM   11  C8  UNL     1      -1.779  11.953  23.013  1.00  0.00     0.122 A
HETATM   12  N3  UNL     1      -3.046  11.531  23.542  1.00  0.00    -0.309 N
HETATM   13  C9  UNL     1      -3.811  12.077  24.592  1.00  0.00     0.224 C
HETATM   14  O2  UNL     1      -4.893  11.549  24.908  1.00  0.00    -0.273 OA
BRANCH  13  15
HETATM   15  C10 UNL     1      -3.297  13.283  25.301  1.00  0.00     0.140 C
BRANCH  15  16
HETATM   16  C11 UNL     1      -4.188  14.482  25.173  1.00  0.00     0.124 C
HETATM   17  C12 UNL     1      -4.259  15.060  23.795  1.00  0.00     0.046 C
HETATM   18  C13 UNL     1      -3.603  15.547  26.097  1.00  0.00     0.046 C
BRANCH  16  19
HETATM   19  N4  UNL     1      -5.505  14.162  25.699  1.00  0.00    -0.071 N
ATOM     20  H43 UNL     1      -5.456  13.602  26.550  1.00  0.00     0.275 HD
ATOM     21  H42 UNL     1      -5.975  14.979  26.091  1.00  0.00     0.275 HD
ATOM     22  H41 UNL     1      -6.060  13.710  24.972  1.00  0.00     0.275 HD
ENDBRANCH  16  19
ENDBRANCH  15  16
ENDBRANCH  13  15
ENDBRANCH   3   5
BRANCH   1  23
HETATM   23  C3  UNL     1      -6.645  10.274  20.567  1.00  0.00     0.147 C
BRANCH  23  24
HETATM   24  C2  UNL     1      -6.879  11.628  20.037  1.00  0.00     0.091 C
HETATM   25  C1  UNL     1      -8.275  12.119  19.857  1.00  0.00     0.025 C
HETATM   26 BR1  UNL     1      -6.121  11.858  18.225  1.00  0.00    -0.089 Br
ENDBRANCH  23  24
BRANCH  23  27
HETATM   27  C14 UNL     1      -6.211   9.354  19.422  1.00  0.00     0.024 C
HETATM   28  C15 UNL     1      -7.445   8.611  18.997  1.00  0.00     0.008 C
HETATM   29  C16 UNL     1      -7.319   7.122  19.015  1.00  0.00     0.009 C
HETATM   30  C17 UNL     1      -6.065   6.660  18.296  1.00  0.00    -0.048 C
HETATM   31  C18 UNL     1      -6.067   7.085  16.847  1.00  0.00     0.015 C
HETATM   32  C19 UNL     1      -6.078   5.142  18.375  1.00  0.00     0.015 C
HETATM   33  C20 UNL     1      -4.936   7.170  19.098  1.00  0.00     0.009 C
HETATM   34  C21 UNL     1      -4.962   8.640  19.457  1.00  0.00     0.008 C
ENDBRANCH  23  27
BRANCH  23  35
HETATM   35  C22 UNL     1      -7.766   9.626  21.312  1.00  0.00     0.414 C
HETATM   36  F1  UNL     1      -7.543   8.395  21.834  1.00  0.00    -0.168 F
HETATM   37  F2  UNL     1      -8.969   9.554  20.647  1.00  0.00    -0.168 F
HETATM   38  F3  UNL     1      -8.045  10.446  22.428  1.00  0.00    -0.168 F
ENDBRANCH  23  35
ENDBRANCH   1  23
TORSDOF 8
ENDMDL