MODEL 5
REMARK VINA RESULT: -9.097338051      1.942      3.268
REMARK  9 active torsions:
REMARK  status: ('A' for Active; 'I' for Inactive)
REMARK    1  A    between atoms: C2_2  and  C5_5
REMARK    2  A    between atoms: C5_5  and  N1_6
REMARK       I    between atoms: N1_6  and  C6_8
REMARK    3  A    between atoms: C6_8  and  C7_10
REMARK       I    between atoms: N2_14  and  C10_15
REMARK    4  A    between atoms: C10_15  and  C11_17
REMARK    5  A    between atoms: C11_17  and  C12_18
REMARK    6  A    between atoms: C11_17  and  N3_21
REMARK    7  A    between atoms: C12_18  and  O3_19
REMARK       I    between atoms: N3_21  and  C13_23
REMARK    8  A    between atoms: C13_23  and  C14_25
REMARK    9  A    between atoms: C22_33  and  C23_34
ROOT
HETATM    1  C11 UNL     1      -2.718  12.178  19.157  1.00  0.00     0.200 C
ENDROOT
BRANCH   1   2
HETATM    2  C10 UNL     1      -2.859  12.892  20.438  1.00  0.00     0.247 C
HETATM    3  N2  UNL     1      -4.076  13.514  20.871  1.00  0.00    -0.306 N
HETATM    4  C7  UNL     1      -4.343  14.236  22.118  1.00  0.00     0.262 A
HETATM    5  C9  UNL     1      -5.404  13.718  20.390  1.00  0.00     0.135 A
HETATM    6  F1  UNL     1      -3.599  15.384  22.199  1.00  0.00    -0.208 F
HETATM    7  C8  UNL     1      -5.758  14.425  21.662  1.00  0.00     0.097 A
HETATM    8  O2  UNL     1      -1.825  12.947  21.189  1.00  0.00    -0.271 OA
BRANCH   4   9
HETATM    9  C6  UNL     1      -4.193  13.341  23.303  1.00  0.00     0.279 C
HETATM   10  N1  UNL     1      -2.926  13.110  23.898  1.00  0.00    -0.356 N
ATOM     11  H1  UNL     1      -2.092  13.560  23.523  1.00  0.00     0.162 HD
HETATM   12  O1  UNL     1      -5.237  12.794  23.753  1.00  0.00    -0.268 OA
BRANCH  10  13
HETATM   13  C5  UNL     1      -2.830  12.233  25.040  1.00  0.00     0.131 C
BRANCH  13  14
HETATM   14  C2  UNL     1      -2.095  10.963  24.750  1.00  0.00    -0.035 C
HETATM   15  C1  UNL     1      -0.620  11.181  24.560  1.00  0.00     0.016 C
HETATM   16  C3  UNL     1      -2.277  10.016  25.902  1.00  0.00     0.016 C
HETATM   17  C4  UNL     1      -2.659  10.345  23.484  1.00  0.00     0.016 C
ENDBRANCH  13  14
ENDBRANCH  10  13
ENDBRANCH   4   9
ENDBRANCH   1   2
BRANCH   1  18
HETATM   18  C12 UNL     1      -2.532  13.132  17.990  1.00  0.00     0.199 C
BRANCH  18  19
HETATM   19  O3  UNL     1      -1.510  14.023  18.398  1.00  0.00    -0.398 OA
ATOM     20  H3  UNL     1      -1.900  14.888  18.354  1.00  0.00     0.209 HD
ENDBRANCH  18  19
ENDBRANCH   1  18
BRANCH   1  21
HETATM   21  N3  UNL     1      -3.968  11.451  18.915  1.00  0.00    -0.345 N
HETATM   22  C13 UNL     1      -4.130  10.133  19.400  1.00  0.00     0.227 C
HETATM   23  O4  UNL     1      -3.202   9.572  20.040  1.00  0.00    -0.273 OA
ATOM     24  H3  UNL     1      -4.724  11.899  18.396  1.00  0.00     0.163 HD
BRANCH  22  25
HETATM   25  C14 UNL     1      -5.403   9.420  19.151  1.00  0.00     0.043 C
HETATM   26  C15 UNL     1      -6.256   9.512  20.374  1.00  0.00     0.024 C
HETATM   27  C16 UNL     1      -7.565   8.772  20.139  1.00  0.00    -0.012 C
HETATM   28  C17 UNL     1      -8.285   9.398  18.990  1.00  0.00     0.014 C
HETATM   29  C24 UNL     1      -7.209   7.329  19.868  1.00  0.00     0.023 C
HETATM   30  C18 UNL     1      -7.406   9.256  17.763  1.00  0.00    -0.042 C
HETATM   31  C19 UNL     1      -8.156   9.840  16.563  1.00  0.00     0.015 C
HETATM   32  C20 UNL     1      -6.153  10.048  17.980  1.00  0.00     0.028 C
HETATM   33  C21 UNL     1      -7.121   7.808  17.428  1.00  0.00     0.027 C
HETATM   34  C22 UNL     1      -6.385   7.216  18.609  1.00  0.00     0.060 C
HETATM   35  C25 UNL     1      -5.097   8.009  18.773  1.00  0.00     0.037 C
BRANCH  34  36
HETATM   36  C23 UNL     1      -6.001   5.776  18.381  1.00  0.00     0.395 C
HETATM   37  F2  UNL     1      -5.925   5.471  17.039  1.00  0.00    -0.170 F
HETATM   38  F3  UNL     1      -6.911   4.933  18.964  1.00  0.00    -0.170 F
HETATM   39  F4  UNL     1      -4.710   5.594  18.882  1.00  0.00    -0.170 F
ENDBRANCH  34  36
ENDBRANCH  22  25
ENDBRANCH   1  21
TORSDOF 9
ENDMDL