MODEL 1
REMARK VINA RESULT: -5.017988124      0.000      0.000
REMARK  1 active torsions:
REMARK  status: ('A' for Active; 'I' for Inactive)
REMARK    1  A    between atoms: C1_2  and  C2_4
ROOT
HETATM    1  C2  UNL     1      50.280 161.146  32.337  1.00  0.00     0.003 C
HETATM    2  C3  UNL     1      50.809 160.426  31.235  1.00  0.00    -0.015 C
HETATM    3  C4  UNL     1      50.623 160.840  29.767  1.00  0.00     0.028 C
HETATM    4  C5  UNL     1      49.213 160.627  29.569  1.00  0.00     0.004 C
HETATM    5  C6  UNL     1      48.270 160.792  28.505  1.00  0.00     0.000 C
HETATM    6  C7  UNL     1      46.928 160.437  29.195  1.00  0.00     0.000 C
HETATM    7  C8  UNL     1      46.777 160.859  30.626  1.00  0.00     0.000 C
HETATM    8  C9  UNL     1      47.015 159.863  31.688  1.00  0.00     0.000 C
HETATM    9  C10 UNL     1      48.020 160.017  32.770  1.00  0.00     0.005 C
HETATM   10  C11 UNL     1      48.882 161.222  32.795  1.00  0.00     0.043 C
ENDROOT
BRANCH   1  11
HETATM   11  C1  UNL     1      50.802 162.570  32.395  1.00  0.00     0.260 C
HETATM   12  N1  UNL     1      52.112 162.873  31.902  1.00  0.00    -0.058 NA
HETATM   13  O1  UNL     1      50.153 163.517  32.853  1.00  0.00    -0.271 OA
ENDBRANCH   1  11
TORSDOF 1
ENDMDL