MODEL 5
REMARK VINA RESULT: -4.070626915      2.086      3.109
REMARK  1 active torsions:
REMARK  status: ('A' for Active; 'I' for Inactive)
REMARK    1  A    between atoms: C1_2  and  C2_4
ROOT
HETATM    1  C2  UNL     1      48.519 160.923  31.410  1.00  0.00     0.035 C
HETATM    2  C3  UNL     1      49.191 161.981  32.236  1.00  0.00     0.018 C
HETATM    3  C4  UNL     1      50.500 161.399  32.734  1.00  0.00     0.001 C
HETATM    4  C5  UNL     1      51.500 161.403  31.594  1.00  0.00     0.000 C
HETATM    5  C6  UNL     1      50.775 161.140  30.325  1.00  0.00     0.006 C
HETATM    6  C7  UNL     1      49.522 160.338  30.464  1.00  0.00     0.002 C
HETATM    7  C8  UNL     1      48.875 160.284  29.095  1.00  0.00     0.006 C
HETATM    8  C9  UNL     1      47.457 160.739  29.249  1.00  0.00     0.002 C
HETATM    9  C10 UNL     1      47.400 161.492  30.558  1.00  0.00     0.018 C
ENDROOT
BRANCH   1  10
HETATM   10  C1  UNL     1      47.917 159.932  32.323  1.00  0.00     0.205 C
HETATM   11  O1  UNL     1      48.569 159.133  32.953  1.00  0.00    -0.284 OA
HETATM   12  S1  UNL     1      46.149 159.904  32.513  1.00  0.00    -0.011 SA
ENDBRANCH   1  10
TORSDOF 1
ENDMDL