MODEL 4
REMARK VINA RESULT: -4.036352288      8.929     11.050
REMARK  2 active torsions:
REMARK  status: ('A' for Active; 'I' for Inactive)
REMARK    1  A    between atoms: C2_2  and  C4_4
REMARK    2  A    between atoms: C9_9  and  N1_10
ROOT
HETATM    1  C4  UNL     1      59.618 161.006  37.851  1.00  0.00     0.051 C
HETATM    2  C5  UNL     1      58.288 160.711  37.246  1.00  0.00     0.016 C
HETATM    3  C6  UNL     1      57.480 161.944  36.920  1.00  0.00     0.013 C
HETATM    4  C7  UNL     1      57.937 162.629  35.660  1.00  0.00    -0.000 A
HETATM    5  C8  UNL     1      57.214 162.211  34.413  1.00  0.00     0.018 C
HETATM    6  C9  UNL     1      58.319 164.063  35.734  1.00  0.00     0.207 A
HETATM    7  C10 UNL     1      59.358 162.982  35.683  1.00  0.00     0.089 A
HETATM    8  S1  UNL     1      60.152 162.639  37.299  1.00  0.00    -0.156 SA
ENDROOT
BRANCH   6   9
HETATM    9  N1  UNL     1      58.203 164.939  34.609  1.00  0.00    -0.073 N
ATOM     10  H13 UNL     1      57.227 164.937  34.313  1.00  0.00     0.274 HD
ATOM     11  H12 UNL     1      58.321 165.894  34.947  1.00  0.00     0.274 HD
ATOM     12  H11 UNL     1      58.780 164.830  33.776  1.00  0.00     0.274 HD
ENDBRANCH   6   9
BRANCH   1  13
HETATM   13  C2  UNL     1      59.619 160.874  39.357  1.00  0.00    -0.009 C
HETATM   14  C1  UNL     1      60.896 160.236  39.863  1.00  0.00     0.011 C
HETATM   15  C3  UNL     1      58.479 160.013  39.822  1.00  0.00     0.011 C
ENDBRANCH   1  13
TORSDOF 2
ENDMDL