MODEL 2
REMARK VINA RESULT: -3.807327430      1.920      3.656
REMARK  2 active torsions:
REMARK  status: ('A' for Active; 'I' for Inactive)
REMARK    1  A    between atoms: C5_5  and  C6_6
REMARK    2  A    between atoms: C6_6  and  N1_7
ROOT
HETATM    1  C1  UNL     1      52.185 162.639  30.635  1.00  0.00     0.021 C
HETATM    2  C2  UNL     1      51.896 161.181  30.896  1.00  0.00     0.043 C
HETATM    3  C3  UNL     1      51.390 160.943  32.300  1.00  0.00     0.015 C
HETATM    4  C4  UNL     1      50.121 161.675  32.586  1.00  0.00     0.013 C
HETATM    5  C5  UNL     1      48.923 161.205  31.860  1.00  0.00    -0.004 C
HETATM    6  C7  UNL     1      48.436 159.852  32.349  1.00  0.00     0.012 C
HETATM    7  C8  UNL     1      47.412 159.453  31.314  1.00  0.00     0.002 C
HETATM    8  C9  UNL     1      48.026 159.936  30.032  1.00  0.00     0.016 C
HETATM    9  C10 UNL     1      49.019 161.031  30.408  1.00  0.00     0.058 C
HETATM   10  S1  UNL     1      50.634 160.533  29.792  1.00  0.00    -0.159 SA
ENDROOT
BRANCH   5  11
HETATM   11  C6  UNL     1      47.792 162.194  32.164  1.00  0.00     0.240 C
BRANCH  11  12
HETATM   12  N1  UNL     1      47.965 162.804  33.461  1.00  0.00    -0.079 N
ATOM     13  H13 UNL     1      47.130 162.699  34.039  1.00  0.00     0.274 HD
ATOM     14  H12 UNL     1      48.622 162.279  34.038  1.00  0.00     0.274 HD
ATOM     15  H11 UNL     1      48.241 163.782  33.376  1.00  0.00     0.274 HD
ENDBRANCH  11  12
ENDBRANCH   5  11
TORSDOF 2
ENDMDL