MODEL 4
REMARK VINA RESULT: -3.982030569     11.859     13.759
REMARK  1 active torsions:
REMARK  status: ('A' for Active; 'I' for Inactive)
REMARK    1  A    between atoms: N1_2  and  C2_5
ROOT
HETATM    1  C2  UNL     1      58.595 161.263  37.268  1.00  0.00     0.186 C
HETATM    2  C3  UNL     1      58.322 161.884  38.592  1.00  0.00     0.033 C
HETATM    3  C4  UNL     1      59.018 163.156  38.886  1.00  0.00     0.002 C
HETATM    4  C5  UNL     1      60.480 163.184  38.662  1.00  0.00     0.000 C
HETATM    5  C6  UNL     1      60.895 164.502  37.991  1.00  0.00     0.001 C
HETATM    6  C7  UNL     1      60.717 164.404  36.476  1.00  0.00     0.010 C
HETATM    7  C8  UNL     1      59.589 165.220  35.964  1.00  0.00     0.073 C
HETATM    8  S1  UNL     1      58.258 164.338  35.206  1.00  0.00    -0.169 SA
HETATM    9  C9  UNL     1      58.454 162.562  35.110  1.00  0.00     0.076 C
HETATM   10  C10 UNL     1      57.681 161.820  36.182  1.00  0.00     0.043 C
ENDROOT
BRANCH   1  11
HETATM   11  N1  UNL     1      58.270 159.831  37.418  1.00  0.00    -0.075 N
HETATM   12  C1  UNL     1      58.680 159.365  38.727  1.00  0.00     0.267 C
ATOM     13  H12 UNL     1      58.672 159.267  36.668  1.00  0.00     0.277 HD
ATOM     14  H11 UNL     1      57.285 159.641  37.235  1.00  0.00     0.277 HD
ENDBRANCH   1  11
TORSDOF 1
ENDMDL