MODEL 2
REMARK VINA RESULT: -4.908868288      0.195      1.182
REMARK  4 active torsions:
REMARK  status: ('A' for Active; 'I' for Inactive)
REMARK    1  A    between atoms: C2_2  and  N1_5
REMARK    2  A    between atoms: N1_5  and  C5_7
REMARK    3  A    between atoms: C5_7  and  O1_10
REMARK    4  A    between atoms: O1_10  and  C8_11
ROOT
HETATM    1  C5  UNL     1      49.109 161.111  32.071  1.00  0.00     0.124 C
HETATM    2  C6  UNL     1      48.584 159.840  32.778  1.00  0.00     0.070 C
HETATM    3  C7  UNL     1      48.140 162.137  32.812  1.00  0.00     0.070 C
ENDROOT
BRANCH   1   4
HETATM    4  N1  UNL     1      50.355 161.561  32.502  1.00  0.00    -0.385 N
ATOM      5  H1  UNL     1      50.419 161.956  33.441  1.00  0.00     0.157 HD
BRANCH   4   6
HETATM    6  C2  UNL     1      51.516 161.509  31.741  1.00  0.00     0.017 C
HETATM    7  C1  UNL     1      51.531 160.860  30.410  1.00  0.00     0.037 C
HETATM    8  C3  UNL     1      52.750 161.028  32.536  1.00  0.00     0.037 C
HETATM    9  C4  UNL     1      51.893 162.992  31.462  1.00  0.00     0.037 C
ENDBRANCH   4   6
ENDBRANCH   1   4
BRANCH   1  10
HETATM   10  O1  UNL     1      48.844 161.020  30.806  1.00  0.00    -0.352 OA
BRANCH  10  11
HETATM   11  C8  UNL     1      47.885 160.465  30.111  1.00  0.00     0.053 C
HETATM   12  C9  UNL     1      47.896 158.919  30.036  1.00  0.00     0.045 C
HETATM   13  C10 UNL     1      46.456 160.921  30.261  1.00  0.00     0.045 C
HETATM   14  C11 UNL     1      48.204 160.846  28.636  1.00  0.00     0.045 C
ENDBRANCH  10  11
ENDBRANCH   1  10
TORSDOF 4
ENDMDL