MODEL 1
REMARK VINA RESULT: -4.721899131      0.000      0.000
REMARK  2 active torsions:
REMARK  status: ('A' for Active; 'I' for Inactive)
REMARK    1  A    between atoms: C2_2  and  C5_5
REMARK    2  A    between atoms: C5_5  and  N1_6
ROOT
HETATM    1  C5  UNL     1      50.019 161.518  32.142  1.00  0.00     0.326 C
HETATM    2  C6  UNL     1      49.532 160.241  32.764  1.00  0.00     0.109 C
HETATM    3  C7  UNL     1      48.182 160.891  32.411  1.00  0.00     0.230 C
HETATM    4  C8  UNL     1      47.108 159.927  32.017  1.00  0.00     0.036 C
HETATM    5  C9  UNL     1      46.477 160.485  30.751  1.00  0.00     0.004 C
HETATM    6  C10 UNL     1      47.501 160.220  29.666  1.00  0.00     0.030 C
HETATM    7  C11 UNL     1      48.890 160.625  30.129  1.00  0.00     0.276 C
HETATM    8  N2  UNL     1      48.899 161.447  31.270  1.00  0.00     0.131 N
ENDROOT
BRANCH   1   9
HETATM    9  C2  UNL     1      51.401 161.603  31.694  1.00  0.00     0.011 C
HETATM   10  C1  UNL     1      51.792 160.964  30.413  1.00  0.00     0.019 C
HETATM   11  C3  UNL     1      51.953 163.036  31.652  1.00  0.00     0.019 C
HETATM   12  C4  UNL     1      52.269 160.930  32.781  1.00  0.00     0.019 C
ENDBRANCH   1   9
BRANCH   1  13
HETATM   13  N1  UNL     1      49.717 162.617  33.101  1.00  0.00    -0.041 N
ATOM     14  H13 UNL     1      50.318 162.580  33.924  1.00  0.00     0.277 HD
ATOM     15  H12 UNL     1      50.008 163.526  32.742  1.00  0.00     0.277 HD
ATOM     16  H11 UNL     1      48.728 162.606  33.353  1.00  0.00     0.277 HD
ENDBRANCH   1  13
TORSDOF 2
ENDMDL