MODEL 3
REMARK VINA RESULT: -4.749968397      0.044      1.290
REMARK  4 active torsions:
REMARK  status: ('A' for Active; 'I' for Inactive)
REMARK    1  A    between atoms: N1_2  and  C3_4
REMARK    2  A    between atoms: C3_4  and  S1_8
REMARK    3  A    between atoms: S1_8  and  C4_9
REMARK    4  A    between atoms: C4_9  and  C5_10
ROOT
HETATM    1  C3  UNL     1      52.088 161.317  31.218  1.00  0.00     0.135 C
HETATM    2  N2  UNL     1      52.293 160.470  30.266  1.00  0.00    -0.380 N
ATOM      3  H21 UNL     1      51.579 159.794  29.991  1.00  0.00     0.158 HD
ATOM      4  H22 UNL     1      53.198 160.500  29.796  1.00  0.00     0.158 HD
ENDROOT
BRANCH   1   5
HETATM    5  N1  UNL     1      53.076 162.252  31.599  1.00  0.00    -0.371 N
HETATM    6  C1  UNL     1      52.717 163.459  32.326  1.00  0.00     0.151 C
HETATM    7  C2  UNL     1      54.482 162.069  31.295  1.00  0.00     0.151 C
ENDBRANCH   1   5
BRANCH   1   8
HETATM    8  S1  UNL     1      50.494 161.264  32.046  1.00  0.00    -0.094 SA
BRANCH   8   9
HETATM    9  C4  UNL     1      49.181 160.790  30.913  1.00  0.00     0.090 C
BRANCH   9  10
HETATM   10  C5  UNL     1      47.873 160.846  31.649  1.00  0.00    -0.043 C
HETATM   11  C6  UNL     1      47.763 159.649  32.555  1.00  0.00     0.015 C
HETATM   12  C7  UNL     1      46.770 160.854  30.597  1.00  0.00     0.015 C
HETATM   13  C8  UNL     1      47.791 162.107  32.482  1.00  0.00     0.015 C
ENDBRANCH   9  10
ENDBRANCH   8   9
ENDBRANCH   1   8
TORSDOF 4
ENDMDL