MODEL 3
REMARK VINA RESULT: -6.343004562      1.077      1.077
REMARK  3 active torsions:
REMARK  status: ('A' for Active; 'I' for Inactive)
REMARK    1  A    between atoms: S1_2  and  N1_3
REMARK    2  A    between atoms: S1_2  and  C2_7
REMARK    3  A    between atoms: N1_3  and  O1_5
ROOT
HETATM    1  C2  UNL     1      50.217 161.469  31.069  1.00  0.00     0.058 C
HETATM    2  C3  UNL     1      49.825 161.114  32.446  1.00  0.00     0.016 C
HETATM    3  C4  UNL     1      48.544 160.335  32.563  1.00  0.00     0.001 C
HETATM    4  C5  UNL     1      47.442 160.948  31.706  1.00  0.00     0.000 C
HETATM    5  C6  UNL     1      46.902 159.961  30.730  1.00  0.00     0.000 C
HETATM    6  C7  UNL     1      47.575 159.892  29.425  1.00  0.00     0.000 C
HETATM    7  C8  UNL     1      48.730 160.817  29.224  1.00  0.00     0.001 C
HETATM    8  C9  UNL     1      49.951 160.445  30.026  1.00  0.00     0.016 C
ENDROOT
BRANCH   1   9
HETATM    9  S1  UNL     1      51.996 161.966  31.059  1.00  0.00    -0.105 SA
HETATM   10  C1  UNL     1      52.597 163.235  32.259  1.00  0.00     0.104 C
BRANCH   9  11
HETATM   11  N1  UNL     1      53.121 160.876  30.599  1.00  0.00    -0.253 N
ATOM     12  H1  UNL     1      52.849 159.943  30.288  1.00  0.00     0.201 HD
BRANCH  11  13
HETATM   13  O1  UNL     1      54.424 161.242  30.640  1.00  0.00    -0.284 OA
ATOM     14  H1  UNL     1      54.643 162.146  30.450  1.00  0.00     0.245 HD
ENDBRANCH  11  13
ENDBRANCH   9  11
ENDBRANCH   1   9
TORSDOF 3
ENDMDL