MODEL 5
REMARK VINA RESULT: -1.901988675      1.169      1.503
REMARK  4 active torsions:
REMARK  status: ('A' for Active; 'I' for Inactive)
REMARK    1  A    between atoms: N1_1  and  C1_4
REMARK    2  A    between atoms: C4_9  and  C5_10
REMARK    3  A    between atoms: C8_13  and  C9_14
REMARK    4  A    between atoms: C12_19  and  N4_20
ROOT
HETATM    1  C5  UNL     1     -23.864  48.346  14.427  1.00  0.00     0.007 A
HETATM    2  C6  UNL     1     -25.234  48.403  14.544  1.00  0.00     0.017 A
HETATM    3  C7  UNL     1     -25.843  48.563  15.794  1.00  0.00     0.033 A
HETATM    4  C8  UNL     1     -25.078  48.664  16.929  1.00  0.00     0.059 A
HETATM    5  N6  UNL     1     -23.744  48.605  16.800  1.00  0.00    -0.363 N
ATOM      6  H6  UNL     1     -23.166  48.678  17.637  1.00  0.00     0.165 HD
HETATM    7  C13 UNL     1     -23.132  48.450  15.588  1.00  0.00     0.102 A
ENDROOT
BRANCH   1   8
HETATM    8  C4  UNL     1     -23.203  48.177  13.109  1.00  0.00     0.060 A
HETATM    9  C3  UNL     1     -22.200  47.258  12.930  1.00  0.00     0.118 A
HETATM   10  N2  UNL     1     -21.572  47.077  11.733  1.00  0.00    -0.370 N
HETATM   11  C2  UNL     1     -21.970  47.844  10.704  1.00  0.00     0.136 A
ATOM     12  H2  UNL     1     -20.829  46.387  11.624  1.00  0.00     0.164 HD
HETATM   13  C1  UNL     1     -22.973  48.772  10.859  1.00  0.00     0.115 A
HETATM   14  N7  UNL     1     -23.580  48.930  12.056  1.00  0.00    -0.340 N
ATOM     15  H7  UNL     1     -24.323  49.620  12.163  1.00  0.00     0.167 HD
BRANCH  13  16
HETATM   16  N1  UNL     1     -23.318  49.484   9.834  1.00  0.00    -0.384 N
ATOM     17  H12 UNL     1     -23.610  49.045   8.961  1.00  0.00     0.157 HD
ATOM     18  H11 UNL     1     -23.291  50.500   9.917  1.00  0.00     0.157 HD
ENDBRANCH  13  16
ENDBRANCH   1   8
BRANCH   4  19
HETATM   19  C9  UNL     1     -25.642  48.832  18.276  1.00  0.00     0.077 A
HETATM   20  C10 UNL     1     -25.286  47.961  19.279  1.00  0.00     0.050 A
HETATM   21  C11 UNL     1     -25.850  48.168  20.533  1.00  0.00     0.108 A
HETATM   22  N3  UNL     1     -26.702  49.182  20.725  1.00  0.00    -0.202 N
HETATM   23  C12 UNL     1     -27.044  50.026  19.744  1.00  0.00     0.676 A
ATOM     24  H3  UNL     1     -27.104  49.317  21.653  1.00  0.00     0.183 HD
HETATM   25  N5  UNL     1     -26.508  49.838  18.530  1.00  0.00    -0.190 N
ATOM     26  H5  UNL     1     -26.760  50.475  17.773  1.00  0.00     0.184 HD
BRANCH  23  27
HETATM   27  N4  UNL     1     -27.882  51.011  19.960  1.00  0.00    -0.234 N
ATOM     28  H42 UNL     1     -28.528  51.314  19.232  1.00  0.00     0.174 HD
ATOM     29  H41 UNL     1     -27.907  51.494  20.859  1.00  0.00     0.174 HD
ENDBRANCH  23  27
ENDBRANCH   4  19
TORSDOF 4
ENDMDL