MODEL 5
REMARK VINA RESULT: -6.037539720      2.364      5.445
REMARK  4 active torsions:
REMARK  status: ('A' for Active; 'I' for Inactive)
REMARK    1  A    between atoms: N1_1  and  C1_4
REMARK    2  A    between atoms: C3_8  and  C4_9
REMARK    3  A    between atoms: C4_9  and  C5_10
REMARK    4  A    between atoms: C4_9  and  C9_18
ROOT
HETATM    1  C1  UNL     1     -26.259  48.953  18.500  1.00  0.00     0.677 A
HETATM    2  N2  UNL     1     -27.135  48.261  17.754  1.00  0.00    -0.201 N
ATOM      3  H2  UNL     1     -28.115  48.176  18.020  1.00  0.00     0.183 HD
HETATM    4  C2  UNL     1     -26.654  47.688  16.640  1.00  0.00     0.118 A
HETATM    5  C3  UNL     1     -25.341  47.768  16.224  1.00  0.00     0.017 A
HETATM    6  C13 UNL     1     -24.472  48.482  17.010  1.00  0.00     0.123 A
HETATM    7  N5  UNL     1     -23.249  48.652  16.811  1.00  0.00    -0.385 N
ATOM      8  H51 UNL     1     -22.603  49.183  17.395  1.00  0.00     0.157 HD
ATOM      9  H52 UNL     1     -22.880  48.217  15.965  1.00  0.00     0.157 HD
HETATM   10  N6  UNL     1     -24.967  49.065  18.146  1.00  0.00    -0.177 N
ATOM     11  H6  UNL     1     -24.336  49.602  18.742  1.00  0.00     0.185 HD
ENDROOT
BRANCH   5  12
HETATM   12  C4  UNL     1     -24.881  47.129  14.976  1.00  0.00     0.116 C
BRANCH  12  13
HETATM   13  C5  UNL     1     -23.413  46.956  14.896  1.00  0.00    -0.012 A
HETATM   14  C6  UNL     1     -22.639  47.744  14.080  1.00  0.00     0.098 A
HETATM   15  N3  UNL     1     -21.313  47.640  13.955  1.00  0.00    -0.362 N
HETATM   16  C7  UNL     1     -20.684  46.701  14.676  1.00  0.00     0.180 A
ATOM     17  H3  UNL     1     -20.795  48.256  13.329  1.00  0.00     0.166 HD
HETATM   18  N4  UNL     1     -21.407  45.913  15.484  1.00  0.00    -0.362 N
HETATM   19  C8  UNL     1     -22.737  45.990  15.634  1.00  0.00     0.098 A
ATOM     20  H4  UNL     1     -20.910  45.205  16.024  1.00  0.00     0.166 HD
ENDBRANCH  12  13
BRANCH  12  21
HETATM   21  C9  UNL     1     -25.308  47.875  13.752  1.00  0.00     0.065 A
HETATM   22  C10 UNL     1     -24.995  47.523  12.445  1.00  0.00     0.035 A
HETATM   23  C11 UNL     1     -25.553  48.432  11.588  1.00  0.00     0.027 A
HETATM   24  C12 UNL     1     -26.200  49.332  12.406  1.00  0.00     0.142 A
HETATM   25  O1  UNL     1     -26.028  48.964  13.652  1.00  0.00    -0.326 OA
ENDBRANCH  12  21
ENDBRANCH   5  12
BRANCH   1  26
HETATM   26  N1  UNL     1     -26.680  49.516  19.574  1.00  0.00    -0.234 N
ATOM     27  H12 UNL     1     -26.588  49.038  20.470  1.00  0.00     0.174 HD
ATOM     28  H11 UNL     1     -27.102  50.443  19.504  1.00  0.00     0.174 HD
ENDBRANCH   1  26
TORSDOF 4
ENDMDL