MODEL 5
REMARK VINA RESULT: -5.771916609      1.827      3.411
REMARK  3 active torsions:
REMARK  status: ('A' for Active; 'I' for Inactive)
REMARK    1  A    between atoms: N1_1  and  C1_4
REMARK    2  A    between atoms: C5_10  and  N3_11
REMARK    3  A    between atoms: C9_17  and  C10_18
ROOT
HETATM    1  C1  UNL     1     -26.791  48.199  17.477  1.00  0.00     0.676 A
HETATM    2  N2  UNL     1     -27.374  48.794  16.420  1.00  0.00    -0.190 N
ATOM      3  H2  UNL     1     -28.286  49.250  16.426  1.00  0.00     0.184 HD
HETATM    4  C2  UNL     1     -26.560  48.693  15.353  1.00  0.00     0.077 A
HETATM    5  C3  UNL     1     -26.687  49.132  14.044  1.00  0.00     0.034 A
HETATM    6  C4  UNL     1     -25.660  48.867  13.171  1.00  0.00     0.033 A
HETATM    7  C5  UNL     1     -24.513  48.185  13.540  1.00  0.00     0.056 A
HETATM    8  C9  UNL     1     -24.385  47.748  14.843  1.00  0.00     0.066 A
HETATM    9  C12 UNL     1     -25.426  48.012  15.741  1.00  0.00     0.092 A
HETATM   10  N8  UNL     1     -25.598  47.725  17.044  1.00  0.00    -0.189 N
ATOM     11  H8  UNL     1     -24.927  47.223  17.624  1.00  0.00     0.184 HD
ENDROOT
BRANCH   8  12
HETATM   12  C10 UNL     1     -23.206  47.020  15.315  1.00  0.00     0.136 A
HETATM   13  N5  UNL     1     -22.845  45.747  15.097  1.00  0.00    -0.336 N
HETATM   14  C11 UNL     1     -21.666  45.561  15.753  1.00  0.00     0.199 A
ATOM     15  H5  UNL     1     -23.353  45.054  14.548  1.00  0.00     0.168 HD
HETATM   16  N6  UNL     1     -21.305  46.697  16.364  1.00  0.00    -0.295 N
HETATM   17  N7  UNL     1     -22.238  47.573  16.095  1.00  0.00    -0.284 N
ATOM     18  H6  UNL     1     -20.468  46.850  16.926  1.00  0.00     0.187 HD
ATOM     19  H7  UNL     1     -22.240  48.538  16.425  1.00  0.00     0.188 HD
ENDBRANCH   8  12
BRANCH   7  20
HETATM   20  N3  UNL     1     -23.467  47.925  12.620  1.00  0.00    -0.316 N
HETATM   21  C6  UNL     1     -23.507  47.212  11.478  1.00  0.00     0.115 A
HETATM   22  C7  UNL     1     -22.254  47.222  10.898  1.00  0.00     0.106 A
HETATM   23  N4  UNL     1     -21.458  47.958  11.716  1.00  0.00    -0.360 N
HETATM   24  C8  UNL     1     -22.211  48.376  12.755  1.00  0.00     0.188 A
ATOM     25  H4  UNL     1     -20.467  48.158  11.571  1.00  0.00     0.166 HD
ENDBRANCH   7  20
BRANCH   1  26
HETATM   26  N1  UNL     1     -27.233  48.075  18.685  1.00  0.00    -0.234 N
ATOM     27  H12 UNL     1     -28.213  48.167  18.954  1.00  0.00     0.174 HD
ATOM     28  H11 UNL     1     -26.715  47.873  19.540  1.00  0.00     0.174 HD
ENDBRANCH   1  26
TORSDOF 3
ENDMDL