MODEL 3
REMARK VINA RESULT: -7.115138968      0.890      1.367
REMARK  3 active torsions:
REMARK  status: ('A' for Active; 'I' for Inactive)
REMARK    1  A    between atoms: O1_3  and  C2_4
REMARK    2  A    between atoms: C5_7  and  N2_8
REMARK    3  A    between atoms: N2_8  and  C6_10
ROOT
HETATM    1  N1  UNL     1     -27.247  51.406  19.893  1.00  0.00    -0.164 NA
HETATM    2  C1  UNL     1     -27.235  50.305  19.487  1.00  0.00     0.234 C
HETATM    3  O1  UNL     1     -27.213  49.034  18.996  1.00  0.00    -0.241 OA
ENDROOT
BRANCH   3   4
HETATM    4  C2  UNL     1     -26.207  48.565  18.165  1.00  0.00     0.089 A
HETATM    5  C3  UNL     1     -24.883  48.836  18.426  1.00  0.00     0.040 A
HETATM    6  C4  UNL     1     -23.900  48.352  17.573  1.00  0.00     0.033 A
HETATM    7  C5  UNL     1     -24.186  47.596  16.454  1.00  0.00     0.049 A
HETATM    8  C11 UNL     1     -25.516  47.329  16.203  1.00  0.00     0.033 A
HETATM    9  C12 UNL     1     -26.509  47.812  17.055  1.00  0.00     0.040 A
BRANCH   7  10
HETATM   10  N2  UNL     1     -23.176  47.104  15.588  1.00  0.00    -0.192 N
ATOM     11  H2  UNL     1     -22.609  46.305  15.871  1.00  0.00     0.184 HD
BRANCH  10  12
HETATM   12  C6  UNL     1     -22.972  47.663  14.444  1.00  0.00     0.685 A
HETATM   13  N3  UNL     1     -21.787  47.710  13.824  1.00  0.00    -0.174 N
HETATM   14  C7  UNL     1     -21.937  48.370  12.650  1.00  0.00     0.153 A
ATOM     15  H3  UNL     1     -20.915  47.315  14.176  1.00  0.00     0.186 HD
HETATM   16  N4  UNL     1     -21.116  48.711  11.639  1.00  0.00    -0.336 N
HETATM   17  C10 UNL     1     -23.258  48.731  12.566  1.00  0.00     0.137 A
HETATM   18  C8  UNL     1     -21.572  49.396  10.557  1.00  0.00     0.183 A
ATOM     19  H4  UNL     1     -20.131  48.450  11.686  1.00  0.00     0.168 HD
HETATM   20  N5  UNL     1     -22.861  49.760  10.451  1.00  0.00    -0.337 N
HETATM   21  C9  UNL     1     -23.699  49.432  11.444  1.00  0.00     0.131 A
ATOM     22  H5  UNL     1     -23.194  50.275   9.635  1.00  0.00     0.168 HD
HETATM   23  N6  UNL     1     -24.944  49.762  11.383  1.00  0.00    -0.383 N
ATOM     24  H62 UNL     1     -25.266  50.275  10.563  1.00  0.00     0.157 HD
ATOM     25  H61 UNL     1     -25.581  49.512  12.140  1.00  0.00     0.157 HD
HETATM   26  N7  UNL     1     -23.882  48.298  13.660  1.00  0.00    -0.184 N
ATOM     27  H7  UNL     1     -24.873  48.422  13.872  1.00  0.00     0.184 HD
ENDBRANCH  10  12
ENDBRANCH   7  10
ENDBRANCH   3   4
TORSDOF 3
ENDMDL