MODEL 3
REMARK VINA RESULT: -8.509134245      1.094      2.463
REMARK  4 active torsions:
REMARK  status: ('A' for Active; 'I' for Inactive)
REMARK    1  A    between atoms: C5_6  and  C6_7
REMARK    2  A    between atoms: C6_7  and  N2_8
REMARK    3  A    between atoms: C9_15  and  N5_16
REMARK    4  A    between atoms: C10_21  and  N7_22
ROOT
HETATM    1  N1  UNL     1     -27.221  50.515  20.188  1.00  0.00    -0.191 NA
HETATM    2  C1  UNL     1     -26.783  49.901  19.311  1.00  0.00     0.099 C
HETATM    3  C2  UNL     1     -26.218  49.149  18.204  1.00  0.00     0.044 A
HETATM    4  C3  UNL     1     -24.885  48.799  18.188  1.00  0.00     0.023 A
HETATM    5  C4  UNL     1     -24.360  48.088  17.138  1.00  0.00     0.010 A
HETATM    6  C5  UNL     1     -25.131  47.680  16.033  1.00  0.00    -0.038 A
HETATM    7  C12 UNL     1     -26.450  48.047  16.087  1.00  0.00     0.010 A
HETATM    8  C13 UNL     1     -26.994  48.761  17.135  1.00  0.00     0.023 A
ENDROOT
BRANCH   6   9
HETATM    9  C6  UNL     1     -24.486  46.897  14.945  1.00  0.00     0.188 C
BRANCH   9  10
HETATM   10  N2  UNL     1     -24.410  47.688  13.770  1.00  0.00    -0.282 N
HETATM   11  N3  UNL     1     -25.552  48.124  13.194  1.00  0.00    -0.307 N
HETATM   12  C7  UNL     1     -25.312  48.803  12.087  1.00  0.00     0.140 A
ATOM     13  H3  UNL     1     -26.485  47.950  13.568  1.00  0.00     0.186 HD
HETATM   14  C8  UNL     1     -23.939  48.821  11.919  1.00  0.00     0.098 A
HETATM   15  N4  UNL     1     -23.120  49.363  10.989  1.00  0.00    -0.188 N
HETATM   16  C11 UNL     1     -23.433  48.121  12.983  1.00  0.00     0.123 A
HETATM   17  C9  UNL     1     -21.798  49.195  11.137  1.00  0.00     0.678 A
ATOM     18  H4  UNL     1     -23.496  49.883  10.197  1.00  0.00     0.184 HD
HETATM   19  N6  UNL     1     -21.255  48.522  12.160  1.00  0.00    -0.175 N
HETATM   20  C10 UNL     1     -22.078  47.986  13.080  1.00  0.00     0.145 A
ATOM     21  H6  UNL     1     -20.243  48.419  12.239  1.00  0.00     0.186 HD
BRANCH  17  22
HETATM   22  N5  UNL     1     -21.008  49.698  10.271  1.00  0.00    -0.234 N
ATOM     23  H52 UNL     1     -20.540  50.573  10.508  1.00  0.00     0.174 HD
ATOM     24  H51 UNL     1     -20.876  49.215   9.382  1.00  0.00     0.174 HD
ENDBRANCH  17  22
BRANCH  20  25
HETATM   25  N7  UNL     1     -21.590  47.362  14.075  1.00  0.00    -0.383 N
ATOM     26  H72 UNL     1     -21.151  47.894  14.826  1.00  0.00     0.157 HD
ATOM     27  H71 UNL     1     -21.626  46.342  14.100  1.00  0.00     0.157 HD
ENDBRANCH  20  25
ENDBRANCH   9  10
ENDBRANCH   6   9
TORSDOF 4
ENDMDL