MODEL 5
REMARK VINA RESULT: -6.668434433      1.476      1.948
REMARK  4 active torsions:
REMARK  status: ('A' for Active; 'I' for Inactive)
REMARK    1  A    between atoms: N1_1  and  C1_4
REMARK    2  A    between atoms: C5_12  and  N4_13
REMARK    3  A    between atoms: N6_20  and  C7_21
REMARK    4  A    between atoms: C7_21  and  C8_22
ROOT
HETATM    1  C1  UNL     1     -21.013  47.747  12.625  1.00  0.00     0.677 A
HETATM    2  N2  UNL     1     -22.209  47.548  13.206  1.00  0.00    -0.176 N
ATOM      3  H2  UNL     1     -22.245  46.983  14.055  1.00  0.00     0.186 HD
HETATM    4  C2  UNL     1     -23.356  48.051  12.730  1.00  0.00     0.141 A
HETATM    5  C3  UNL     1     -23.251  48.806  11.581  1.00  0.00     0.068 A
HETATM    6  C4  UNL     1     -22.038  49.027  10.963  1.00  0.00     0.125 A
HETATM    7  N3  UNL     1     -20.923  48.494  11.490  1.00  0.00    -0.201 N
ATOM      8  H3  UNL     1     -20.018  48.648  11.045  1.00  0.00     0.183 HD
HETATM    9  C5  UNL     1     -24.378  49.358  11.020  1.00  0.00     0.116 A
HETATM   10  N5  UNL     1     -25.535  49.109  11.659  1.00  0.00    -0.319 N
ATOM     11  H5  UNL     1     -26.396  49.500  11.275  1.00  0.00     0.170 HD
HETATM   12  C6  UNL     1     -25.614  48.356  12.797  1.00  0.00     0.181 A
HETATM   13  S1  UNL     1     -27.132  48.095  13.402  1.00  0.00    -0.040 SA
HETATM   14  N6  UNL     1     -24.535  47.807  13.368  1.00  0.00    -0.304 N
ENDROOT
BRANCH  14  15
HETATM   15  C7  UNL     1     -24.640  46.986  14.539  1.00  0.00     0.171 C
BRANCH  15  16
HETATM   16  C8  UNL     1     -24.792  47.650  15.826  1.00  0.00    -0.040 A
HETATM   17  C9  UNL     1     -23.774  48.107  16.604  1.00  0.00     0.009 A
HETATM   18  C10 UNL     1     -24.000  48.759  17.830  1.00  0.00     0.001 A
HETATM   19  C11 UNL     1     -25.277  48.953  18.276  1.00  0.00     0.000 A
HETATM   20  C12 UNL     1     -26.325  48.511  17.525  1.00  0.00     0.001 A
HETATM   21  C13 UNL     1     -26.082  47.882  16.342  1.00  0.00     0.009 A
ENDBRANCH  15  16
ENDBRANCH  14  15
BRANCH   1  22
HETATM   22  N1  UNL     1     -19.935  47.239  13.123  1.00  0.00    -0.234 N
ATOM     23  H12 UNL     1     -19.819  47.230  14.137  1.00  0.00     0.174 HD
ATOM     24  H11 UNL     1     -19.207  46.853  12.522  1.00  0.00     0.174 HD
ENDBRANCH   1  22
BRANCH   9  25
HETATM   25  N4  UNL     1     -24.371  50.076   9.951  1.00  0.00    -0.385 N
ATOM     26  H42 UNL     1     -24.118  49.658   9.056  1.00  0.00     0.157 HD
ATOM     27  H41 UNL     1     -24.609  51.067   9.929  1.00  0.00     0.157 HD
ENDBRANCH   9  25
TORSDOF 4
ENDMDL