MODEL 5
REMARK VINA RESULT: -5.807473666      1.209      3.128
REMARK  3 active torsions:
REMARK  status: ('A' for Active; 'I' for Inactive)
REMARK    1  A    between atoms: N1_1  and  C1_4
REMARK    2  A    between atoms: C4_16  and  N6_17
REMARK    3  A    between atoms: C5_19  and  C6_20
ROOT
HETATM    1  C1  UNL     1     -21.947  47.311  13.931  1.00  0.00     0.677 A
HETATM    2  N2  UNL     1     -21.598  47.335  12.631  1.00  0.00    -0.179 N
ATOM      3  H2  UNL     1     -20.657  47.044  12.364  1.00  0.00     0.185 HD
HETATM    4  C2  UNL     1     -22.459  47.735  11.672  1.00  0.00     0.147 A
HETATM    5  S1  UNL     1     -22.017  47.759  10.086  1.00  0.00    -0.057 SA
HETATM    6  C3  UNL     1     -23.716  48.121  12.079  1.00  0.00     0.119 A
HETATM    7  N3  UNL     1     -24.607  48.527  11.161  1.00  0.00    -0.281 N
ATOM      8  H3  UNL     1     -24.350  48.549  10.174  1.00  0.00     0.188 HD
HETATM    9  N4  UNL     1     -25.810  48.896  11.536  1.00  0.00    -0.241 N
ATOM     10  H4  UNL     1     -26.475  49.202  10.824  1.00  0.00     0.208 HD
HETATM   11  N5  UNL     1     -26.182  48.886  12.772  1.00  0.00    -0.269 N
ATOM     12  H5  UNL     1     -27.133  49.187  12.987  1.00  0.00     0.190 HD
HETATM   13  C4  UNL     1     -25.372  48.494  13.828  1.00  0.00     0.151 A
HETATM   14  C10 UNL     1     -24.100  48.104  13.420  1.00  0.00     0.125 A
HETATM   15  N7  UNL     1     -23.185  47.694  14.305  1.00  0.00    -0.186 N
ATOM     16  H7  UNL     1     -23.432  47.669  15.294  1.00  0.00     0.184 HD
ENDROOT
BRANCH  13  17
HETATM   17  N6  UNL     1     -25.829  48.525  14.968  1.00  0.00    -0.347 N
HETATM   18  C5  UNL     1     -26.941  48.404  15.736  1.00  0.00     0.127 C
ATOM     19  H6  UNL     1     -25.051  48.722  15.597  1.00  0.00     0.167 HD
BRANCH  18  20
HETATM   20  C6  UNL     1     -26.585  48.640  17.197  1.00  0.00     0.090 A
HETATM   21  C7  UNL     1     -25.369  48.445  17.794  1.00  0.00     0.040 A
HETATM   22  C8  UNL     1     -25.481  48.781  19.128  1.00  0.00     0.027 A
HETATM   23  C9  UNL     1     -26.797  49.175  19.276  1.00  0.00     0.142 A
HETATM   24  O1  UNL     1     -27.405  49.076  18.119  1.00  0.00    -0.321 OA
ENDBRANCH  18  20
ENDBRANCH  13  17
BRANCH   1  25
HETATM   25  N1  UNL     1     -21.111  46.923  14.863  1.00  0.00    -0.234 N
ATOM     26  H12 UNL     1     -21.385  47.050  15.837  1.00  0.00     0.174 HD
ATOM     27  H11 UNL     1     -20.209  46.504  14.635  1.00  0.00     0.174 HD
ENDBRANCH   1  25
TORSDOF 3
ENDMDL