MODEL 3
REMARK VINA RESULT: -7.033559845      0.759      1.422
REMARK  4 active torsions:
REMARK  status: ('A' for Active; 'I' for Inactive)
REMARK    1  A    between atoms: N1_1  and  C1_4
REMARK    2  A    between atoms: C3_13  and  N6_14
REMARK    3  A    between atoms: N6_14  and  C4_15
REMARK    4  A    between atoms: C4_15  and  C5_16
ROOT
HETATM    1  C1  UNL     1     -26.598  48.656  16.691  1.00  0.00     0.162 A
HETATM    2  N2  UNL     1     -27.040  49.217  17.853  1.00  0.00    -0.312 N
ATOM      3  H2  UNL     1     -27.920  49.733  17.852  1.00  0.00     0.170 HD
HETATM    4  C2  UNL     1     -26.351  49.110  18.992  1.00  0.00     0.208 A
HETATM    5  N3  UNL     1     -26.833  49.638  20.216  1.00  0.00    -0.062 NA
HETATM    6  N4  UNL     1     -25.196  48.432  18.968  1.00  0.00    -0.271 N
ATOM      7  H4  UNL     1     -24.660  48.348  19.832  1.00  0.00     0.189 HD
HETATM    8  N5  UNL     1     -24.727  47.874  17.884  1.00  0.00    -0.269 N
ATOM      9  H5  UNL     1     -23.844  47.366  17.926  1.00  0.00     0.190 HD
HETATM   10  C3  UNL     1     -25.409  47.959  16.671  1.00  0.00     0.232 A
ENDROOT
BRANCH  10  11
HETATM   11  N6  UNL     1     -25.025  47.436  15.698  1.00  0.00    -0.422 NA
BRANCH  11  12
HETATM   12  C4  UNL     1     -24.405  47.016  14.591  1.00  0.00     0.260 C
BRANCH  12  13
HETATM   13  C5  UNL     1     -24.596  47.918  13.370  1.00  0.00    -0.017 A
HETATM   14  C6  UNL     1     -25.799  48.404  12.967  1.00  0.00     0.011 A
HETATM   15  C7  UNL     1     -25.869  49.088  11.755  1.00  0.00     0.002 A
HETATM   16  C8  UNL     1     -24.849  49.344  10.963  1.00  0.00     0.012 A
HETATM   17  C9  UNL     1     -23.626  48.833  11.415  1.00  0.00    -0.025 A
HETATM   18  C10 UNL     1     -22.461  49.166  10.693  1.00  0.00     0.012 A
HETATM   19  C14 UNL     1     -23.432  48.133  12.532  1.00  0.00    -0.017 A
HETATM   20  C11 UNL     1     -21.231  48.771  11.129  1.00  0.00     0.001 A
HETATM   21  C12 UNL     1     -21.040  48.021  12.293  1.00  0.00     0.001 A
HETATM   22  C13 UNL     1     -22.200  47.740  12.955  1.00  0.00     0.013 A
ENDBRANCH  12  13
ENDBRANCH  11  12
ENDBRANCH  10  11
BRANCH   1  23
HETATM   23  N1  UNL     1     -27.333  48.888  15.558  1.00  0.00    -0.381 N
ATOM     24  H12 UNL     1     -27.201  49.718  14.980  1.00  0.00     0.157 HD
ATOM     25  H11 UNL     1     -28.076  48.225  15.335  1.00  0.00     0.157 HD
ENDBRANCH   1  23
TORSDOF 4
ENDMDL