MODEL 4
REMARK VINA RESULT: -6.744405138      1.550      6.666
REMARK  3 active torsions:
REMARK  status: ('A' for Active; 'I' for Inactive)
REMARK    1  A    between atoms: N1_1  and  C1_4
REMARK    2  A    between atoms: C7_18  and  C8_19
REMARK    3  A    between atoms: C8_19  and  C9_20
ROOT
HETATM    1  C1  UNL     1     -25.277  48.266  13.070  1.00  0.00     0.130 A
HETATM    2  N2  UNL     1     -24.225  48.160  12.231  1.00  0.00    -0.325 N
ATOM      3  H2  UNL     1     -24.358  48.267  11.225  1.00  0.00     0.169 HD
HETATM    4  C2  UNL     1     -23.001  47.912  12.729  1.00  0.00     0.137 A
HETATM    5  N3  UNL     1     -21.803  47.763  12.103  1.00  0.00    -0.337 N
ATOM      6  H3  UNL     1     -21.617  47.816  11.101  1.00  0.00     0.168 HD
HETATM    7  C3  UNL     1     -20.915  47.532  13.086  1.00  0.00     0.182 A
HETATM    8  N4  UNL     1     -21.529  47.534  14.283  1.00  0.00    -0.347 N
ATOM      9  H4  UNL     1     -21.077  47.383  15.185  1.00  0.00     0.167 HD
HETATM   10  C4  UNL     1     -22.845  47.772  14.089  1.00  0.00     0.107 A
HETATM   11  C5  UNL     1     -23.897  47.874  14.976  1.00  0.00     0.093 A
HETATM   12  N5  UNL     1     -23.743  47.736  16.313  1.00  0.00    -0.360 N
ATOM     13  H5  UNL     1     -22.815  47.549  16.694  1.00  0.00     0.165 HD
HETATM   14  C6  UNL     1     -24.797  47.842  17.154  1.00  0.00     0.113 A
HETATM   15  C7  UNL     1     -26.046  48.097  16.630  1.00  0.00     0.029 A
HETATM   16  N8  UNL     1     -26.181  48.231  15.287  1.00  0.00    -0.353 N
ATOM     17  H8  UNL     1     -27.108  48.419  14.906  1.00  0.00     0.166 HD
HETATM   18  C12 UNL     1     -25.143  48.128  14.438  1.00  0.00     0.106 A
ENDROOT
BRANCH  15  19
HETATM   19  C8  UNL     1     -27.248  48.225  17.496  1.00  0.00     0.100 C
BRANCH  19  20
HETATM   20  C9  UNL     1     -26.932  48.991  18.727  1.00  0.00    -0.019 A
HETATM   21  C10 UNL     1     -26.308  48.522  19.851  1.00  0.00     0.116 A
HETATM   22  N6  UNL     1     -26.223  49.541  20.719  1.00  0.00    -0.312 N
HETATM   23  N7  UNL     1     -26.768  50.608  20.168  1.00  0.00    -0.312 N
ATOM     24  H6  UNL     1     -25.806  49.499  21.649  1.00  0.00     0.186 HD
HETATM   25  C11 UNL     1     -27.220  50.316  18.938  1.00  0.00     0.116 A
ATOM     26  H7  UNL     1     -26.836  51.524  20.612  1.00  0.00     0.186 HD
ENDBRANCH  19  20
ENDBRANCH  15  19
BRANCH   1  27
HETATM   27  N1  UNL     1     -26.449  48.502  12.609  1.00  0.00    -0.384 N
ATOM     28  H12 UNL     1     -26.950  49.307  12.983  1.00  0.00     0.157 HD
ATOM     29  H11 UNL     1     -26.850  47.896  11.894  1.00  0.00     0.157 HD
ENDBRANCH   1  27
TORSDOF 3
ENDMDL