MODEL 4
REMARK VINA RESULT: -5.642217539      1.427      2.983
REMARK  3 active torsions:
REMARK  status: ('A' for Active; 'I' for Inactive)
REMARK    1  A    between atoms: C2_2  and  C3_3
REMARK    2  A    between atoms: N1_7  and  C7_8
REMARK    3  A    between atoms: C11_18  and  N5_19
ROOT
HETATM    1  C3  UNL     1     -23.482  47.866  15.615  1.00  0.00    -0.025 A
HETATM    2  C4  UNL     1     -24.779  48.169  16.082  1.00  0.00     0.041 A
HETATM    3  C5  UNL     1     -25.267  48.231  17.367  1.00  0.00     0.039 A
HETATM    4  C6  UNL     1     -24.600  48.000  18.666  1.00  0.00     0.071 C
HETATM    5  N1  UNL     1     -26.594  48.552  17.246  1.00  0.00    -0.295 N
HETATM    6  N2  UNL     1     -26.899  48.677  15.981  1.00  0.00    -0.282 N
ATOM      7  H2  UNL     1     -27.823  48.914  15.619  1.00  0.00     0.189 HD
HETATM    8  C9  UNL     1     -25.797  48.445  15.224  1.00  0.00     0.134 A
HETATM    9  N3  UNL     1     -25.608  48.439  13.910  1.00  0.00    -0.326 N
ATOM     10  H3  UNL     1     -26.381  48.649  13.280  1.00  0.00     0.169 HD
HETATM   11  C10 UNL     1     -24.403  48.158  13.422  1.00  0.00     0.137 A
HETATM   12  N4  UNL     1     -24.211  48.155  12.069  1.00  0.00    -0.176 N
ATOM     13  H4  UNL     1     -25.008  48.369  11.469  1.00  0.00     0.186 HD
HETATM   14  C11 UNL     1     -23.035  47.888  11.484  1.00  0.00     0.679 A
HETATM   15  N6  UNL     1     -21.982  47.607  12.259  1.00  0.00    -0.176 N
ATOM     16  H6  UNL     1     -21.080  47.403  11.828  1.00  0.00     0.186 HD
HETATM   17  C12 UNL     1     -22.097  47.591  13.634  1.00  0.00     0.129 A
HETATM   18  N7  UNL     1     -21.070  47.328  14.333  1.00  0.00    -0.384 N
ATOM     19  H71 UNL     1     -21.155  47.317  15.349  1.00  0.00     0.157 HD
ATOM     20  H72 UNL     1     -20.170  47.125  13.899  1.00  0.00     0.157 HD
HETATM   21  C13 UNL     1     -23.305  47.865  14.216  1.00  0.00     0.060 A
ENDROOT
BRANCH  14  22
HETATM   22  N5  UNL     1     -22.902  47.898  10.198  1.00  0.00    -0.234 N
ATOM     23  H52 UNL     1     -21.972  47.827   9.784  1.00  0.00     0.174 HD
ATOM     24  H51 UNL     1     -23.709  47.975   9.579  1.00  0.00     0.174 HD
ENDBRANCH  14  22
BRANCH   1  25
HETATM   25  C2  UNL     1     -22.336  47.620  16.455  1.00  0.00     0.036 C
HETATM   26  C1  UNL     1     -21.884  48.786  17.337  1.00  0.00     0.010 C
ENDBRANCH   1  25
BRANCH   5  27
HETATM   27  C7  UNL     1     -27.500  48.708  18.386  1.00  0.00     0.144 C
HETATM   28  C8  UNL     1     -26.979  49.871  19.196  1.00  0.00     0.028 C
ENDBRANCH   5  27
TORSDOF 3
ENDMDL