MODEL 5
REMARK VINA RESULT: -7.398921443      1.805      1.860
REMARK  5 active torsions:
REMARK  status: ('A' for Active; 'I' for Inactive)
REMARK    1  A    between atoms: C7_7  and  C8_8
REMARK    2  A    between atoms: N2_12  and  N3_14
REMARK    3  A    between atoms: C10_19  and  C11_20
REMARK    4  A    between atoms: C11_20  and  S1_21
REMARK    5  A    between atoms: S1_21  and  C12_22
ROOT
HETATM    1  C8  UNL     1       2.492  14.356  24.026  1.00  0.00     0.087 A
HETATM    2  N1  UNL     1       3.255  14.576  22.951  1.00  0.00    -0.187 N
ATOM      3  H1  UNL     1       3.384  13.902  22.197  1.00  0.00     0.184 HD
HETATM    4  C9  UNL     1       3.819  15.763  22.977  1.00  0.00     0.697 A
HETATM    5  N2  UNL     1       4.445  16.413  21.985  1.00  0.00    -0.139 N
ATOM      6  H2  UNL     1       4.856  17.341  22.093  1.00  0.00     0.205 HD
HETATM    7  N4  UNL     1       3.391  16.354  24.148  1.00  0.00    -0.188 N
ATOM      8  H4  UNL     1       3.653  17.283  24.476  1.00  0.00     0.184 HD
HETATM    9  C10 UNL     1       2.556  15.486  24.795  1.00  0.00     0.084 A
ENDROOT
BRANCH   9  10
HETATM   10  C11 UNL     1       1.522  15.917  25.782  1.00  0.00     0.085 C
BRANCH  10  11
HETATM   11  S1  UNL     1       1.756  16.919  27.174  1.00  0.00    -0.062 SA
BRANCH  11  12
HETATM   12  C12 UNL     1       1.078  18.537  26.774  1.00  0.00     0.164 A
HETATM   13  N5  UNL     1       1.633  19.527  25.994  1.00  0.00    -0.331 N
HETATM   14  C13 UNL     1       0.667  20.535  26.002  1.00  0.00     0.199 A
ATOM     15  H5  UNL     1       2.537  19.525  25.521  1.00  0.00     0.168 HD
HETATM   16  N6  UNL     1      -0.377  20.186  26.699  1.00  0.00    -0.294 N
HETATM   17  N7  UNL     1      -0.124  18.965  27.181  1.00  0.00    -0.279 N
ATOM     18  H6  UNL     1      -1.222  20.738  26.848  1.00  0.00     0.187 HD
ATOM     19  H7  UNL     1      -0.758  18.432  27.777  1.00  0.00     0.189 HD
ENDBRANCH  11  12
ENDBRANCH  10  11
ENDBRANCH   9  10
BRANCH   1  20
HETATM   20  C7  UNL     1       1.859  13.067  24.225  1.00  0.00    -0.001 A
HETATM   21  C2  UNL     1       1.272  12.336  23.189  1.00  0.00    -0.049 A
HETATM   22  C1  UNL     1       1.340  12.816  21.774  1.00  0.00     0.049 C
HETATM   23  C3  UNL     1       0.610  11.138  23.431  1.00  0.00     0.007 A
HETATM   24  C4  UNL     1       0.504  10.608  24.682  1.00  0.00     0.001 A
HETATM   25  C5  UNL     1       1.072  11.296  25.712  1.00  0.00     0.001 A
HETATM   26  C6  UNL     1       1.736  12.509  25.500  1.00  0.00     0.014 A
ENDBRANCH   1  20
BRANCH   5  27
HETATM   27  N3  UNL     1       4.479  15.669  20.746  1.00  0.00    -0.331 N
ATOM     28  H32 UNL     1       3.807  14.932  20.531  1.00  0.00     0.177 HD
ATOM     29  H31 UNL     1       5.234  15.957  20.124  1.00  0.00     0.177 HD
ENDBRANCH   5  27
TORSDOF 5
ENDMDL