MODEL 2
REMARK VINA RESULT: -6.554543892      1.431      3.187
REMARK  6 active torsions:
REMARK  status: ('A' for Active; 'I' for Inactive)
REMARK    1  A    between atoms: C2_2  and  C3_3
REMARK    2  A    between atoms: C2_2  and  N2_8
REMARK    3  A    between atoms: C3_3  and  N1_4
REMARK    4  A    between atoms: N2_8  and  C4_10
REMARK    5  A    between atoms: C7_17  and  N5_18
REMARK    6  A    between atoms: N7_24  and  C11_26
ROOT
HETATM    1  C4  UNL     1       2.273  13.489  22.201  1.00  0.00     0.133 A
HETATM    2  N3  UNL     1       2.686  13.613  20.896  1.00  0.00    -0.337 N
ATOM      3  H3  UNL     1       2.332  12.940  20.216  1.00  0.00     0.168 HD
HETATM    4  C5  UNL     1       3.510  14.550  20.470  1.00  0.00     0.182 A
HETATM    5  N4  UNL     1       4.011  15.466  21.324  1.00  0.00    -0.360 N
ATOM      6  H4  UNL     1       4.650  16.191  20.997  1.00  0.00     0.166 HD
HETATM    7  C6  UNL     1       3.651  15.399  22.601  1.00  0.00     0.124 A
HETATM    8  C7  UNL     1       2.773  14.411  23.076  1.00  0.00     0.117 A
ENDROOT
BRANCH   8   9
HETATM    9  N5  UNL     1       2.444  14.422  24.474  1.00  0.00    -0.235 N
HETATM   10  N6  UNL     1       2.610  13.424  25.322  1.00  0.00    -0.303 N
HETATM   11  C8  UNL     1       2.175  13.788  26.548  1.00  0.00     0.111 A
ATOM     12  H6  UNL     1       3.007  12.515  25.087  1.00  0.00     0.186 HD
HETATM   13  C9  UNL     1       1.710  15.079  26.479  1.00  0.00     0.069 A
HETATM   14  C10 UNL     1       1.893  15.457  25.147  1.00  0.00     0.129 A
HETATM   15  N7  UNL     1       1.590  16.601  24.642  1.00  0.00    -0.341 N
ATOM     16  H7  UNL     1       1.763  16.785  23.654  1.00  0.00     0.167 HD
BRANCH  15  17
HETATM   17  C11 UNL     1       1.014  17.611  25.464  1.00  0.00     0.033 A
HETATM   18  C12 UNL     1       0.607  18.806  24.896  1.00  0.00     0.029 A
HETATM   19  C13 UNL     1       0.037  19.816  25.677  1.00  0.00     0.002 A
HETATM   20  C14 UNL     1      -0.134  19.652  27.031  1.00  0.00     0.000 A
HETATM   21  C15 UNL     1       0.277  18.456  27.583  1.00  0.00     0.002 A
HETATM   22  C16 UNL     1       0.840  17.452  26.823  1.00  0.00     0.029 A
ENDBRANCH  15  17
ENDBRANCH   8   9
BRANCH   1  23
HETATM   23  N2  UNL     1       1.515  12.594  22.483  1.00  0.00    -0.368 N
ATOM     24  H2  UNL     1       0.702  13.090  22.848  1.00  0.00     0.161 HD
BRANCH  23  25
HETATM   25  C2  UNL     1       1.148  11.297  22.580  1.00  0.00     0.104 C
HETATM   26  C1  UNL     1       2.244  10.392  21.984  1.00  0.00     0.034 C
BRANCH  25  27
HETATM   27  C3  UNL     1       0.854  10.762  23.973  1.00  0.00     0.254 C
BRANCH  27  28
HETATM   28  N1  UNL     1      -0.070  11.555  24.704  1.00  0.00    -0.077 N
ATOM     29  H13 UNL     1       0.420  12.189  25.335  1.00  0.00     0.274 HD
ATOM     30  H12 UNL     1      -0.521  12.237  24.094  1.00  0.00     0.274 HD
ATOM     31  H11 UNL     1      -0.766  11.008  25.210  1.00  0.00     0.274 HD
ENDBRANCH  27  28
ENDBRANCH  25  27
ENDBRANCH  23  25
ENDBRANCH   1  23
TORSDOF 6
ENDMDL