MODEL 5
REMARK VINA RESULT: -7.252091677      0.944      1.117
REMARK  7 active torsions:
REMARK  status: ('A' for Active; 'I' for Inactive)
REMARK    1  A    between atoms: C2_2  and  O1_3
REMARK    2  A    between atoms: O1_3  and  C3_4
REMARK    3  A    between atoms: C8_9  and  C9_10
REMARK    4  A    between atoms: C9_10  and  N1_11
REMARK    5  A    between atoms: N1_11  and  N2_13
REMARK    6  A    between atoms: N2_13  and  C10_15
REMARK    7  A    between atoms: C13_24  and  N6_25
ROOT
HETATM    1  C10 UNL     1       1.991  12.748  24.759  1.00  0.00     0.152 A
HETATM    2  N3  UNL     1       1.213  12.037  25.637  1.00  0.00    -0.336 N
ATOM      3  H3  UNL     1       1.203  12.290  26.626  1.00  0.00     0.168 HD
HETATM    4  C11 UNL     1       0.469  11.012  25.205  1.00  0.00     0.183 A
HETATM    5  N4  UNL     1       0.460  10.655  23.917  1.00  0.00    -0.336 N
ATOM      6  H4  UNL     1      -0.118   9.870  23.620  1.00  0.00     0.168 HD
HETATM    7  C12 UNL     1       1.188  11.304  23.017  1.00  0.00     0.153 A
HETATM    8  N5  UNL     1       1.391  11.194  21.691  1.00  0.00    -0.174 N
ATOM      9  H5  UNL     1       0.944  10.491  21.102  1.00  0.00     0.186 HD
HETATM   10  C13 UNL     1       2.245  12.113  21.239  1.00  0.00     0.678 A
HETATM   11  N7  UNL     1       2.600  12.837  22.321  1.00  0.00    -0.184 N
ATOM     12  H7  UNL     1       3.249  13.624  22.306  1.00  0.00     0.184 HD
HETATM   13  C14 UNL     1       1.973  12.372  23.435  1.00  0.00     0.139 A
ENDROOT
BRANCH   1  14
HETATM   14  N2  UNL     1       2.698  13.722  25.170  1.00  0.00    -0.284 N
ATOM     15  H2  UNL     1       3.154  13.500  26.056  1.00  0.00     0.188 HD
BRANCH  14  16
HETATM   16  N1  UNL     1       3.000  14.919  24.773  1.00  0.00    -0.309 N
ATOM     17  H1  UNL     1       3.055  14.926  23.755  1.00  0.00     0.186 HD
BRANCH  16  18
HETATM   18  C9  UNL     1       3.246  16.067  25.198  1.00  0.00     0.121 C
BRANCH  18  19
HETATM   19  C8  UNL     1       2.235  17.005  25.630  1.00  0.00     0.014 A
HETATM   20  C3  UNL     1       1.655  17.833  24.665  1.00  0.00     0.080 A
HETATM   21  C4  UNL     1       0.688  18.747  25.026  1.00  0.00     0.037 A
HETATM   22  C5  UNL     1       0.267  18.874  26.329  1.00  0.00     0.003 A
HETATM   23  C6  UNL     1       0.815  18.081  27.292  1.00  0.00     0.001 A
HETATM   24  C7  UNL     1       1.797  17.152  26.929  1.00  0.00     0.015 A
BRANCH  20  25
HETATM   25  O1  UNL     1       2.076  17.706  23.360  1.00  0.00    -0.351 OA
BRANCH  25  26
HETATM   26  C2  UNL     1       1.294  16.956  22.463  1.00  0.00     0.171 C
HETATM   27  C1  UNL     1       0.374  17.826  21.635  1.00  0.00     0.034 C
ENDBRANCH  25  26
ENDBRANCH  20  25
ENDBRANCH  18  19
ENDBRANCH  16  18
ENDBRANCH  14  16
ENDBRANCH   1  14
BRANCH  10  28
HETATM   28  N6  UNL     1       2.651  12.287  20.047  1.00  0.00    -0.234 N
ATOM     29  H62 UNL     1       3.623  12.341  19.738  1.00  0.00     0.174 HD
ATOM     30  H61 UNL     1       2.092  12.401  19.201  1.00  0.00     0.174 HD
ENDBRANCH  10  28
TORSDOF 7
ENDMDL