MODEL 4
REMARK VINA RESULT: -5.581266256      2.473      7.073
REMARK  5 active torsions:
REMARK  status: ('A' for Active; 'I' for Inactive)
REMARK    1  A    between atoms: C2_2  and  C3_3
REMARK    2  A    between atoms: C4_4  and  C5_5
REMARK    3  A    between atoms: C5_5  and  N1_6
REMARK    4  A    between atoms: N1_6  and  C6_8
REMARK    5  A    between atoms: N5_19  and  C10_20
ROOT
HETATM    1  C6  UNL     1       2.348  13.675  24.637  1.00  0.00     0.681 A
HETATM    2  N2  UNL     1       2.868  13.335  23.442  1.00  0.00    -0.175 N
ATOM      3  H2  UNL     1       3.225  12.395  23.272  1.00  0.00     0.186 HD
HETATM    4  C7  UNL     1       2.903  14.277  22.477  1.00  0.00     0.145 A
HETATM    5  N3  UNL     1       3.412  13.922  21.325  1.00  0.00    -0.383 N
ATOM      6  H31 UNL     1       3.438  14.634  20.596  1.00  0.00     0.157 HD
ATOM      7  H32 UNL     1       3.763  12.975  21.178  1.00  0.00     0.157 HD
HETATM    8  C8  UNL     1       2.430  15.552  22.675  1.00  0.00     0.123 A
HETATM    9  N4  UNL     1       2.353  16.627  21.907  1.00  0.00    -0.346 N
ATOM     10  H4  UNL     1       2.665  16.695  20.938  1.00  0.00     0.167 HD
HETATM   11  C9  UNL     1       1.786  17.626  22.636  1.00  0.00     0.191 A
HETATM   12  N5  UNL     1       1.498  17.185  23.874  1.00  0.00    -0.291 N
HETATM   13  C17 UNL     1       1.900  15.886  23.901  1.00  0.00     0.159 A
HETATM   14  N6  UNL     1       1.874  14.941  24.847  1.00  0.00    -0.174 N
ATOM     15  H6  UNL     1       1.484  15.173  25.761  1.00  0.00     0.186 HD
ENDROOT
BRANCH   1  16
HETATM   16  N1  UNL     1       2.292  12.813  25.593  1.00  0.00    -0.223 N
ATOM     17  H1  UNL     1       2.998  12.805  26.328  1.00  0.00     0.178 HD
BRANCH  16  18
HETATM   18  C5  UNL     1       1.210  11.859  25.602  1.00  0.00     0.165 C
BRANCH  18  19
HETATM   19  C4  UNL     1       0.618  11.634  24.284  1.00  0.00    -0.007 C
HETATM   20  C3  UNL     1       1.105  10.739  23.441  1.00  0.00    -0.003 C
BRANCH  20  21
HETATM   21  C2  UNL     1       0.514  10.520  22.135  1.00  0.00    -0.011 C
HETATM   22  C1  UNL     1       1.005  11.157  21.092  1.00  0.00     0.011 C
ENDBRANCH  20  21
ENDBRANCH  18  19
ENDBRANCH  16  18
ENDBRANCH   1  16
BRANCH  12  23
HETATM   23  C10 UNL     1       0.901  17.885  24.960  1.00  0.00     0.042 A
HETATM   24  C11 UNL     1       0.198  19.057  24.761  1.00  0.00     0.030 A
HETATM   25  C12 UNL     1      -0.393  19.764  25.785  1.00  0.00     0.009 A
HETATM   26  C13 UNL     1      -0.287  19.290  27.072  1.00  0.00    -0.062 A
HETATM   27  C14 UNL     1      -0.934  20.065  28.184  1.00  0.00     0.048 C
HETATM   28  C15 UNL     1       0.407  18.121  27.318  1.00  0.00     0.009 A
HETATM   29  C16 UNL     1       0.994  17.428  26.269  1.00  0.00     0.030 A
ENDBRANCH  12  23
TORSDOF 5
ENDMDL