MODEL 4
REMARK VINA RESULT: -4.907472314      0.586      1.424
REMARK  6 active torsions:
REMARK  status: ('A' for Active; 'I' for Inactive)
REMARK    1  A    between atoms: O1_2  and  C2_3
REMARK    2  A    between atoms: C5_6  and  C6_7
REMARK    3  A    between atoms: C6_7  and  N1_8
REMARK    4  A    between atoms: C7_11  and  C8_12
REMARK    5  A    between atoms: C11_15  and  N3_16
REMARK    6  A    between atoms: C13_24  and  N6_25
ROOT
HETATM    1  N1  UNL     1       3.168  15.027  23.758  1.00  0.00    -0.118 N
HETATM    2  N2  UNL     1       2.433  15.504  24.779  1.00  0.00    -0.268 N
ATOM      3  H2  UNL     1       2.151  14.975  25.604  1.00  0.00     0.189 HD
HETATM    4  C7  UNL     1       2.135  16.781  24.535  1.00  0.00     0.147 A
HETATM    5  N5  UNL     1       2.694  17.082  23.353  1.00  0.00    -0.173 N
ATOM      6  H5  UNL     1       2.639  17.993  22.897  1.00  0.00     0.186 HD
HETATM    7  C13 UNL     1       3.349  15.992  22.849  1.00  0.00     0.694 A
ENDROOT
BRANCH   4   8
HETATM    8  C8  UNL     1       1.345  17.703  25.382  1.00  0.00     0.025 A
HETATM    9  C9  UNL     1       1.067  17.365  26.692  1.00  0.00     0.020 A
HETATM   10  C10 UNL     1       0.339  18.200  27.493  1.00  0.00     0.049 A
HETATM   11  C11 UNL     1      -0.115  19.392  26.967  1.00  0.00     0.098 A
HETATM   12  N4  UNL     1       0.159  19.715  25.690  1.00  0.00    -0.352 N
HETATM   13  C12 UNL     1       0.875  18.887  24.910  1.00  0.00     0.105 A
ATOM     14  H4  UNL     1      -0.180  20.599  25.309  1.00  0.00     0.166 HD
BRANCH  11  15
HETATM   15  N3  UNL     1      -0.806  20.191  27.721  1.00  0.00    -0.385 N
ATOM     16  H32 UNL     1      -1.583  19.839  28.281  1.00  0.00     0.157 HD
ATOM     17  H31 UNL     1      -0.563  21.181  27.747  1.00  0.00     0.157 HD
ENDBRANCH  11  15
ENDBRANCH   4   8
BRANCH   1  18
HETATM   18  C6  UNL     1       3.643  13.664  23.712  1.00  0.00     0.206 C
BRANCH  18  19
HETATM   19  C5  UNL     1       2.582  12.716  23.277  1.00  0.00    -0.038 A
HETATM   20  C4  UNL     1       1.948  11.895  24.195  1.00  0.00     0.011 A
HETATM   21  C3  UNL     1       0.981  11.041  23.725  1.00  0.00     0.037 A
HETATM   22  C2  UNL     1       0.616  10.959  22.407  1.00  0.00     0.068 A
HETATM   23  C15 UNL     1       1.278  11.796  21.536  1.00  0.00     0.037 A
HETATM   24  C14 UNL     1       2.251  12.669  21.951  1.00  0.00     0.011 A
BRANCH  22  25
HETATM   25  O1  UNL     1      -0.370  10.068  22.015  1.00  0.00    -0.356 OA
HETATM   26  C1  UNL     1      -0.748  10.045  20.655  1.00  0.00     0.210 C
ENDBRANCH  22  25
ENDBRANCH  18  19
ENDBRANCH   1  18
BRANCH   7  27
HETATM   27  N6  UNL     1       4.003  15.939  21.740  1.00  0.00    -0.233 N
ATOM     28  H62 UNL     1       4.188  15.102  21.187  1.00  0.00     0.174 HD
ATOM     29  H61 UNL     1       4.434  16.702  21.219  1.00  0.00     0.174 HD
ENDBRANCH   7  27
TORSDOF 6
ENDMDL