MODEL 5
REMARK VINA RESULT: -6.427138679      1.691      2.481
REMARK  6 active torsions:
REMARK  status: ('A' for Active; 'I' for Inactive)
REMARK    1  A    between atoms: N1_1  and  C1_4
REMARK    2  A    between atoms: C2_7  and  N3_8
REMARK    3  A    between atoms: N3_8  and  C3_10
REMARK    4  A    between atoms: C3_10  and  C4_11
REMARK    5  A    between atoms: C7_22  and  S1_23
REMARK    6  A    between atoms: S1_23  and  C8_24
ROOT
HETATM    1  C1  UNL     1       2.598  14.192  24.645  1.00  0.00     0.133 A
HETATM    2  N2  UNL     1       2.847  13.706  23.419  1.00  0.00    -0.176 N
ATOM      3  H2  UNL     1       3.246  12.770  23.339  1.00  0.00     0.186 HD
HETATM    4  C2  UNL     1       2.594  14.394  22.290  1.00  0.00     0.679 A
HETATM    5  N7  UNL     1       2.066  15.626  22.398  1.00  0.00    -0.201 N
ATOM      6  H7  UNL     1       1.866  16.164  21.556  1.00  0.00     0.183 HD
HETATM    7  C6  UNL     1       1.795  16.163  23.619  1.00  0.00     0.128 A
HETATM    8  C7  UNL     1       2.057  15.455  24.759  1.00  0.00     0.065 A
ENDROOT
BRANCH   4   9
HETATM    9  N3  UNL     1       2.832  13.925  21.133  1.00  0.00    -0.220 N
ATOM     10  H3  UNL     1       3.287  14.552  20.469  1.00  0.00     0.178 HD
BRANCH   9  11
HETATM   11  C3  UNL     1       2.528  12.613  20.670  1.00  0.00     0.198 C
BRANCH  11  12
HETATM   12  C4  UNL     1       1.771  11.804  21.654  1.00  0.00     0.062 A
HETATM   13  C5  UNL     1       2.314  10.747  22.363  1.00  0.00     0.136 A
HETATM   14  N4  UNL     1       1.369  10.230  23.167  1.00  0.00    -0.296 N
HETATM   15  N5  UNL     1       0.285  10.953  22.953  1.00  0.00    -0.243 N
ATOM     16  H4  UNL     1       1.469   9.443  23.809  1.00  0.00     0.187 HD
HETATM   17  N6  UNL     1       0.496  11.893  22.060  1.00  0.00    -0.287 N
ATOM     18  H5  UNL     1      -0.607  10.800  23.424  1.00  0.00     0.208 HD
ATOM     19  H6  UNL     1      -0.191  12.572  21.732  1.00  0.00     0.188 HD
ENDBRANCH  11  12
ENDBRANCH   9  11
ENDBRANCH   4   9
BRANCH   1  20
HETATM   20  N1  UNL     1       2.854  13.504  25.703  1.00  0.00    -0.384 N
ATOM     21  H12 UNL     1       2.471  12.564  25.804  1.00  0.00     0.157 HD
ATOM     22  H11 UNL     1       3.435  13.879  26.452  1.00  0.00     0.157 HD
ENDBRANCH   1  20
BRANCH   8  23
HETATM   23  S1  UNL     1       1.734  16.082  26.404  1.00  0.00    -0.085 SA
BRANCH  23  24
HETATM   24  C8  UNL     1       1.147  17.753  26.352  1.00  0.00     0.005 A
HETATM   25  C9  UNL     1       0.128  18.172  27.163  1.00  0.00     0.019 A
HETATM   26  C10 UNL     1      -0.329  19.490  27.117  1.00  0.00     0.001 A
HETATM   27  C11 UNL     1       0.257  20.381  26.240  1.00  0.00     0.000 A
HETATM   28  C12 UNL     1       1.300  19.955  25.410  1.00  0.00     0.001 A
HETATM   29  C13 UNL     1       1.724  18.641  25.486  1.00  0.00     0.019 A
ENDBRANCH  23  24
ENDBRANCH   8  23
TORSDOF 6
ENDMDL