MODEL 4
REMARK VINA RESULT: -5.557593067      1.394      2.767
REMARK  6 active torsions:
REMARK  status: ('A' for Active; 'I' for Inactive)
REMARK    1  A    between atoms: N1_2  and  C3_4
REMARK    2  A    between atoms: C3_4  and  C4_5
REMARK    3  A    between atoms: C9_10  and  N2_11
REMARK    4  A    between atoms: C11_13  and  C12_14
REMARK    5  A    between atoms: C14_18  and  N4_19
REMARK    6  A    between atoms: C15_24  and  N6_25
ROOT
HETATM    1  N2  UNL     1       1.780  13.740  24.680  1.00  0.00    -0.267 N
HETATM    2  C10 UNL     1       1.405  15.028  24.644  1.00  0.00     0.130 A
HETATM    3  C11 UNL     1       1.679  15.640  25.845  1.00  0.00     0.014 A
HETATM    4  C16 UNL     1       2.228  14.693  26.601  1.00  0.00     0.121 A
HETATM    5  N7  UNL     1       2.303  13.526  25.910  1.00  0.00    -0.304 N
ATOM      6  H7  UNL     1       2.686  12.646  26.255  1.00  0.00     0.186 HD
ENDROOT
BRANCH   3   7
HETATM    7  C12 UNL     1       1.367  17.063  26.040  1.00  0.00     0.037 A
HETATM    8  C13 UNL     1       0.680  17.737  25.055  1.00  0.00     0.122 A
HETATM    9  N3  UNL     1       0.347  19.052  25.126  1.00  0.00    -0.201 N
HETATM   10  C14 UNL     1       0.695  19.752  26.196  1.00  0.00     0.677 A
ATOM     11  H3  UNL     1      -0.165  19.497  24.363  1.00  0.00     0.183 HD
HETATM   12  N5  UNL     1       1.368  19.156  27.190  1.00  0.00    -0.176 N
HETATM   13  C15 UNL     1       1.711  17.815  27.128  1.00  0.00     0.127 A
ATOM     14  H5  UNL     1       1.634  19.701  28.010  1.00  0.00     0.186 HD
BRANCH  10  15
HETATM   15  N4  UNL     1       0.420  21.023  26.323  1.00  0.00    -0.234 N
ATOM     16  H42 UNL     1       0.615  21.465  27.221  1.00  0.00     0.174 HD
ATOM     17  H41 UNL     1       0.032  21.577  25.560  1.00  0.00     0.174 HD
ENDBRANCH  10  15
BRANCH  13  18
HETATM   18  N6  UNL     1       2.313  17.322  28.077  1.00  0.00    -0.384 N
ATOM     19  H62 UNL     1       3.234  17.692  28.311  1.00  0.00     0.157 HD
ATOM     20  H61 UNL     1       1.901  16.572  28.632  1.00  0.00     0.157 HD
ENDBRANCH  13  18
ENDBRANCH   3   7
BRANCH   1  21
HETATM   21  C9  UNL     1       1.734  12.873  23.585  1.00  0.00     0.063 A
HETATM   22  C4  UNL     1       2.560  13.271  22.532  1.00  0.00    -0.012 A
HETATM   23  C5  UNL     1       2.617  12.584  21.318  1.00  0.00     0.011 A
HETATM   24  C6  UNL     1       1.833  11.465  21.138  1.00  0.00     0.001 A
HETATM   25  C7  UNL     1       1.016  11.077  22.180  1.00  0.00     0.002 A
HETATM   26  C8  UNL     1       0.947  11.759  23.407  1.00  0.00     0.032 A
BRANCH  22  27
HETATM   27  C3  UNL     1       3.536  14.373  22.783  1.00  0.00     0.156 C
BRANCH  27  28
HETATM   28  N1  UNL     1       3.529  15.423  21.838  1.00  0.00    -0.417 N
HETATM   29  C1  UNL     1       4.638  15.883  21.172  1.00  0.00     0.142 C
HETATM   30  C2  UNL     1       2.630  16.476  22.231  1.00  0.00     0.142 C
ENDBRANCH  27  28
ENDBRANCH  22  27
ENDBRANCH   1  21
TORSDOF 6
ENDMDL