MODEL 1
REMARK VINA RESULT: -7.321539202      0.000      0.000
REMARK  5 active torsions:
REMARK  status: ('A' for Active; 'I' for Inactive)
REMARK    1  A    between atoms: S1_2  and  N1_5
REMARK    2  A    between atoms: N1_5  and  C2_7
REMARK    3  A    between atoms: C5_10  and  S2_11
REMARK    4  A    between atoms: S2_11  and  C6_12
REMARK    5  A    between atoms: C9_17  and  N3_18
ROOT
HETATM    1  C2  UNL     1       2.676  14.449  23.150  1.00  0.00     0.042 A
HETATM    2  C3  UNL     1       2.235  13.772  24.258  1.00  0.00     0.031 A
HETATM    3  C4  UNL     1       2.050  14.398  25.485  1.00  0.00     0.021 A
HETATM    4  C5  UNL     1       2.316  15.742  25.602  1.00  0.00     0.007 A
HETATM    5  C10 UNL     1       2.758  16.439  24.508  1.00  0.00     0.021 A
HETATM    6  C11 UNL     1       2.934  15.796  23.299  1.00  0.00     0.031 A
ENDROOT
BRANCH   4   7
HETATM    7  S2  UNL     1       2.109  16.632  27.136  1.00  0.00    -0.072 SA
BRANCH   7   8
HETATM    8  C6  UNL     1       1.216  18.159  26.878  1.00  0.00     0.092 A
HETATM    9  C7  UNL     1       1.696  19.074  25.962  1.00  0.00     0.055 A
HETATM   10  C8  UNL     1       0.973  20.250  25.791  1.00  0.00     0.109 A
HETATM   11  N2  UNL     1      -0.148  20.475  26.494  1.00  0.00    -0.202 N
HETATM   12  C9  UNL     1      -0.613  19.581  27.385  1.00  0.00     0.676 A
ATOM     13  H2  UNL     1      -0.660  21.345  26.350  1.00  0.00     0.183 HD
HETATM   14  N4  UNL     1       0.088  18.432  27.559  1.00  0.00    -0.186 N
ATOM     15  H4  UNL     1      -0.254  17.747  28.233  1.00  0.00     0.185 HD
BRANCH  12  16
HETATM   16  N3  UNL     1      -1.677  19.842  28.025  1.00  0.00    -0.234 N
ATOM     17  H32 UNL     1      -1.919  20.782  28.337  1.00  0.00     0.174 HD
ATOM     18  H31 UNL     1      -2.326  19.084  28.240  1.00  0.00     0.174 HD
ENDBRANCH  12  16
ENDBRANCH   7   8
ENDBRANCH   4   7
BRANCH   1  19
HETATM   19  N1  UNL     1       2.851  13.793  21.929  1.00  0.00    -0.285 N
ATOM     20  H1  UNL     1       3.530  14.194  21.282  1.00  0.00     0.178 HD
BRANCH  19  21
HETATM   21  S1  UNL     1       2.038  12.387  21.417  1.00  0.00     0.227 S
HETATM   22  C1  UNL     1       2.335  11.002  22.478  1.00  0.00     0.186 C
HETATM   23  O1  UNL     1       0.559  12.656  21.386  1.00  0.00    -0.206 OA
HETATM   24  O2  UNL     1       2.470  12.003  20.026  1.00  0.00    -0.206 OA
ENDBRANCH  19  21
ENDBRANCH   1  19
TORSDOF 5
ENDMDL