MODEL 3
REMARK VINA RESULT: -5.610031925      2.856      6.672
REMARK  3 active torsions:
REMARK  status: ('A' for Active; 'I' for Inactive)
REMARK       I    between atoms: C1_4  and  N3_6
REMARK    1  A    between atoms: N3_6  and  N4_8
REMARK    2  A    between atoms: C2_10  and  C3_11
REMARK    3  A    between atoms: C9_25  and  C10_26
ROOT
HETATM    1  C3  UNL     1       2.915  15.798  23.869  1.00  0.00     0.078 A
HETATM    2  N5  UNL     1       2.638  17.072  24.162  1.00  0.00    -0.336 N
ATOM      3  H5  UNL     1       3.106  17.874  23.737  1.00  0.00     0.168 HD
HETATM    4  C4  UNL     1       1.655  17.166  25.098  1.00  0.00     0.151 A
HETATM    5  C5  UNL     1       1.095  18.376  25.657  1.00  0.00     0.150 A
HETATM    6  N6  UNL     1       0.128  18.313  26.572  1.00  0.00    -0.349 N
ATOM      7  H6  UNL     1      -0.209  17.399  26.871  1.00  0.00     0.167 HD
HETATM    8  C6  UNL     1      -0.423  19.432  27.121  1.00  0.00     0.091 A
HETATM    9  C7  UNL     1       0.058  20.648  26.694  1.00  0.00     0.034 A
HETATM   10  C8  UNL     1       1.052  20.721  25.752  1.00  0.00     0.091 A
HETATM   11  N7  UNL     1       1.549  19.560  25.253  1.00  0.00    -0.349 N
ATOM     12  H7  UNL     1       2.288  19.597  24.552  1.00  0.00     0.167 HD
HETATM   13  N8  UNL     1       1.341  15.891  25.366  1.00  0.00    -0.337 N
ATOM     14  H8  UNL     1       0.626  15.615  26.038  1.00  0.00     0.167 HD
HETATM   15  C9  UNL     1       2.065  15.018  24.658  1.00  0.00     0.072 A
ENDROOT
BRANCH   1  16
HETATM   16  C2  UNL     1       3.901  15.272  22.941  1.00  0.00     0.139 C
HETATM   17  N4  UNL     1       3.675  14.504  21.982  1.00  0.00    -0.307 N
ATOM     18  H4  UNL     1       4.505  14.247  21.448  1.00  0.00     0.186 HD
BRANCH  17  19
HETATM   19  N3  UNL     1       2.506  13.942  21.517  1.00  0.00    -0.274 N
HETATM   20  C1  UNL     1       2.419  12.627  21.000  1.00  0.00     0.200 C
HETATM   21  N1  UNL     1       2.491  11.595  21.758  1.00  0.00    -0.372 N
HETATM   22  N2  UNL     1       2.248  12.460  19.605  1.00  0.00    -0.062 NA
ATOM     23  H12 UNL     1       2.429  10.647  21.386  1.00  0.00     0.158 HD
ATOM     24  H11 UNL     1       2.614  11.715  22.764  1.00  0.00     0.158 HD
ATOM     25  H3  UNL     1       1.656  14.505  21.546  1.00  0.00     0.189 HD
ENDBRANCH  17  19
ENDBRANCH   1  16
BRANCH  15  26
HETATM   26  C10 UNL     1       1.961  13.564  24.730  1.00  0.00    -0.007 A
HETATM   27  C11 UNL     1       3.023  12.729  24.909  1.00  0.00     0.014 A
HETATM   28  C12 UNL     1       2.848  11.351  24.978  1.00  0.00     0.001 A
HETATM   29  C13 UNL     1       1.597  10.781  24.865  1.00  0.00     0.000 A
HETATM   30  C14 UNL     1       0.520  11.610  24.684  1.00  0.00     0.001 A
HETATM   31  C15 UNL     1       0.705  12.954  24.620  1.00  0.00     0.014 A
ENDBRANCH  15  26
TORSDOF 3
ENDMDL