MODEL 1
REMARK VINA RESULT: -8.250618044      0.000      0.000
REMARK  5 active torsions:
REMARK  status: ('A' for Active; 'I' for Inactive)
REMARK    1  A    between atoms: C3_3  and  C4_4
REMARK    2  A    between atoms: C5_5  and  C6_6
REMARK    3  A    between atoms: C9_15  and  N3_16
REMARK    4  A    between atoms: N3_16  and  N4_18
REMARK    5  A    between atoms: N4_18  and  C10_20
ROOT
HETATM    1  C6  UNL     1       1.508  17.126  23.947  1.00  0.00     0.070 A
HETATM    2  N1  UNL     1       1.421  18.040  24.928  1.00  0.00    -0.306 N
ATOM      3  H1  UNL     1       1.183  19.005  24.699  1.00  0.00     0.171 HD
HETATM    4  C7  UNL     1       1.644  17.697  26.206  1.00  0.00     0.327 A
HETATM    5  O1  UNL     1       1.557  18.575  27.116  1.00  0.00    -0.247 OA
HETATM    6  N2  UNL     1       1.958  16.431  26.522  1.00  0.00    -0.273 N
ATOM      7  H2  UNL     1       2.125  16.179  27.496  1.00  0.00     0.173 HD
HETATM    8  C8  UNL     1       2.054  15.484  25.554  1.00  0.00     0.279 A
HETATM    9  O2  UNL     1       2.353  14.334  25.957  1.00  0.00    -0.265 OA
HETATM   10  C9  UNL     1       1.835  15.797  24.240  1.00  0.00     0.143 A
ENDROOT
BRANCH  10  11
HETATM   11  N3  UNL     1       1.929  14.836  23.248  1.00  0.00    -0.293 N
ATOM     12  H3  UNL     1       1.559  15.130  22.344  1.00  0.00     0.187 HD
BRANCH  11  13
HETATM   13  N4  UNL     1       2.381  13.687  23.260  1.00  0.00    -0.293 N
ATOM     14  H4  UNL     1       3.298  13.584  23.695  1.00  0.00     0.187 HD
BRANCH  13  15
HETATM   15  C10 UNL     1       1.813  12.497  22.761  1.00  0.00     0.141 A
HETATM   16  C11 UNL     1       0.969  11.681  23.480  1.00  0.00     0.055 A
HETATM   17  C12 UNL     1       0.484  11.854  24.884  1.00  0.00     0.072 C
HETATM   18  N5  UNL     1       0.641  10.665  22.681  1.00  0.00    -0.300 N
HETATM   19  N6  UNL     1       1.234  10.807  21.509  1.00  0.00    -0.264 N
ATOM     20  H5  UNL     1       0.024   9.894  22.936  1.00  0.00     0.186 HD
HETATM   21  C13 UNL     1       1.967  11.926  21.520  1.00  0.00     0.289 A
ATOM     22  H6  UNL     1       1.146  10.165  20.721  1.00  0.00     0.190 HD
HETATM   23  O3  UNL     1       2.682  12.397  20.568  1.00  0.00    -0.264 OA
ENDBRANCH  13  15
ENDBRANCH  11  13
ENDBRANCH  10  11
BRANCH   1  24
HETATM   24  C5  UNL     1       1.265  17.496  22.565  1.00  0.00     0.032 C
HETATM   25  C4  UNL     1       0.102  17.892  22.106  1.00  0.00     0.002 C
BRANCH  25  26
HETATM   26  C3  UNL     1      -0.054  18.245  20.698  1.00  0.00    -0.004 C
HETATM   27  C2  UNL     1      -1.247  18.561  20.230  1.00  0.00    -0.031 C
HETATM   28  C1  UNL     1      -2.403  18.552  21.143  1.00  0.00     0.036 C
ENDBRANCH  25  26
ENDBRANCH   1  24
TORSDOF 5
ENDMDL