MODEL 2
REMARK VINA RESULT: -6.367450125      2.778      9.278
REMARK  10 active torsions:
REMARK  status: ('A' for Active; 'I' for Inactive)
REMARK    1  A    between atoms: C2_2  and  N1_3
REMARK    2  A    between atoms: N1_3  and  C3_5
REMARK    3  A    between atoms: C3_5  and  N2_7
REMARK    4  A    between atoms: N2_7  and  C4_8
REMARK    5  A    between atoms: N2_7  and  C13_19
REMARK    6  A    between atoms: C4_8  and  C5_9
REMARK    7  A    between atoms: C5_9  and  C6_10
REMARK    8  A    between atoms: C13_19  and  C14_20
REMARK    9  A    between atoms: N4_23  and  C17_24
REMARK   10  A    between atoms: C17_24  and  C18_25
ROOT
HETATM    1  N2  UNL     1      -0.713   3.597  21.147  1.00  0.00    -0.358 N
ENDROOT
BRANCH   1   2
HETATM    2  C3  UNL     1      -1.174   2.316  21.661  1.00  0.00     0.169 C
HETATM    3  S1  UNL     1      -2.681   1.799  21.200  1.00  0.00    -0.041 SA
BRANCH   2   4
HETATM    4  N1  UNL     1      -0.449   1.462  22.485  1.00  0.00    -0.367 N
ATOM      5  H1  UNL     1      -0.011   1.826  23.331  1.00  0.00     0.161 HD
BRANCH   4   6
HETATM    6  C2  UNL     1      -0.312   0.059  22.148  1.00  0.00     0.117 C
HETATM    7  C1  UNL     1       1.161  -0.350  22.084  1.00  0.00     0.026 C
ENDBRANCH   4   6
ENDBRANCH   2   4
ENDBRANCH   1   2
BRANCH   1   8
HETATM    8  C4  UNL     1       0.418   3.582  20.287  1.00  0.00     0.130 C
BRANCH   8   9
HETATM    9  C5  UNL     1       0.291   3.127  18.889  1.00  0.00     0.060 C
BRANCH   9  10
HETATM   10  C6  UNL     1       1.210   1.921  18.753  1.00  0.00    -0.033 A
HETATM   11  C7  UNL     1       0.855   0.600  18.639  1.00  0.00     0.096 A
HETATM   12  N3  UNL     1       1.987  -0.131  18.547  1.00  0.00    -0.368 N
HETATM   13  C8  UNL     1       3.061   0.676  18.598  1.00  0.00     0.015 A
ATOM     14  H3  UNL     1       2.022  -1.146  18.453  1.00  0.00     0.165 HD
HETATM   15  C9  UNL     1       2.585   1.956  18.727  1.00  0.00    -0.028 A
HETATM   16  C12 UNL     1       4.569   0.707  18.571  1.00  0.00     0.058 C
HETATM   17  C10 UNL     1       3.753   2.893  18.781  1.00  0.00     0.041 C
HETATM   18  C11 UNL     1       4.840   2.002  19.334  1.00  0.00     0.011 C
ENDBRANCH   9  10
ENDBRANCH   8   9
ENDBRANCH   1   8
BRANCH   1  19
HETATM   19  C13 UNL     1      -1.400   4.799  21.503  1.00  0.00     0.130 C
BRANCH  19  20
HETATM   20  C14 UNL     1      -1.243   5.377  22.862  1.00  0.00     0.010 C
HETATM   21  C15 UNL     1      -1.016   6.890  22.779  1.00  0.00     0.051 C
HETATM   22  C16 UNL     1      -2.099   7.709  23.415  1.00  0.00     0.063 C
HETATM   23  N4  UNL     1      -2.397   7.298  24.707  1.00  0.00    -0.373 N
HETATM   24  C24 UNL     1      -2.379   5.905  25.009  1.00  0.00     0.127 C
HETATM   25  C25 UNL     1      -2.427   5.069  23.724  1.00  0.00     0.027 C
BRANCH  23  26
HETATM   26  C17 UNL     1      -2.557   8.149  25.791  1.00  0.00     0.067 C
BRANCH  26  27
HETATM   27  C18 UNL     1      -1.831   7.855  27.078  1.00  0.00     0.024 C
HETATM   28  C19 UNL     1      -0.889   9.032  27.297  1.00  0.00     0.010 C
HETATM   29  C20 UNL     1      -0.335   9.106  28.683  1.00  0.00     0.001 C
HETATM   30  C21 UNL     1      -1.499   9.150  29.666  1.00  0.00     0.000 C
HETATM   31  C22 UNL     1      -2.145   7.761  29.561  1.00  0.00     0.001 C
HETATM   32  C23 UNL     1      -2.822   7.750  28.201  1.00  0.00     0.010 C
ENDBRANCH  26  27
ENDBRANCH  23  26
ENDBRANCH  19  20
ENDBRANCH   1  19
TORSDOF 10
ENDMDL