MODEL 1
REMARK VINA RESULT: -5.862669694      0.000      0.000
REMARK  7 active torsions:
REMARK  status: ('A' for Active; 'I' for Inactive)
REMARK    1  A    between atoms: C2_2  and  C3_3
REMARK    2  A    between atoms: C3_3  and  N1_4
REMARK       I    between atoms: N1_4  and  C4_6
REMARK    3  A    between atoms: C4_6  and  C5_8
REMARK    4  A    between atoms: C5_8  and  C6_9
REMARK    5  A    between atoms: C6_9  and  C7_10
REMARK       I    between atoms: N2_17  and  C14_18
REMARK       I    between atoms: C14_18  and  N4_29
REMARK       I    between atoms: N3_19  and  C15_21
REMARK    6  A    between atoms: C15_21  and  C16_23
REMARK    7  A    between atoms: N4_29  and  C22_31
ROOT
HETATM    1  C5  UNL     1       1.683   4.436  16.260  1.00  0.00     0.130 C
HETATM    2  C10 UNL     1       2.373   4.109  14.934  1.00  0.00     0.042 C
HETATM    3  C11 UNL     1       1.762   2.945  14.238  1.00  0.00     0.004 C
HETATM    4  C12 UNL     1       1.507   1.757  15.093  1.00  0.00     0.020 C
HETATM    5  C13 UNL     1       1.175   2.004  16.513  1.00  0.00     0.143 C
HETATM    6  N2  UNL     1       1.849   3.167  17.022  1.00  0.00    -0.200 N
HETATM    7  C14 UNL     1       2.616   3.001  18.187  1.00  0.00     0.680 C
HETATM    8  N3  UNL     1       2.172   2.968  19.394  1.00  0.00    -0.160 N
ATOM      9  H3  UNL     1       2.881   2.840  20.116  1.00  0.00     0.187 HD
HETATM   10  C15 UNL     1       0.868   3.082  19.857  1.00  0.00     0.240 C
HETATM   11  O2  UNL     1       0.263   4.174  20.035  1.00  0.00    -0.272 OA
HETATM   12  N4  UNL     1       4.029   2.812  18.052  1.00  0.00    -0.222 N
ATOM     13  H4  UNL     1       4.501   3.263  17.267  1.00  0.00     0.178 HD
ENDROOT
BRANCH   1  14
HETATM   14  C4  UNL     1       2.490   5.470  16.867  1.00  0.00     0.246 C
HETATM   15  N1  UNL     1       3.805   5.797  16.393  1.00  0.00    -0.359 N
ATOM     16  H1  UNL     1       4.146   5.307  15.566  1.00  0.00     0.162 HD
HETATM   17  O1  UNL     1       2.161   6.191  17.874  1.00  0.00    -0.271 OA
BRANCH  15  18
HETATM   18  C3  UNL     1       4.664   6.754  16.996  1.00  0.00     0.122 C
BRANCH  18  19
HETATM   19  C2  UNL     1       5.886   6.335  17.701  1.00  0.00     0.015 C
HETATM   20  C1  UNL     1       6.937   5.631  16.906  1.00  0.00     0.006 C
ENDBRANCH  18  19
ENDBRANCH  15  18
ENDBRANCH   1  14
BRANCH   1  21
HETATM   21  C6  UNL     1       0.260   4.651  16.160  1.00  0.00     0.045 C
BRANCH  21  22
HETATM   22  C7  UNL     1      -0.444   5.592  15.303  1.00  0.00    -0.020 C
HETATM   23  C8  UNL     1      -1.563   4.793  14.546  1.00  0.00     0.009 C
HETATM   24  C9  UNL     1      -1.228   6.674  15.986  1.00  0.00     0.009 C
ENDBRANCH  21  22
ENDBRANCH   1  21
BRANCH  12  25
HETATM   25  C22 UNL     1       4.816   2.031  18.948  1.00  0.00     0.091 C
HETATM   26  C23 UNL     1       5.088   0.635  18.449  1.00  0.00     0.032 C
HETATM   27  C24 UNL     1       6.137   2.695  19.235  1.00  0.00     0.032 C
ENDBRANCH  12  25
BRANCH  10  28
HETATM   28  C16 UNL     1       0.114   1.820  20.175  1.00  0.00     0.079 C
HETATM   29  C17 UNL     1       1.025   0.611  19.927  1.00  0.00     0.014 C
HETATM   30  C18 UNL     1       1.640   0.149  21.231  1.00  0.00     0.001 C
HETATM   31  C19 UNL     1       0.585  -0.448  22.122  1.00  0.00     0.000 C
HETATM   32  C20 UNL     1      -0.655   0.404  22.041  1.00  0.00     0.001 C
HETATM   33  C21 UNL     1      -0.354   1.814  21.594  1.00  0.00     0.014 C
ENDBRANCH  10  28
TORSDOF 7
ENDMDL