MODEL 2
REMARK VINA RESULT: -7.180046718      3.821      9.369
REMARK  7 active torsions:
REMARK  status: ('A' for Active; 'I' for Inactive)
REMARK    1  A    between atoms: C2_2  and  C3_3
REMARK    2  A    between atoms: C3_3  and  C4_4
REMARK    3  A    between atoms: C4_4  and  N1_5
REMARK       I    between atoms: N1_5  and  C5_7
REMARK    4  A    between atoms: C5_7  and  C6_9
REMARK    5  A    between atoms: C8_11  and  C9_12
REMARK    6  A    between atoms: C9_12  and  C10_13
REMARK       I    between atoms: N3_24  and  C19_25
REMARK    7  A    between atoms: C19_25  and  C20_27
ROOT
HETATM    1  C6  UNL     1      -1.919   3.752  21.593  1.00  0.00     0.116 C
HETATM    2  C7  UNL     1      -2.063   4.977  20.722  1.00  0.00     0.049 C
HETATM    3  C8  UNL     1      -3.131   2.902  21.659  1.00  0.00     0.029 C
HETATM    4  C17 UNL     1      -2.767   1.518  21.236  1.00  0.00     0.027 C
HETATM    5  C18 UNL     1      -1.256   1.548  21.400  1.00  0.00     0.127 C
HETATM    6  N3  UNL     1      -0.921   2.903  20.977  1.00  0.00    -0.333 N
HETATM    7  C19 UNL     1       0.181   3.217  20.133  1.00  0.00     0.225 C
HETATM    8  O2  UNL     1       0.444   4.397  19.779  1.00  0.00    -0.273 OA
ENDROOT
BRANCH   3   9
HETATM    9  C9  UNL     1      -4.339   3.451  20.951  1.00  0.00     0.048 C
BRANCH   9  10
HETATM   10  C10 UNL     1      -5.300   4.088  21.896  1.00  0.00    -0.034 A
HETATM   11  C11 UNL     1      -5.775   3.593  23.091  1.00  0.00     0.095 A
HETATM   12  N2  UNL     1      -6.626   4.445  23.667  1.00  0.00    -0.368 N
HETATM   13  C12 UNL     1      -6.732   5.530  22.856  1.00  0.00     0.015 A
ATOM     14  H2  UNL     1      -7.109   4.307  24.554  1.00  0.00     0.165 HD
HETATM   15  C13 UNL     1      -5.919   5.321  21.766  1.00  0.00    -0.028 A
HETATM   16  C16 UNL     1      -7.424   6.856  22.755  1.00  0.00     0.058 C
HETATM   17  C14 UNL     1      -5.997   6.487  20.844  1.00  0.00     0.041 C
HETATM   18  C15 UNL     1      -6.560   7.576  21.756  1.00  0.00     0.011 C
ENDBRANCH   9  10
ENDBRANCH   3   9
BRANCH   1  19
HETATM   19  C5  UNL     1      -1.522   4.219  22.928  1.00  0.00     0.246 C
HETATM   20  N1  UNL     1      -2.435   4.934  23.723  1.00  0.00    -0.359 N
ATOM     21  H1  UNL     1      -3.359   5.104  23.326  1.00  0.00     0.162 HD
HETATM   22  O1  UNL     1      -0.378   3.983  23.355  1.00  0.00    -0.271 OA
BRANCH  20  23
HETATM   23  C4  UNL     1      -2.187   5.449  25.049  1.00  0.00     0.122 C
BRANCH  23  24
HETATM   24  C3  UNL     1      -2.976   6.688  25.282  1.00  0.00     0.019 C
BRANCH  24  25
HETATM   25  C2  UNL     1      -3.727   7.142  24.046  1.00  0.00    -0.003 C
HETATM   26  C1  UNL     1      -3.718   8.638  23.896  1.00  0.00     0.005 C
ENDBRANCH  24  25
ENDBRANCH  23  24
ENDBRANCH  20  23
ENDBRANCH   1  19
BRANCH   7  27
HETATM   27  C20 UNL     1       1.086   2.176  19.622  1.00  0.00     0.078 C
HETATM   28  C21 UNL     1       1.586   1.207  20.645  1.00  0.00     0.014 C
HETATM   29  C22 UNL     1       2.119  -0.001  19.874  1.00  0.00     0.005 C
HETATM   30  C23 UNL     1       3.241   0.424  18.948  1.00  0.00    -0.019 C
HETATM   31  C24 UNL     1       4.488   0.668  19.765  1.00  0.00     0.010 C
HETATM   32  C25 UNL     1       2.878   1.585  18.083  1.00  0.00     0.005 C
HETATM   33  C26 UNL     1       2.262   2.723  18.873  1.00  0.00     0.014 C
ENDBRANCH   7  27
TORSDOF 7
ENDMDL