MODEL 2
REMARK VINA RESULT: -6.433337938      2.454      8.960
REMARK  9 active torsions:
REMARK  status: ('A' for Active; 'I' for Inactive)
REMARK    1  A    between atoms: C2_2  and  C3_3
REMARK    2  A    between atoms: C3_3  and  C5_5
REMARK    3  A    between atoms: C5_5  and  N1_6
REMARK    4  A    between atoms: N1_6  and  C6_7
REMARK       I    between atoms: N1_6  and  C20_25
REMARK    5  A    between atoms: C6_7  and  C7_8
REMARK    6  A    between atoms: C10_11  and  C11_12
REMARK    7  A    between atoms: C11_12  and  N2_13
REMARK       I    between atoms: N2_13  and  C13_15
REMARK       I    between atoms: C13_15  and  N3_17
REMARK    8  A    between atoms: N3_17  and  C14_19
REMARK       I    between atoms: C20_25  and  N4_27
REMARK    9  A    between atoms: N4_27  and  C21_29
ROOT
HETATM    1  C7  UNL     1       1.864   0.891  20.021  1.00  0.00     0.008 C
HETATM    2  C8  UNL     1       1.173  -0.305  20.577  1.00  0.00     0.007 C
HETATM    3  C9  UNL     1       0.835   0.214  21.993  1.00  0.00     0.007 C
HETATM    4  C10 UNL     1       0.410   1.641  21.786  1.00  0.00     0.008 C
HETATM    5  C18 UNL     1       0.872   1.988  20.391  1.00  0.00    -0.007 C
HETATM    6  C19 UNL     1      -0.218   2.027  19.376  1.00  0.00     0.011 C
ENDROOT
BRANCH   1   7
HETATM    7  C6  UNL     1       2.134   0.923  18.566  1.00  0.00     0.132 C
BRANCH   7   8
HETATM    8  N1  UNL     1       3.010   1.974  18.107  1.00  0.00    -0.333 N
HETATM    9  C20 UNL     1       2.978   2.363  16.755  1.00  0.00     0.318 C
HETATM   10  O2  UNL     1       3.824   3.232  16.368  1.00  0.00    -0.247 OA
HETATM   11  N4  UNL     1       2.100   1.899  15.755  1.00  0.00    -0.335 N
ATOM     12  H4  UNL     1       1.401   1.202  16.013  1.00  0.00     0.165 HD
BRANCH   8  13
HETATM   13  C5  UNL     1       3.947   2.609  19.024  1.00  0.00     0.135 C
BRANCH  13  14
HETATM   14  C3  UNL     1       5.234   1.861  19.202  1.00  0.00     0.021 C
HETATM   15  C4  UNL     1       5.400   1.150  20.496  1.00  0.00     0.016 C
BRANCH  14  16
HETATM   16  C2  UNL     1       6.365   2.803  19.014  1.00  0.00    -0.031 C
HETATM   17  C1  UNL     1       6.202   4.111  18.958  1.00  0.00     0.007 C
ENDBRANCH  14  16
ENDBRANCH  13  14
ENDBRANCH   8  13
BRANCH  11  18
HETATM   18  C21 UNL     1       2.135   2.353  14.384  1.00  0.00     0.023 C
HETATM   19  C22 UNL     1       3.469   2.067  13.727  1.00  0.00     0.037 C
HETATM   20  C23 UNL     1       1.903   3.837  14.307  1.00  0.00     0.037 C
HETATM   21  C24 UNL     1       1.071   1.657  13.582  1.00  0.00     0.037 C
ENDBRANCH  11  18
ENDBRANCH   7   8
ENDBRANCH   1   7
BRANCH   4  22
HETATM   22  C11 UNL     1      -1.050   1.893  21.933  1.00  0.00     0.132 C
BRANCH  22  23
HETATM   23  N2  UNL     1      -1.403   3.155  22.495  1.00  0.00    -0.338 N
HETATM   24  C12 UNL     1      -0.498   4.059  23.159  1.00  0.00     0.154 C
HETATM   25  C13 UNL     1      -2.785   3.562  22.399  1.00  0.00     0.318 C
HETATM   26  O1  UNL     1      -3.644   2.817  21.832  1.00  0.00    -0.247 OA
HETATM   27  N3  UNL     1      -3.222   4.794  22.928  1.00  0.00    -0.335 N
ATOM     28  H3  UNL     1      -2.556   5.413  23.390  1.00  0.00     0.165 HD
BRANCH  27  29
HETATM   29  C14 UNL     1      -4.598   5.179  22.820  1.00  0.00     0.023 C
HETATM   30  C15 UNL     1      -5.487   4.211  23.589  1.00  0.00     0.037 C
HETATM   31  C16 UNL     1      -5.049   5.242  21.361  1.00  0.00     0.037 C
HETATM   32  C17 UNL     1      -4.793   6.548  23.427  1.00  0.00     0.037 C
ENDBRANCH  27  29
ENDBRANCH  22  23
ENDBRANCH   4  22
TORSDOF 9
ENDMDL