MODEL 2
REMARK VINA RESULT: -5.982680258      2.669      6.509
REMARK  9 active torsions:
REMARK  status: ('A' for Active; 'I' for Inactive)
REMARK    1  A    between atoms: C2_2  and  C4_4
REMARK    2  A    between atoms: C9_10  and  C10_11
REMARK    3  A    between atoms: C10_11  and  N2_12
REMARK    4  A    between atoms: C10_11  and  C16_25
REMARK    5  A    between atoms: N2_12  and  C11_14
REMARK    6  A    between atoms: C11_14  and  N3_16
REMARK    7  A    between atoms: N3_16  and  C12_18
REMARK    8  A    between atoms: C16_25  and  C17_26
REMARK    9  A    between atoms: C16_25  and  C19_28
ROOT
HETATM    1  C10 UNL     1      -0.190   2.105  20.055  1.00  0.00     0.093 C
ENDROOT
BRANCH   1   2
HETATM    2  C9  UNL     1      -1.063   2.733  21.067  1.00  0.00     0.035 C
HETATM    3  C8  UNL     1      -0.333   3.115  22.346  1.00  0.00     0.010 C
HETATM    4  C7  UNL     1      -0.814   4.502  22.761  1.00  0.00     0.028 C
HETATM    5  C6  UNL     1      -2.323   4.397  22.814  1.00  0.00     0.237 C
HETATM    6  N1  UNL     1      -2.804   4.422  21.448  1.00  0.00    -0.066 N
HETATM    7  C5  UNL     1      -4.049   3.728  21.389  1.00  0.00     0.246 C
HETATM    8  C21 UNL     1      -1.805   3.942  20.509  1.00  0.00     0.244 C
HETATM    9  C22 UNL     1      -3.135   5.780  21.080  1.00  0.00     0.242 C
HETATM   10  C4  UNL     1      -4.991   4.722  22.082  1.00  0.00     0.044 C
HETATM   11  C23 UNL     1      -4.624   5.974  21.354  1.00  0.00     0.017 C
HETATM   12  C24 UNL     1      -4.928   7.219  22.118  1.00  0.00     0.012 C
BRANCH  10  13
HETATM   13  C2  UNL     1      -6.403   4.379  21.973  1.00  0.00    -0.087 C
HETATM   14  C1  UNL     1      -7.227   4.391  23.006  1.00  0.00     0.014 C
HETATM   15  C3  UNL     1      -7.014   3.996  20.646  1.00  0.00     0.043 C
ENDBRANCH  10  13
ENDBRANCH   1   2
BRANCH   1  16
HETATM   16  N2  UNL     1       0.795   3.006  19.469  1.00  0.00    -0.362 N
ATOM     17  H2  UNL     1       1.477   3.398  20.118  1.00  0.00     0.162 HD
BRANCH  16  18
HETATM   18  C11 UNL     1       0.927   3.399  18.155  1.00  0.00     0.175 C
HETATM   19  S1  UNL     1      -0.068   4.527  17.523  1.00  0.00    -0.041 SA
BRANCH  18  20
HETATM   20  N3  UNL     1       1.910   2.860  17.292  1.00  0.00    -0.299 N
ATOM     21  H3  UNL     1       1.814   3.007  16.287  1.00  0.00     0.171 HD
BRANCH  20  22
HETATM   22  C12 UNL     1       2.926   2.189  17.730  1.00  0.00     0.230 A
HETATM   23  N4  UNL     1       3.438   1.127  17.087  1.00  0.00    -0.330 N
HETATM   24  C13 UNL     1       4.488   0.667  17.816  1.00  0.00     0.124 A
ATOM     25  H4  UNL     1       3.100   0.736  16.207  1.00  0.00     0.168 HD
HETATM   26  C14 UNL     1       4.580   1.490  18.912  1.00  0.00     0.068 A
HETATM   27  C15 UNL     1       5.626   1.294  19.958  1.00  0.00     0.078 C
HETATM   28  O1  UNL     1       3.633   2.368  18.806  1.00  0.00    -0.283 OA
ENDBRANCH  20  22
ENDBRANCH  18  20
ENDBRANCH  16  18
ENDBRANCH   1  16
BRANCH   1  29
HETATM   29  C16 UNL     1       0.405   0.761  20.364  1.00  0.00     0.008 C
BRANCH  29  30
HETATM   30  C17 UNL     1      -0.266  -0.009  21.456  1.00  0.00     0.002 C
HETATM   31  C18 UNL     1       0.836  -0.458  22.431  1.00  0.00     0.005 C
ENDBRANCH  29  30
BRANCH  29  32
HETATM   32  C19 UNL     1       0.862  -0.030  19.192  1.00  0.00     0.002 C
HETATM   33  C20 UNL     1      -0.054  -0.265  18.075  1.00  0.00     0.005 C
ENDBRANCH  29  32
ENDBRANCH   1  29
TORSDOF 9
ENDMDL