MODEL 4
REMARK VINA RESULT: -6.622997756      1.941      3.334
REMARK  7 active torsions:
REMARK  status: ('A' for Active; 'I' for Inactive)
REMARK    1  A    between atoms: C11_14  and  C12_15
REMARK    2  A    between atoms: C12_15  and  C13_16
REMARK    3  A    between atoms: C13_16  and  C14_17
REMARK    4  A    between atoms: C14_17  and  C15_18
REMARK    5  A    between atoms: C15_18  and  C16_19
REMARK    6  A    between atoms: C16_19  and  C17_20
REMARK    7  A    between atoms: C17_20  and  C18_21
ROOT
HETATM    1  C18 UNL     1       0.993   1.631  18.305  1.00  0.00     0.124 C
HETATM    2  C19 UNL     1       1.122   1.698  16.848  1.00  0.00     0.059 C
HETATM    3  N2  UNL     1       1.207   1.741  15.707  1.00  0.00    -0.197 NA
ENDROOT
BRANCH   1   4
HETATM    4  C17 UNL     1       0.674   0.178  18.671  1.00  0.00     0.014 C
BRANCH   4   5
HETATM    5  C16 UNL     1       1.847  -0.343  19.437  1.00  0.00     0.001 C
BRANCH   5   6
HETATM    6  C15 UNL     1       1.945   0.212  20.832  1.00  0.00     0.000 C
BRANCH   6   7
HETATM    7  C14 UNL     1       1.021  -0.477  21.800  1.00  0.00     0.000 C
BRANCH   7   8
HETATM    8  C13 UNL     1      -0.053   0.400  22.344  1.00  0.00     0.002 C
BRANCH   8   9
HETATM    9  C12 UNL     1       0.077   1.840  21.949  1.00  0.00     0.024 C
BRANCH   9  10
HETATM   10  C11 UNL     1      -1.142   2.664  22.365  1.00  0.00     0.077 C
HETATM   11  C10 UNL     1      -2.316   2.106  21.696  1.00  0.00     0.030 C
HETATM   12  C9  UNL     1      -3.581   2.922  21.796  1.00  0.00    -0.001 C
HETATM   13  C8  UNL     1      -4.405   2.392  20.675  1.00  0.00     0.007 C
HETATM   14  C25 UNL     1      -3.404   4.412  21.906  1.00  0.00    -0.006 C
HETATM   15  C7  UNL     1      -5.412   3.254  20.060  1.00  0.00     0.026 C
HETATM   16  C6  UNL     1      -5.112   4.715  20.053  1.00  0.00     0.093 C
HETATM   17  C2  UNL     1      -4.623   5.065  21.451  1.00  0.00    -0.013 C
HETATM   18  N1  UNL     1      -6.373   5.350  19.725  1.00  0.00    -0.356 N
HETATM   19  C1  UNL     1      -5.789   4.612  22.326  1.00  0.00     0.018 C
HETATM   20  C3  UNL     1      -4.718   6.551  21.567  1.00  0.00     0.021 C
HETATM   21  C4  UNL     1      -6.112   7.116  21.390  1.00  0.00     0.103 C
HETATM   22  C5  UNL     1      -6.687   6.659  20.122  1.00  0.00     0.217 C
HETATM   23  O1  UNL     1      -7.410   7.404  19.445  1.00  0.00    -0.274 OA
ATOM     24  H1  UNL     1      -7.060   4.824  19.186  1.00  0.00     0.162 HD
HETATM   25  C20 UNL     1      -2.044   4.771  21.425  1.00  0.00     0.034 C
HETATM   26  C26 UNL     1      -3.344   4.720  23.421  1.00  0.00     0.019 C
HETATM   27  N3  UNL     1      -1.034   4.029  22.223  1.00  0.00    -0.408 N
HETATM   28  C21 UNL     1      -1.711   4.456  20.003  1.00  0.00     0.031 C
HETATM   29  C24 UNL     1      -1.546   6.168  21.605  1.00  0.00     0.031 C
ATOM     30  H3  UNL     1      -0.262   4.529  22.664  1.00  0.00     0.154 HD
HETATM   31  C22 UNL     1      -1.424   5.729  19.246  1.00  0.00     0.002 C
HETATM   32  C23 UNL     1      -1.077   6.711  20.275  1.00  0.00     0.002 C
ENDBRANCH   9  10
ENDBRANCH   8   9
ENDBRANCH   7   8
ENDBRANCH   6   7
ENDBRANCH   5   6
ENDBRANCH   4   5
ENDBRANCH   1   4
TORSDOF 7
ENDMDL