MODEL 1
REMARK VINA RESULT: -6.642905586      0.000      0.000
REMARK  6 active torsions:
REMARK  status: ('A' for Active; 'I' for Inactive)
REMARK    1  A    between atoms: C2_2  and  C3_3
REMARK    2  A    between atoms: C3_3  and  N1_4
REMARK       I    between atoms: N1_4  and  C4_6
REMARK       I    between atoms: C4_6  and  N2_8
REMARK    3  A    between atoms: N2_8  and  C5_10
REMARK       I    between atoms: N3_24  and  C19_25
REMARK    4  A    between atoms: C19_25  and  C20_27
REMARK    5  A    between atoms: C20_27  and  C21_28
REMARK    6  A    between atoms: C21_28  and  C22_29
ROOT
HETATM    1  C5  UNL     1      -3.647   5.630  23.729  1.00  0.00     0.002 C
HETATM    2  C6  UNL     1      -4.449   4.393  23.555  1.00  0.00     0.059 C
HETATM    3  C7  UNL     1      -5.155   4.339  22.242  1.00  0.00     0.006 C
HETATM    4  C8  UNL     1      -4.190   4.408  21.063  1.00  0.00     0.021 C
HETATM    5  C9  UNL     1      -5.012   5.143  20.072  1.00  0.00     0.021 C
HETATM    6  C10 UNL     1      -5.670   6.241  20.954  1.00  0.00    -0.019 C
HETATM    7  C11 UNL     1      -6.756   6.908  20.086  1.00  0.00     0.020 C
HETATM    8  C12 UNL     1      -4.673   7.235  21.309  1.00  0.00    -0.020 C
HETATM    9  C13 UNL     1      -3.511   7.212  21.922  1.00  0.00    -0.017 C
HETATM   10  C14 UNL     1      -2.846   5.959  22.489  1.00  0.00     0.082 C
HETATM   11  C15 UNL     1      -2.837   4.947  21.391  1.00  0.00     0.051 C
HETATM   12  C16 UNL     1      -2.268   5.683  20.162  1.00  0.00     0.034 C
HETATM   13  C17 UNL     1      -2.044   4.577  19.199  1.00  0.00     0.022 C
HETATM   14  C18 UNL     1      -1.838   3.372  20.077  1.00  0.00     0.127 C
HETATM   15  N3  UNL     1      -1.789   3.950  21.451  1.00  0.00    -0.341 N
HETATM   16  C19 UNL     1      -0.826   3.490  22.339  1.00  0.00     0.220 C
HETATM   17  O2  UNL     1      -0.617   3.953  23.452  1.00  0.00    -0.273 OA
HETATM   18  C24 UNL     1      -6.231   5.341  21.996  1.00  0.00    -0.033 C
HETATM   19  C25 UNL     1      -7.396   4.572  21.311  1.00  0.00     0.016 C
HETATM   20  C26 UNL     1      -6.847   6.019  23.151  1.00  0.00     0.016 C
ENDROOT
BRANCH   1  21
HETATM   21  N2  UNL     1      -2.995   5.757  24.986  1.00  0.00    -0.316 N
HETATM   22  C4  UNL     1      -2.965   6.971  25.712  1.00  0.00     0.320 C
HETATM   23  N1  UNL     1      -2.314   7.101  26.969  1.00  0.00    -0.339 N
HETATM   24  O1  UNL     1      -3.539   7.970  25.218  1.00  0.00    -0.247 OA
ATOM     25  H1  UNL     1      -1.845   6.291  27.375  1.00  0.00     0.164 HD
ATOM     26  H2  UNL     1      -2.530   4.940  25.380  1.00  0.00     0.170 HD
BRANCH  23  27
HETATM   27  C3  UNL     1      -2.304   8.365  27.688  1.00  0.00     0.150 C
BRANCH  27  28
HETATM   28  C2  UNL     1      -2.721   8.213  29.091  1.00  0.00    -0.018 C
HETATM   29  C1  UNL     1      -2.146   7.322  29.881  1.00  0.00     0.008 C
ENDBRANCH  27  28
ENDBRANCH  23  27
ENDBRANCH   1  21
BRANCH  16  30
HETATM   30  C20 UNL     1       0.056   2.339  21.964  1.00  0.00     0.103 C
BRANCH  30  31
HETATM   31  C21 UNL     1      -0.580   1.040  22.326  1.00  0.00     0.009 C
BRANCH  31  32
HETATM   32  C22 UNL     1       0.350  -0.126  22.252  1.00  0.00    -0.004 C
HETATM   33  C23 UNL     1       1.450   0.041  21.254  1.00  0.00     0.005 C
ENDBRANCH  31  32
ENDBRANCH  30  31
ENDBRANCH  16  30
TORSDOF 6
ENDMDL