MODEL 5
REMARK VINA RESULT: -6.219122467      2.797      6.824
REMARK  8 active torsions:
REMARK  status: ('A' for Active; 'I' for Inactive)
REMARK    1  A    between atoms: C14_14  and  C16_16
REMARK    2  A    between atoms: C16_16  and  N1_18
REMARK       I    between atoms: N1_18  and  C18_20
REMARK    3  A    between atoms: C18_20  and  C19_22
REMARK    4  A    between atoms: C19_22  and  C20_23
REMARK    5  A    between atoms: C23_26  and  N2_27
REMARK    6  A    between atoms: N2_27  and  C26_30
REMARK    7  A    between atoms: C26_30  and  C27_31
REMARK    8  A    between atoms: C27_31  and  O2_32
ROOT
HETATM    1  C1  UNL     1       2.747   2.639  19.381  1.00  0.00     0.014 C
HETATM    2  C2  UNL     1       1.662   1.968  19.153  1.00  0.00    -0.084 C
HETATM    3  C3  UNL     1       1.636   0.585  18.542  1.00  0.00     0.034 C
HETATM    4  C4  UNL     1       0.766  -0.084  19.620  1.00  0.00     0.010 C
HETATM    5  C5  UNL     1      -0.295   0.975  19.934  1.00  0.00     0.003 C
HETATM    6  C6  UNL     1       0.215   2.252  19.370  1.00  0.00     0.025 C
HETATM    7  C7  UNL     1       0.036   3.479  20.109  1.00  0.00     0.025 C
HETATM    8  C8  UNL     1       0.098   3.199  21.587  1.00  0.00     0.013 C
HETATM    9  C9  UNL     1      -0.803   2.187  22.108  1.00  0.00    -0.000 C
HETATM   10  C10 UNL     1      -2.221   2.229  22.005  1.00  0.00     0.005 C
HETATM   11  C11 UNL     1      -2.189   0.757  21.554  1.00  0.00     0.016 C
HETATM   12  C12 UNL     1      -0.677   0.902  21.340  1.00  0.00    -0.035 C
HETATM   13  C13 UNL     1      -0.000  -0.235  22.114  1.00  0.00     0.016 C
HETATM   14  C14 UNL     1      -3.008   3.116  21.122  1.00  0.00     0.000 C
HETATM   15  C15 UNL     1      -4.142   2.199  20.593  1.00  0.00     0.022 C
HETATM   16  C22 UNL     1      -2.391   3.607  19.873  1.00  0.00     0.049 C
HETATM   17  C23 UNL     1      -1.154   4.362  19.867  1.00  0.00     0.195 C
ENDROOT
BRANCH  14  18
HETATM   18  C16 UNL     1      -3.793   4.129  21.925  1.00  0.00    -0.006 C
HETATM   19  C17 UNL     1      -5.281   4.050  21.840  1.00  0.00     0.064 C
BRANCH  18  20
HETATM   20  N1  UNL     1      -3.342   4.363  23.248  1.00  0.00    -0.334 N
HETATM   21  C18 UNL     1      -2.679   5.581  23.579  1.00  0.00     0.221 C
HETATM   22  O1  UNL     1      -2.529   6.419  22.663  1.00  0.00    -0.273 OA
ATOM     23  H1  UNL     1      -3.494   3.657  23.968  1.00  0.00     0.168 HD
BRANCH  21  24
HETATM   24  C19 UNL     1      -2.183   5.861  24.942  1.00  0.00     0.103 C
BRANCH  24  25
HETATM   25  C20 UNL     1      -2.932   6.983  25.612  1.00  0.00     0.005 C
HETATM   26  C21 UNL     1      -2.257   7.447  26.869  1.00  0.00     0.005 C
ENDBRANCH  24  25
ENDBRANCH  21  24
ENDBRANCH  18  20
ENDBRANCH  14  18
BRANCH  17  27
HETATM   27  N2  UNL     1      -0.994   5.277  18.762  1.00  0.00    -0.068 N
HETATM   28  C24 UNL     1      -0.679   6.584  19.292  1.00  0.00     0.272 C
HETATM   29  C25 UNL     1      -2.141   5.425  17.938  1.00  0.00     0.272 C
BRANCH  27  30
HETATM   30  C26 UNL     1       0.108   4.860  17.915  1.00  0.00     0.262 C
BRANCH  30  31
HETATM   31  C27 UNL     1      -0.312   4.576  16.490  1.00  0.00     0.192 C
BRANCH  31  32
HETATM   32  O2  UNL     1       0.066   3.239  16.175  1.00  0.00    -0.399 OA
ATOM     33  H2  UNL     1      -0.572   2.888  15.565  1.00  0.00     0.209 HD
ENDBRANCH  31  32
ENDBRANCH  30  31
ENDBRANCH  27  30
ENDBRANCH  17  27
TORSDOF 8
ENDMDL