MODEL 2
REMARK VINA RESULT: -7.281964506      0.563      1.508
REMARK  7 active torsions:
REMARK  status: ('A' for Active; 'I' for Inactive)
REMARK    1  A    between atoms: C9_9  and  C10_10
REMARK       I    between atoms: C10_10  and  N1_12
REMARK    2  A    between atoms: N1_12  and  C11_14
REMARK    3  A    between atoms: C11_14  and  C12_15
REMARK    4  A    between atoms: C12_15  and  C13_16
REMARK    5  A    between atoms: C13_16  and  C14_17
REMARK    6  A    between atoms: C14_17  and  N2_18
REMARK       I    between atoms: N2_18  and  C15_20
REMARK    7  A    between atoms: C15_20  and  C16_22
ROOT
HETATM    1  C12 UNL     1       1.193  -0.471  21.998  1.00  0.00     0.021 C
ENDROOT
BRANCH   1   2
HETATM    2  C11 UNL     1      -0.303  -0.381  21.886  1.00  0.00     0.122 C
BRANCH   2   3
HETATM    3  N1  UNL     1      -0.713   0.934  22.326  1.00  0.00    -0.360 N
HETATM    4  C10 UNL     1      -0.805   2.040  21.433  1.00  0.00     0.226 C
HETATM    5  O1  UNL     1      -0.519   1.851  20.229  1.00  0.00    -0.273 OA
ATOM      6  H1  UNL     1      -0.943   1.075  23.310  1.00  0.00     0.162 HD
BRANCH   4   7
HETATM    7  C9  UNL     1      -1.221   3.386  21.870  1.00  0.00     0.042 C
HETATM    8  C8  UNL     1      -0.532   3.739  23.146  1.00  0.00     0.024 C
HETATM    9  C7  UNL     1      -0.977   5.092  23.666  1.00  0.00    -0.009 C
HETATM   10  C2  UNL     1      -2.460   5.038  23.891  1.00  0.00    -0.010 C
HETATM   11  C6  UNL     1      -0.589   6.120  22.632  1.00  0.00     0.010 C
HETATM   12  C1  UNL     1      -3.012   6.226  24.608  1.00  0.00     0.011 C
HETATM   13  C3  UNL     1      -3.132   4.784  22.567  1.00  0.00    -0.009 C
HETATM   14  C4  UNL     1      -2.758   5.846  21.565  1.00  0.00     0.010 C
HETATM   15  C27 UNL     1      -2.724   3.449  22.033  1.00  0.00     0.024 C
HETATM   16  C5  UNL     1      -1.256   5.778  21.333  1.00  0.00    -0.013 C
HETATM   17  C26 UNL     1      -0.846   4.426  20.834  1.00  0.00     0.024 C
ENDBRANCH   4   7
ENDBRANCH   2   3
ENDBRANCH   1   2
BRANCH   1  18
HETATM   18  C13 UNL     1       1.888  -0.480  20.654  1.00  0.00     0.021 C
BRANCH  18  19
HETATM   19  C14 UNL     1       2.856   0.643  20.495  1.00  0.00     0.122 C
BRANCH  19  20
HETATM   20  N2  UNL     1       2.606   1.365  19.268  1.00  0.00    -0.360 N
HETATM   21  C15 UNL     1       3.296   1.157  18.048  1.00  0.00     0.226 C
HETATM   22  O2  UNL     1       4.213   0.309  17.904  1.00  0.00    -0.273 OA
ATOM     23  H2  UNL     1       1.878   2.079  19.282  1.00  0.00     0.162 HD
BRANCH  21  24
HETATM   24  C16 UNL     1       2.929   1.973  16.864  1.00  0.00     0.042 C
HETATM   25  C17 UNL     1       3.778   1.488  15.711  1.00  0.00     0.024 C
HETATM   26  C18 UNL     1       3.454   2.242  14.437  1.00  0.00    -0.013 C
HETATM   27  C19 UNL     1       1.998   2.000  14.135  1.00  0.00     0.009 C
HETATM   28  C23 UNL     1       3.761   3.696  14.668  1.00  0.00     0.009 C
HETATM   29  C20 UNL     1       1.186   2.574  15.258  1.00  0.00    -0.013 C
HETATM   30  C21 UNL     1       1.484   4.039  15.500  1.00  0.00     0.009 C
HETATM   31  C25 UNL     1       1.465   1.822  16.517  1.00  0.00     0.024 C
HETATM   32  C22 UNL     1       2.931   4.183  15.843  1.00  0.00    -0.013 C
HETATM   33  C24 UNL     1       3.256   3.420  17.091  1.00  0.00     0.024 C
ENDBRANCH  21  24
ENDBRANCH  19  20
ENDBRANCH  18  19
ENDBRANCH   1  18
TORSDOF 7
ENDMDL