MODEL 1
REMARK VINA RESULT: -7.277005812      0.000      0.000
REMARK  7 active torsions:
REMARK  status: ('A' for Active; 'I' for Inactive)
REMARK    1  A    between atoms: C2_2  and  N1_3
REMARK       I    between atoms: N1_3  and  C3_4
REMARK    2  A    between atoms: N1_3  and  C9_11
REMARK    3  A    between atoms: C3_4  and  C4_6
REMARK    4  A    between atoms: C12_14  and  N2_15
REMARK       I    between atoms: N2_15  and  C13_17
REMARK       I    between atoms: C13_17  and  N3_19
REMARK    5  A    between atoms: N3_19  and  C14_21
REMARK    6  A    between atoms: C14_21  and  C15_22
REMARK    7  A    between atoms: C15_22  and  C16_23
ROOT
HETATM    1  N2  UNL     1      -1.548   1.553  20.401  1.00  0.00    -0.339 N
ATOM      2  H2  UNL     1      -1.943   1.385  19.476  1.00  0.00     0.164 HD
HETATM    3  C13 UNL     1      -2.345   2.212  21.361  1.00  0.00     0.316 C
HETATM    4  O2  UNL     1      -1.927   2.458  22.536  1.00  0.00    -0.247 OA
HETATM    5  N3  UNL     1      -3.649   2.619  21.027  1.00  0.00    -0.343 N
ATOM      6  H3  UNL     1      -4.018   2.439  20.094  1.00  0.00     0.164 HD
ENDROOT
BRANCH   1   7
HETATM    7  C12 UNL     1      -0.199   1.102  20.663  1.00  0.00     0.086 C
HETATM    8  C11 UNL     1       0.218  -0.108  19.907  1.00  0.00     0.027 C
HETATM    9  C10 UNL     1       0.568   0.108  18.480  1.00  0.00     0.027 C
HETATM   10  C9  UNL     1       0.823   1.510  18.050  1.00  0.00     0.087 C
HETATM   11  C26 UNL     1       1.222   2.484  19.095  1.00  0.00     0.027 C
HETATM   12  C25 UNL     1       0.800   2.187  20.488  1.00  0.00     0.027 C
BRANCH  10  13
HETATM   13  N1  UNL     1       1.771   1.573  16.958  1.00  0.00    -0.347 N
HETATM   14  C3  UNL     1       3.111   1.177  17.072  1.00  0.00     0.225 C
HETATM   15  O1  UNL     1       3.823   1.288  15.998  1.00  0.00    -0.273 OA
BRANCH  13  16
HETATM   16  C2  UNL     1       1.299   2.072  15.676  1.00  0.00     0.122 C
HETATM   17  C1  UNL     1       1.133   3.575  15.690  1.00  0.00     0.026 C
ENDBRANCH  13  16
BRANCH  14  18
HETATM   18  C4  UNL     1       3.775   0.651  18.297  1.00  0.00     0.086 A
HETATM   19  C5  UNL     1       5.279   0.458  18.091  1.00  0.00     0.024 A
HETATM   20  C6  UNL     1       4.764   1.469  19.038  1.00  0.00    -0.035 A
HETATM   21  C7  UNL     1       4.941   1.061  20.509  1.00  0.00     0.015 C
HETATM   22  C8  UNL     1       4.876   2.935  18.780  1.00  0.00     0.015 C
ENDBRANCH  14  18
ENDBRANCH  10  13
ENDBRANCH   1   7
BRANCH   5  23
HETATM   23  C14 UNL     1      -4.463   3.292  22.011  1.00  0.00     0.125 C
BRANCH  23  24
HETATM   24  C15 UNL     1      -4.532   4.748  21.704  1.00  0.00     0.029 C
BRANCH  24  25
HETATM   25  C16 UNL     1      -3.955   5.580  22.801  1.00  0.00    -0.035 C
HETATM   26  C17 UNL     1      -4.782   6.855  23.030  1.00  0.00     0.014 C
HETATM   27  C18 UNL     1      -3.702   7.737  23.671  1.00  0.00    -0.013 C
HETATM   28  C19 UNL     1      -3.349   7.125  24.989  1.00  0.00     0.009 C
HETATM   29  C23 UNL     1      -2.589   7.570  22.638  1.00  0.00     0.010 C
HETATM   30  C20 UNL     1      -2.862   5.710  24.853  1.00  0.00    -0.013 C
HETATM   31  C21 UNL     1      -1.753   5.606  23.796  1.00  0.00     0.010 C
HETATM   32  C24 UNL     1      -3.948   4.884  24.144  1.00  0.00     0.014 C
HETATM   33  C22 UNL     1      -2.546   6.038  22.556  1.00  0.00    -0.005 C
ENDBRANCH  24  25
ENDBRANCH  23  24
ENDBRANCH   5  23
TORSDOF 7
ENDMDL