MODEL 3
REMARK VINA RESULT: -4.155439140      2.952      3.763
REMARK  1 active torsions:
REMARK  status: ('A' for Active; 'I' for Inactive)
REMARK    1  A    between atoms: C5_7  and  C6_8
ROOT
HETATM    1  O1  UNL     1       9.400  -1.661  10.004  1.00  0.00    -0.297 OA
HETATM    2  C1  UNL     1       8.286  -1.284   9.750  1.00  0.00     0.141 C
HETATM    3  C2  UNL     1       7.376  -0.900  10.847  1.00  0.00     0.080 C
HETATM    4  C3  UNL     1       7.261   0.610  10.830  1.00  0.00     0.018 C
HETATM    5  C4  UNL     1       6.495   1.045   9.599  1.00  0.00     0.075 C
HETATM    6  S1  UNL     1       7.339   0.543   8.070  1.00  0.00    -0.156 SA
HETATM    7  C5  UNL     1       7.828  -1.206   8.350  1.00  0.00     0.126 C
ENDROOT
BRANCH   7   8
HETATM    8  C6  UNL     1       8.946  -1.597   7.440  1.00  0.00     0.109 C
HETATM    9  S2  UNL     1       8.700  -0.975   5.754  1.00  0.00    -0.096 SA
ENDBRANCH   7   8
TORSDOF 1
ENDMDL