MODEL 4
REMARK VINA RESULT: -4.057179967      2.243      2.867
REMARK  2 active torsions:
REMARK  status: ('A' for Active; 'I' for Inactive)
REMARK    1  A    between atoms: C2_2  and  O1_3
REMARK    2  A    between atoms: C2_2  and  C3_5
ROOT
HETATM    1  C3  UNL     1       7.401   0.686  10.969  1.00  0.00     0.168 C
HETATM    2  S1  UNL     1       6.646   1.753  12.250  1.00  0.00    -0.148 SA
HETATM    3  C4  UNL     1       5.379   0.648  12.937  1.00  0.00     0.088 C
HETATM    4  C5  UNL     1       6.161  -0.639  13.092  1.00  0.00     0.120 C
HETATM    5  S2  UNL     1       6.731  -0.917  11.397  1.00  0.00     0.032 S
HETATM    6  O2  UNL     1       7.731  -2.028  11.308  1.00  0.00    -0.257 OA
ENDROOT
BRANCH   1   7
HETATM    7  C2  UNL     1       6.852   1.167   9.622  1.00  0.00     0.140 C
HETATM    8  C1  UNL     1       6.198   0.040   8.869  1.00  0.00     0.041 C
BRANCH   7   9
HETATM    9  O1  UNL     1       5.925   2.166   9.889  1.00  0.00    -0.394 OA
ATOM     10  H1  UNL     1       5.103   1.783  10.175  1.00  0.00     0.210 HD
ENDBRANCH   7   9
ENDBRANCH   1   7
TORSDOF 2
ENDMDL