MODEL 3
REMARK VINA RESULT: -3.656268741      6.170      6.961
REMARK  1 active torsions:
REMARK  status: ('A' for Active; 'I' for Inactive)
REMARK    1  A    between atoms: C2_2  and  C3_4
ROOT
HETATM    1  C3  UNL     1       8.170  -0.064   7.270  1.00  0.00     0.172 C
HETATM    2  N1  UNL     1       7.426   1.196   7.280  1.00  0.00    -0.155 NA
HETATM    3  S1  UNL     1       5.818   0.794   7.953  1.00  0.00     0.009 SA
HETATM    4  S2  UNL     1       6.610  -0.687   9.330  1.00  0.00    -0.073 SA
HETATM    5  C4  UNL     1       8.326  -0.487   8.691  1.00  0.00     0.083 C
HETATM    6  C5  UNL     1       9.032  -1.762   8.878  1.00  0.00     0.024 C
ENDROOT
BRANCH   1   7
HETATM    7  C2  UNL     1       7.536  -0.983   6.348  1.00  0.00     0.144 C
HETATM    8  C1  UNL     1       7.567  -2.447   6.530  1.00  0.00     0.093 C
HETATM    9  O1  UNL     1       6.943  -0.570   5.367  1.00  0.00    -0.297 OA
ENDBRANCH   1   7
TORSDOF 1
ENDMDL