MODEL 2
REMARK VINA RESULT: -5.675103688      2.066      2.970
REMARK  1 active torsions:
REMARK  status: ('A' for Active; 'I' for Inactive)
REMARK    1  A    between atoms: C2_2  and  C3_4
ROOT
HETATM    1  C3  UNL     1       7.082   0.979  10.876  1.00  0.00     0.084 C
HETATM    2  C4  UNL     1       6.550  -0.418  11.186  1.00  0.00     0.014 C
HETATM    3  C5  UNL     1       7.621  -1.416  10.731  1.00  0.00     0.001 C
HETATM    4  C6  UNL     1       8.440  -0.812   9.599  1.00  0.00     0.002 C
HETATM    5  C7  UNL     1       7.605   0.040   8.695  1.00  0.00     0.032 C
HETATM    6  C8  UNL     1       6.958   1.204   9.434  1.00  0.00     0.090 C
HETATM    7  C9  UNL     1       7.272   2.522   8.823  1.00  0.00     0.226 C
HETATM    8  O2  UNL     1       6.411   2.042   7.799  1.00  0.00    -0.283 OA
HETATM    9  N1  UNL     1       5.695   1.489   8.840  1.00  0.00    -0.087 NA
ENDROOT
BRANCH   1  10
HETATM   10  C2  UNL     1       6.602   1.985  11.803  1.00  0.00     0.129 C
HETATM   11  C1  UNL     1       7.563   2.917  12.447  1.00  0.00     0.091 C
HETATM   12  O1  UNL     1       5.439   2.104  12.082  1.00  0.00    -0.298 OA
ENDBRANCH   1  10
TORSDOF 1
ENDMDL