MODEL 5
REMARK VINA RESULT: -4.615071948      4.024      5.815
REMARK  2 active torsions:
REMARK  status: ('A' for Active; 'I' for Inactive)
REMARK    1  A    between atoms: O1_2  and  C2_3
REMARK    2  A    between atoms: C2_3  and  C3_5
ROOT
HETATM    1  C3  UNL     1       6.632   2.362  10.575  1.00  0.00     0.118 C
HETATM    2  C4  UNL     1       6.943   1.230   9.962  1.00  0.00     0.071 C
HETATM    3  N1  UNL     1       7.273   0.966   8.605  1.00  0.00    -0.383 N
ATOM      4  H1  UNL     1       7.717   1.650   7.994  1.00  0.00     0.160 HD
HETATM    5  C5  UNL     1       6.921  -0.350   8.183  1.00  0.00     0.135 C
HETATM    6  C6  UNL     1       7.446  -1.343   9.227  1.00  0.00     0.067 C
HETATM    7  C7  UNL     1       8.921  -1.455   9.041  1.00  0.00     0.023 C
HETATM    8  S1  UNL     1       7.037  -0.395  10.750  1.00  0.00    -0.106 SA
ENDROOT
BRANCH   1   9
HETATM    9  C2  UNL     1       6.332   2.361  11.995  1.00  0.00     0.285 C
HETATM   10  O2  UNL     1       7.242   2.545  12.834  1.00  0.00    -0.260 OA
BRANCH   9  11
HETATM   11  O1  UNL     1       5.046   2.157  12.468  1.00  0.00    -0.323 OA
HETATM   12  C1  UNL     1       4.791   1.178  13.441  1.00  0.00     0.213 C
ENDBRANCH   9  11
ENDBRANCH   1   9
TORSDOF 2
ENDMDL