MODEL 1
REMARK VINA RESULT: -5.676910942      0.000      0.000
REMARK  2 active torsions:
REMARK  status: ('A' for Active; 'I' for Inactive)
REMARK    1  A    between atoms: N1_4  and  N2_6
REMARK    2  A    between atoms: C8_12  and  O1_13
ROOT
HETATM    1  N2  UNL     1       5.893  -1.376  12.951  1.00  0.00    -0.309 N
ATOM      2  H2  UNL     1       6.031  -2.378  13.082  1.00  0.00     0.186 HD
HETATM    3  C4  UNL     1       6.472  -0.757  11.986  1.00  0.00     0.006 C
HETATM    4  C5  UNL     1       6.260   0.676  11.816  1.00  0.00     0.054 C
HETATM    5  C6  UNL     1       6.451   1.155  10.399  1.00  0.00     0.008 C
HETATM    6  C7  UNL     1       7.618   0.484   9.723  1.00  0.00     0.032 C
HETATM    7  C8  UNL     1       7.515  -1.008   9.739  1.00  0.00     0.123 C
HETATM    8  C9  UNL     1       7.329  -1.593  11.106  1.00  0.00     0.085 C
ENDROOT
BRANCH   1   9
HETATM    9  N1  UNL     1       5.074  -0.654  13.815  1.00  0.00    -0.310 N
HETATM   10  C2  UNL     1       5.331  -0.608  15.058  1.00  0.00    -0.004 C
HETATM   11  C1  UNL     1       6.495  -1.312  15.616  1.00  0.00     0.064 C
HETATM   12  C3  UNL     1       4.425   0.176  15.932  1.00  0.00     0.064 C
ATOM     13  H1  UNL     1       4.262  -0.158  13.447  1.00  0.00     0.186 HD
ENDBRANCH   1   9
BRANCH   7  14
HETATM   14  O1  UNL     1       6.442  -1.428   8.936  1.00  0.00    -0.395 OA
ATOM     15  H1  UNL     1       6.652  -2.251   8.512  1.00  0.00     0.210 HD
ENDBRANCH   7  14
TORSDOF 2
ENDMDL