MODEL 3
REMARK VINA RESULT: -4.323206400      2.276      2.865
REMARK  1 active torsions:
REMARK  status: ('A' for Active; 'I' for Inactive)
REMARK    1  A    between atoms: C2_3  and  C3_4
ROOT
HETATM    1  N1  UNL     1       6.717   1.662   6.483  1.00  0.00    -0.194 NA
HETATM    2  C1  UNL     1       6.734   0.613   6.961  1.00  0.00     0.103 C
HETATM    3  C2  UNL     1       6.753  -0.685   7.575  1.00  0.00     0.233 C
HETATM    4  S1  UNL     1       8.393  -1.416   7.338  1.00  0.00    -0.121 SA
HETATM    5  C4  UNL     1       9.123  -1.629   8.932  1.00  0.00     0.087 C
HETATM    6  C5  UNL     1       8.168  -1.344  10.007  1.00  0.00     0.087 C
HETATM    7  S2  UNL     1       6.685  -0.615   9.383  1.00  0.00    -0.121 SA
ENDROOT
BRANCH   3   8
HETATM    8  C3  UNL     1       5.718  -1.588   7.026  1.00  0.00     0.218 C
HETATM    9  O1  UNL     1       4.519  -1.225   7.135  1.00  0.00    -0.645 OA
HETATM   10  O2  UNL     1       5.984  -2.787   6.411  1.00  0.00    -0.645 OA
ENDBRANCH   3   8
TORSDOF 1
ENDMDL