MODEL 5
REMARK VINA RESULT: -4.469128441      2.208      2.917
REMARK  1 active torsions:
REMARK  status: ('A' for Active; 'I' for Inactive)
REMARK    1  A    between atoms: C1_2  and  C2_4
ROOT
HETATM    1  C2  UNL     1       7.279   0.635  11.220  1.00  0.00     0.110 C
HETATM    2  C3  UNL     1       6.900   1.445  10.260  1.00  0.00     0.043 C
HETATM    3  S1  UNL     1       6.597   0.989   8.565  1.00  0.00    -0.122 SA
HETATM    4  C4  UNL     1       6.647   2.522   7.679  1.00  0.00     0.090 C
HETATM    5  C5  UNL     1       6.794   3.669   8.581  1.00  0.00     0.090 C
HETATM    6  S2  UNL     1       6.563   3.195  10.273  1.00  0.00    -0.122 SA
ENDROOT
BRANCH   1   7
HETATM    7  C1  UNL     1       7.489  -0.775  10.945  1.00  0.00     0.200 C
HETATM    8  O1  UNL     1       6.617  -1.602  11.276  1.00  0.00    -0.644 OA
HETATM    9  O2  UNL     1       8.654  -1.242  10.311  1.00  0.00    -0.644 OA
ENDBRANCH   1   7
TORSDOF 1
ENDMDL