MODEL 2
REMARK VINA RESULT: -4.470317937      2.881      5.401
REMARK  1 active torsions:
REMARK  status: ('A' for Active; 'I' for Inactive)
REMARK       I    between atoms: C2_2  and  N1_4
REMARK    1  A    between atoms: N1_4  and  N2_6
ROOT
HETATM    1  N2  UNL     1       7.693   0.401   9.410  1.00  0.00    -0.286 N
ATOM      2  H2  UNL     1       7.798   1.349   9.051  1.00  0.00     0.188 HD
HETATM    3  C3  UNL     1       7.116   0.234  10.531  1.00  0.00     0.122 C
HETATM    4  S1  UNL     1       6.746  -1.220  11.477  1.00  0.00    -0.103 SA
HETATM    5  C4  UNL     1       6.186  -0.592  13.057  1.00  0.00     0.092 C
HETATM    6  C5  UNL     1       5.648   0.766  12.904  1.00  0.00     0.092 C
HETATM    7  S2  UNL     1       6.472   1.584  11.527  1.00  0.00    -0.103 SA
ENDROOT
BRANCH   1   8
HETATM    8  N1  UNL     1       8.192  -0.668   8.648  1.00  0.00    -0.269 N
HETATM    9  C2  UNL     1       8.258  -0.519   7.247  1.00  0.00     0.232 C
HETATM   10  C1  UNL     1       8.789  -1.655   6.418  1.00  0.00     0.119 C
HETATM   11  O1  UNL     1       7.876   0.549   6.724  1.00  0.00    -0.272 OA
ATOM     12  H1  UNL     1       8.499  -1.531   9.097  1.00  0.00     0.190 HD
ENDBRANCH   1   8
TORSDOF 1
ENDMDL