MODEL 2
REMARK VINA RESULT: -5.294628443      1.400      2.439
REMARK  3 active torsions:
REMARK  status: ('A' for Active; 'I' for Inactive)
REMARK    1  A    between atoms: C5_5  and  O1_6
REMARK    2  A    between atoms: O1_6  and  N1_7
REMARK    3  A    between atoms: C6_10  and  O4_11
ROOT
HETATM    1  C1  UNL     1       6.009   4.639   8.376  1.00  0.00     0.010 C
HETATM    2  C2  UNL     1       5.884   3.350   9.143  1.00  0.00    -0.016 C
HETATM    3  C3  UNL     1       5.981   2.129   8.292  1.00  0.00     0.007 C
HETATM    4  C4  UNL     1       7.023   1.193   8.839  1.00  0.00     0.038 C
HETATM    5  C5  UNL     1       6.768   0.914  10.306  1.00  0.00     0.187 C
HETATM    6  C6  UNL     1       6.702   2.191  11.119  1.00  0.00     0.150 C
HETATM    7  C7  UNL     1       6.949   3.379  10.236  1.00  0.00     0.038 C
ENDROOT
BRANCH   5   8
HETATM    8  O1  UNL     1       7.851   0.106  10.763  1.00  0.00    -0.213 OA
BRANCH   8   9
HETATM    9  N1  UNL     1       7.821  -1.259  10.747  1.00  0.00     0.005 N
HETATM   10  O2  UNL     1       6.829  -1.838  11.221  1.00  0.00    -0.511 OA
HETATM   11  O3  UNL     1       8.865  -1.969  10.217  1.00  0.00    -0.511 OA
ENDBRANCH   8   9
ENDBRANCH   5   8
BRANCH   6  12
HETATM   12  O4  UNL     1       5.449   2.336  11.692  1.00  0.00    -0.393 OA
ATOM     13  H4  UNL     1       5.447   3.058  12.309  1.00  0.00     0.210 HD
ENDBRANCH   6  12
TORSDOF 3
ENDMDL