MODEL 4
REMARK VINA RESULT: -6.166791640      0.955      1.358
REMARK  4 active torsions:
REMARK  status: ('A' for Active; 'I' for Inactive)
REMARK    1  A    between atoms: N1_7  and  C7_8
REMARK    2  A    between atoms: C7_8  and  C8_9
REMARK    3  A    between atoms: C8_9  and  N2_10
REMARK    4  A    between atoms: N2_10  and  C9_13
ROOT
HETATM    1  C8  UNL     1      64.985  35.794  24.841  1.00  0.00     0.277 C
ENDROOT
BRANCH   1   2
HETATM    2  C7  UNL     1      66.313  35.171  25.155  1.00  0.00     0.090 C
BRANCH   2   3
HETATM    3  N1  UNL     1      66.306  33.943  25.833  1.00  0.00    -0.368 N
HETATM    4  C2  UNL     1      67.482  33.223  26.036  1.00  0.00     0.084 C
HETATM    5  C1  UNL     1      68.343  33.686  27.186  1.00  0.00     0.033 C
HETATM    6  C3  UNL     1      67.148  31.766  26.294  1.00  0.00     0.025 C
HETATM    7  C4  UNL     1      66.259  31.604  27.473  1.00  0.00     0.007 C
HETATM    8  C5  UNL     1      65.276  32.709  27.704  1.00  0.00     0.045 C
HETATM    9  C6  UNL     1      65.145  33.659  26.559  1.00  0.00     0.063 C
ENDBRANCH   2   3
ENDBRANCH   1   2
BRANCH   1  10
HETATM   10  N2  UNL     1      64.912  36.329  23.506  1.00  0.00    -0.065 N
ATOM     11  H22 UNL     1      65.500  35.812  22.853  1.00  0.00     0.278 HD
ATOM     12  H21 UNL     1      64.009  36.146  23.067  1.00  0.00     0.278 HD
BRANCH  10  13
HETATM   13  C9  UNL     1      65.232  37.740  23.531  1.00  0.00     0.210 C
HETATM   14  C10 UNL     1      66.533  38.033  22.812  1.00  0.00     0.037 C
HETATM   15  C11 UNL     1      67.679  38.239  23.758  1.00  0.00     0.028 C
HETATM   16  C12 UNL     1      67.344  39.058  24.959  1.00  0.00     0.167 C
HETATM   17  O1  UNL     1      66.028  39.496  24.899  1.00  0.00    -0.389 OA
HETATM   18  C13 UNL     1      65.223  38.333  24.916  1.00  0.00     0.200 C
ENDBRANCH  10  13
ENDBRANCH   1  10
TORSDOF 4
ENDMDL