MODEL 1
REMARK VINA RESULT: -6.694075244      0.000      0.000
REMARK  4 active torsions:
REMARK  status: ('A' for Active; 'I' for Inactive)
REMARK    1  A    between atoms: C2_2  and  C3_3
REMARK    2  A    between atoms: C9_10  and  C10_11
REMARK    3  A    between atoms: C10_11  and  C11_12
REMARK    4  A    between atoms: C11_12  and  O2_14
ROOT
HETATM    1  C3  UNL     1      66.513  37.599  23.624  1.00  0.00     0.075 C
HETATM    2  C4  UNL     1      67.679  38.330  24.291  1.00  0.00     0.050 C
HETATM    3  C5  UNL     1      65.249  38.072  24.312  1.00  0.00     0.045 C
HETATM    4  C6  UNL     1      65.229  37.081  25.486  1.00  0.00     0.044 C
HETATM    5  C7  UNL     1      65.769  35.849  24.803  1.00  0.00     0.086 C
HETATM    6  C8  UNL     1      64.560  35.065  24.299  1.00  0.00     0.206 C
HETATM    7  O1  UNL     1      64.108  34.500  25.510  1.00  0.00    -0.383 OA
HETATM    8  C9  UNL     1      65.276  33.855  25.936  1.00  0.00     0.127 C
HETATM    9  C13 UNL     1      66.374  34.898  25.790  1.00  0.00     0.072 C
HETATM   10  O3  UNL     1      66.605  36.244  23.798  1.00  0.00    -0.363 OA
ENDROOT
BRANCH   8  11
HETATM   11  C10 UNL     1      65.190  33.461  27.388  1.00  0.00     0.063 C
BRANCH  11  12
HETATM   12  C11 UNL     1      63.929  32.723  27.711  1.00  0.00     0.116 C
HETATM   13  C12 UNL     1      64.012  32.087  29.072  1.00  0.00     0.039 C
BRANCH  12  14
HETATM   14  O2  UNL     1      62.880  33.654  27.690  1.00  0.00    -0.396 OA
ATOM     15  H2  UNL     1      62.127  33.244  28.098  1.00  0.00     0.210 HD
ENDBRANCH  12  14
ENDBRANCH  11  12
ENDBRANCH   8  11
BRANCH   1  16
HETATM   16  C2  UNL     1      66.495  38.003  22.190  1.00  0.00     0.000 C
HETATM   17  C1  UNL     1      67.518  37.874  21.385  1.00  0.00     0.010 C
ENDBRANCH   1  16
TORSDOF 4
ENDMDL