MODEL 1
REMARK VINA RESULT: -6.310802125      0.000      0.000
REMARK  4 active torsions:
REMARK  status: ('A' for Active; 'I' for Inactive)
REMARK    1  A    between atoms: C2_2  and  C3_3
REMARK    2  A    between atoms: C3_3  and  N1_4
REMARK    3  A    between atoms: N1_4  and  C4_6
REMARK    4  A    between atoms: C7_9  and  C8_10
ROOT
HETATM    1  C8  UNL     1      65.227  38.686  25.887  1.00  0.00     0.135 C
HETATM    2  C9  UNL     1      66.130  39.812  25.936  1.00  0.00     0.059 C
HETATM    3  N2  UNL     1      66.845  40.721  25.957  1.00  0.00    -0.197 NA
ENDROOT
BRANCH   1   4
HETATM    4  C7  UNL     1      65.735  37.562  24.985  1.00  0.00     0.002 C
HETATM    5  C6  UNL     1      64.750  36.422  25.072  1.00  0.00     0.014 C
HETATM    6  C5  UNL     1      65.389  35.088  24.972  1.00  0.00     0.026 C
HETATM    7  C4  UNL     1      66.544  34.827  25.913  1.00  0.00     0.082 C
HETATM    8  C13 UNL     1      67.138  36.081  26.471  1.00  0.00     0.058 C
HETATM    9  C12 UNL     1      67.112  37.170  25.415  1.00  0.00     0.197 C
HETATM   10  N3  UNL     1      67.860  36.842  24.232  1.00  0.00    -0.070 N
HETATM   11  C11 UNL     1      67.178  37.377  23.093  1.00  0.00     0.233 C
ATOM     12  H32 UNL     1      68.035  35.841  24.147  1.00  0.00     0.277 HD
ATOM     13  H31 UNL     1      68.831  37.151  24.286  1.00  0.00     0.277 HD
HETATM   14  C10 UNL     1      65.922  38.026  23.557  1.00  0.00     0.040 C
BRANCH   7  15
HETATM   15  N1  UNL     1      66.203  33.891  26.941  1.00  0.00    -0.398 N
ATOM     16  H1  UNL     1      65.263  33.864  27.336  1.00  0.00     0.159 HD
BRANCH  15  17
HETATM   17  C3  UNL     1      67.206  33.009  27.393  1.00  0.00     0.055 C
BRANCH  17  18
HETATM   18  C2  UNL     1      67.634  32.086  26.265  1.00  0.00     0.039 C
HETATM   19  C1  UNL     1      66.815  30.833  26.252  1.00  0.00     0.010 C
ENDBRANCH  17  18
ENDBRANCH  15  17
ENDBRANCH   7  15
ENDBRANCH   1   4
TORSDOF 4
ENDMDL