MODEL 5
REMARK VINA RESULT: -6.281764557      6.068      8.971
REMARK  7 active torsions:
REMARK  status: ('A' for Active; 'I' for Inactive)
REMARK    1  A    between atoms: C2_2  and  C3_3
REMARK    2  A    between atoms: C2_2  and  C6_19
REMARK       I    between atoms: N1_4  and  C4_6
REMARK       I    between atoms: C4_6  and  N2_7
REMARK    3  A    between atoms: N2_7  and  N3_9
REMARK    4  A    between atoms: N3_9  and  N4_10
REMARK    5  A    between atoms: N5_13  and  N6_15
REMARK    6  A    between atoms: C6_19  and  C7_20
REMARK    7  A    between atoms: C7_20  and  C8_21
ROOT
HETATM    1  N6  UNL     1      68.724  37.810  28.711  1.00  0.00    -0.222 N
ATOM      2  H6  UNL     1      67.751  37.536  28.576  1.00  0.00     0.200 HD
HETATM    3  C5  UNL     1      69.537  37.097  29.582  1.00  0.00     0.198 C
HETATM    4  N7  UNL     1      70.212  36.480  30.313  1.00  0.00    -0.170 NA
ENDROOT
BRANCH   1   5
HETATM    5  N5  UNL     1      69.241  38.893  28.027  1.00  0.00    -0.121 N
HETATM    6  C4  UNL     1      69.375  38.968  26.762  1.00  0.00     0.723 C
HETATM    7  N1  UNL     1      69.909  40.098  26.107  1.00  0.00    -0.198 N
HETATM    8  N2  UNL     1      68.972  37.868  25.963  1.00  0.00    -0.044 N
HETATM    9  C3  UNL     1      70.710  40.934  26.689  1.00  0.00     0.112 C
ATOM     10  H1  UNL     1      69.654  40.263  25.134  1.00  0.00     0.183 HD
ATOM     11  H2  UNL     1      69.343  36.931  26.125  1.00  0.00     0.223 HD
ATOM     12  H5  UNL     1      69.539  39.697  28.579  1.00  0.00     0.206 HD
BRANCH   9  13
HETATM   13  C2  UNL     1      71.248  42.098  25.981  1.00  0.00    -0.051 C
HETATM   14  C1  UNL     1      72.505  42.039  25.577  1.00  0.00     0.020 C
BRANCH  13  15
HETATM   15  C6  UNL     1      70.414  43.304  25.725  1.00  0.00     0.039 C
BRANCH  15  16
HETATM   16  C7  UNL     1      70.765  43.881  24.376  1.00  0.00     0.009 C
BRANCH  16  17
HETATM   17  C8  UNL     1      69.827  43.466  23.296  1.00  0.00    -0.014 A
HETATM   18  C9  UNL     1      70.108  42.269  22.451  1.00  0.00     0.005 A
HETATM   19  C10 UNL     1      70.372  43.604  21.873  1.00  0.00     0.005 A
ENDBRANCH  16  17
ENDBRANCH  15  16
ENDBRANCH  13  15
ENDBRANCH   9  13
BRANCH   8  20
HETATM   20  N3  UNL     1      68.151  38.088  25.060  1.00  0.00    -0.229 NA
BRANCH  20  21
HETATM   21  N4  UNL     1      67.575  38.306  23.984  1.00  0.00    -0.260 N
ATOM     22  H42 UNL     1      68.440  38.602  23.533  1.00  0.00     0.193 HD
ATOM     23  H41 UNL     1      66.902  38.410  23.224  1.00  0.00     0.193 HD
ENDBRANCH  20  21
ENDBRANCH   8  20
ENDBRANCH   1   5
TORSDOF 7
ENDMDL