MODEL 4
REMARK VINA RESULT: -6.064451741      2.237      3.472
REMARK  4 active torsions:
REMARK  status: ('A' for Active; 'I' for Inactive)
REMARK    1  A    between atoms: C3_3  and  C4_4
REMARK    2  A    between atoms: C4_4  and  N1_5
REMARK    3  A    between atoms: N1_5  and  C5_8
REMARK    4  A    between atoms: C5_8  and  C6_9
ROOT
HETATM    1  C6  UNL     1      65.306  36.923  24.912  1.00  0.00     0.174 C
HETATM    2  C7  UNL     1      65.355  38.413  24.909  1.00  0.00     0.205 C
HETATM    3  O1  UNL     1      66.366  38.767  24.024  1.00  0.00    -0.352 OA
HETATM    4  C8  UNL     1      66.479  37.627  23.235  1.00  0.00     0.164 C
HETATM    5  C9  UNL     1      67.797  37.615  22.477  1.00  0.00     0.068 C
HETATM    6  C10 UNL     1      67.502  38.601  21.364  1.00  0.00     0.006 C
HETATM    7  C11 UNL     1      66.038  38.441  21.040  1.00  0.00     0.006 C
HETATM    8  C12 UNL     1      65.423  37.628  22.149  1.00  0.00     0.068 C
HETATM    9  O2  UNL     1      66.342  36.540  24.063  1.00  0.00    -0.346 OA
ENDROOT
BRANCH   1  10
HETATM   10  C5  UNL     1      65.600  36.346  26.276  1.00  0.00     0.266 C
BRANCH  10  11
HETATM   11  N1  UNL     1      65.722  34.908  26.253  1.00  0.00    -0.072 N
ATOM     12  H12 UNL     1      65.543  34.528  25.324  1.00  0.00     0.277 HD
ATOM     13  H11 UNL     1      64.957  34.456  26.752  1.00  0.00     0.277 HD
BRANCH  11  14
HETATM   14  C4  UNL     1      66.994  34.505  26.755  1.00  0.00     0.237 C
BRANCH  14  15
HETATM   15  C3  UNL     1      67.045  33.117  27.288  1.00  0.00     0.011 C
HETATM   16  C2  UNL     1      65.826  32.274  27.064  1.00  0.00     0.006 C
HETATM   17  C1  UNL     1      66.656  31.197  26.368  1.00  0.00     0.001 C
HETATM   18  C13 UNL     1      67.788  32.198  26.314  1.00  0.00     0.006 C
ENDBRANCH  14  15
ENDBRANCH  11  14
ENDBRANCH  10  11
ENDBRANCH   1  10
TORSDOF 4
ENDMDL