MODEL 4
REMARK VINA RESULT: -6.364524087      1.413      2.480
REMARK  4 active torsions:
REMARK  status: ('A' for Active; 'I' for Inactive)
REMARK    1  A    between atoms: C1_4  and  C2_5
REMARK    2  A    between atoms: C2_5  and  C3_6
REMARK    3  A    between atoms: C3_6  and  N2_7
REMARK    4  A    between atoms: C6_10  and  N3_11
ROOT
HETATM    1  N2  UNL     1      65.726  36.387  23.963  1.00  0.00    -0.412 N
HETATM    2  C4  UNL     1      66.846  35.966  24.729  1.00  0.00     0.119 C
HETATM    3  C5  UNL     1      66.600  34.693  25.516  1.00  0.00     0.044 C
HETATM    4  C6  UNL     1      65.215  34.786  26.098  1.00  0.00     0.082 C
HETATM    5  C12 UNL     1      64.219  34.739  24.990  1.00  0.00     0.044 C
HETATM    6  C13 UNL     1      64.718  35.407  23.723  1.00  0.00     0.119 C
ENDROOT
BRANCH   1   7
HETATM    7  C3  UNL     1      65.174  37.655  24.276  1.00  0.00     0.122 C
BRANCH   7   8
HETATM    8  C2  UNL     1      65.002  38.547  23.060  1.00  0.00     0.063 C
BRANCH   8   9
HETATM    9  C1  UNL     1      66.106  38.370  22.091  1.00  0.00     0.054 C
HETATM   10  N1  UNL     1      65.872  37.939  20.918  1.00  0.00    -0.411 N
ATOM     11  H12 UNL     1      64.911  37.718  20.659  1.00  0.00     0.155 HD
ATOM     12  H11 UNL     1      66.633  37.816  20.249  1.00  0.00     0.155 HD
ENDBRANCH   8   9
ENDBRANCH   7   8
ENDBRANCH   1   7
BRANCH   4  13
HETATM   13  N3  UNL     1      64.944  33.927  27.199  1.00  0.00    -0.408 N
HETATM   14  C7  UNL     1      65.985  33.024  27.507  1.00  0.00     0.117 C
HETATM   15  C8  UNL     1      65.716  31.930  28.455  1.00  0.00     0.019 C
HETATM   16  C9  UNL     1      64.499  32.273  29.284  1.00  0.00     0.003 C
HETATM   17  C10 UNL     1      63.357  32.401  28.292  1.00  0.00     0.019 C
HETATM   18  C11 UNL     1      63.607  33.458  27.269  1.00  0.00     0.117 C
ENDBRANCH   4  13
TORSDOF 4
ENDMDL