MODEL 4
REMARK VINA RESULT: -6.571623773      0.725      1.334
REMARK  4 active torsions:
REMARK  status: ('A' for Active; 'I' for Inactive)
REMARK    1  A    between atoms: C1_2  and  C2_4
REMARK    2  A    between atoms: C2_4  and  C3_6
REMARK    3  A    between atoms: C3_6  and  C4_8
REMARK    4  A    between atoms: C4_8  and  C5_9
ROOT
HETATM    1  C5  UNL     1      66.261  34.603  25.575  1.00  0.00    -0.007 C
HETATM    2  C6  UNL     1      67.214  33.483  25.950  1.00  0.00     0.005 C
HETATM    3  C7  UNL     1      67.108  33.020  27.369  1.00  0.00     0.000 C
HETATM    4  C8  UNL     1      66.025  32.015  27.628  1.00  0.00     0.000 C
HETATM    5  C9  UNL     1      64.819  32.584  28.292  1.00  0.00     0.000 C
HETATM    6  C10 UNL     1      63.702  32.973  27.368  1.00  0.00     0.000 C
HETATM    7  C11 UNL     1      63.998  34.317  26.681  1.00  0.00     0.000 C
HETATM    8  C12 UNL     1      64.853  34.138  25.474  1.00  0.00     0.005 C
ENDROOT
BRANCH   1   9
HETATM    9  C4  UNL     1      66.496  35.803  26.422  1.00  0.00     0.092 C
BRANCH   9  10
HETATM   10  C3  UNL     1      67.131  36.946  25.726  1.00  0.00     0.206 C
HETATM   11  O4  UNL     1      68.157  37.457  26.217  1.00  0.00    -0.289 OA
BRANCH  10  12
HETATM   12  C2  UNL     1      66.578  37.482  24.481  1.00  0.00     0.293 C
HETATM   13  O3  UNL     1      67.048  37.141  23.375  1.00  0.00    -0.277 OA
BRANCH  12  14
HETATM   14  C1  UNL     1      65.474  38.419  24.531  1.00  0.00     0.255 C
HETATM   15  O1  UNL     1      65.108  39.038  23.477  1.00  0.00    -0.641 OA
HETATM   16  O2  UNL     1      64.793  38.671  25.694  1.00  0.00    -0.641 OA
ENDBRANCH  12  14
ENDBRANCH  10  12
ENDBRANCH   9  10
ENDBRANCH   1   9
TORSDOF 4
ENDMDL