MODEL 2
REMARK VINA RESULT: -6.209140575      1.627      2.631
REMARK  4 active torsions:
REMARK  status: ('A' for Active; 'I' for Inactive)
REMARK    1  A    between atoms: C2_2  and  C3_3
REMARK    2  A    between atoms: C2_2  and  C9_11
REMARK    3  A    between atoms: C3_3  and  C4_4
REMARK    4  A    between atoms: C4_4  and  N1_5
ROOT
HETATM    1  C1  UNL     1      62.975  34.748  25.317  1.00  0.00     0.016 C
HETATM    2  C2  UNL     1      64.228  34.624  25.737  1.00  0.00    -0.057 C
ENDROOT
BRANCH   2   3
HETATM    3  C3  UNL     1      65.357  35.241  24.969  1.00  0.00     0.065 C
BRANCH   3   4
HETATM    4  C4  UNL     1      64.826  35.833  23.700  1.00  0.00     0.277 C
BRANCH   4   5
HETATM    5  N1  UNL     1      65.649  36.919  23.205  1.00  0.00     0.092 N
HETATM    6  C5  UNL     1      65.002  38.187  23.170  1.00  0.00     0.298 C
HETATM    7  C6  UNL     1      65.147  38.966  24.458  1.00  0.00     0.198 C
HETATM    8  O1  UNL     1      66.447  39.092  24.886  1.00  0.00    -0.388 OA
HETATM    9  C7  UNL     1      67.362  38.372  24.134  1.00  0.00     0.198 C
HETATM   10  C8  UNL     1      66.844  36.951  24.049  1.00  0.00     0.298 C
ENDBRANCH   4   5
ENDBRANCH   3   4
ENDBRANCH   2   3
BRANCH   2  11
HETATM   11  C9  UNL     1      64.486  33.862  26.972  1.00  0.00     0.214 C
HETATM   12  C10 UNL     1      65.776  33.136  26.984  1.00  0.00     0.037 C
HETATM   13  C11 UNL     1      65.979  32.240  28.165  1.00  0.00     0.004 C
HETATM   14  C12 UNL     1      64.814  31.977  29.028  1.00  0.00     0.027 C
HETATM   15  C13 UNL     1      63.570  32.740  28.769  1.00  0.00     0.233 C
HETATM   16  N2  UNL     1      63.422  32.950  27.341  1.00  0.00    -0.067 N
ATOM     17  H22 UNL     1      62.493  33.271  27.068  1.00  0.00     0.277 HD
ATOM     18  H21 UNL     1      63.415  32.086  26.799  1.00  0.00     0.277 HD
ENDBRANCH   2  11
TORSDOF 4
ENDMDL