MODEL 4
REMARK VINA RESULT: -5.927237054      3.805      5.831
REMARK  2 active torsions:
REMARK  status: ('A' for Active; 'I' for Inactive)
REMARK    1  A    between atoms: C1_2  and  C2_4
REMARK    2  A    between atoms: C4_8  and  N2_9
ROOT
HETATM    1  C2  UNL     1       6.715  -3.226  12.019  1.00  0.00     0.100 A
HETATM    2  C3  UNL     1       6.859  -2.155  11.171  1.00  0.00     0.116 A
HETATM    3  N1  UNL     1       7.217  -2.403   9.953  1.00  0.00    -0.345 N
ATOM      4  H1  UNL     1       7.335  -1.634   9.293  1.00  0.00     0.167 HD
HETATM    5  C4  UNL     1       7.432  -3.644   9.559  1.00  0.00     0.148 A
HETATM    6  S1  UNL     1       7.114  -4.535  10.981  1.00  0.00    -0.046 SA
ENDROOT
BRANCH   5   7
HETATM    7  N2  UNL     1       7.831  -4.128   8.265  1.00  0.00    -0.344 N
HETATM    8  C5  UNL     1       9.191  -4.225   7.837  1.00  0.00     0.127 C
HETATM    9  C6  UNL     1       9.121  -4.762   6.403  1.00  0.00     0.023 C
HETATM   10  C7  UNL     1       7.760  -4.247   5.974  1.00  0.00     0.043 C
HETATM   11  C8  UNL     1       6.938  -4.578   7.229  1.00  0.00     0.183 C
HETATM   12 CL1  UNL     1       5.385  -3.766   7.230  1.00  0.00    -0.102 Cl
ENDBRANCH   5   7
BRANCH   1  13
HETATM   13  C1  UNL     1       6.323  -3.230  13.438  1.00  0.00     0.218 C
HETATM   14  O1  UNL     1       5.192  -2.779  13.720  1.00  0.00    -0.643 OA
HETATM   15  O2  UNL     1       7.164  -3.709  14.421  1.00  0.00    -0.643 OA
ENDBRANCH   1  13
TORSDOF 2
ENDMDL