MODEL 3
REMARK VINA RESULT: -4.830010167      1.372      1.754
REMARK  5 active torsions:
REMARK  status: ('A' for Active; 'I' for Inactive)
REMARK    1  A    between atoms: C2_2  and  C3_3
REMARK    2  A    between atoms: C3_3  and  C4_5
REMARK    3  A    between atoms: C4_5  and  S1_7
REMARK    4  A    between atoms: S1_7  and  S2_8
REMARK    5  A    between atoms: S2_8  and  C5_9
ROOT
HETATM    1  C4  UNL     1       8.694  -3.986   8.412  1.00  0.00     0.215 C
HETATM    2  O1  UNL     1       9.631  -4.531   8.919  1.00  0.00    -0.283 OA
ENDROOT
BRANCH   1   3
HETATM    3  C3  UNL     1       8.496  -4.077   6.954  1.00  0.00     0.163 C
HETATM    4 CL1  UNL     1       9.985  -3.853   6.041  1.00  0.00    -0.116 Cl
BRANCH   3   5
HETATM    5  C2  UNL     1       7.754  -5.329   6.548  1.00  0.00     0.024 C
HETATM    6  C1  UNL     1       6.273  -5.160   6.534  1.00  0.00     0.007 C
ENDBRANCH   3   5
ENDBRANCH   1   3
BRANCH   1   7
HETATM    7  S1  UNL     1       7.543  -3.074   9.393  1.00  0.00    -0.011 SA
BRANCH   7   8
HETATM    8  S2  UNL     1       7.132  -4.201  11.143  1.00  0.00    -0.023 SA
BRANCH   8   9
HETATM    9  C5  UNL     1       6.410  -3.121  12.360  1.00  0.00     0.160 C
HETATM   10  N1  UNL     1       5.611  -3.668  13.401  1.00  0.00    -0.081 NA
HETATM   11  S3  UNL     1       6.651  -1.498  12.304  1.00  0.00    -0.055 SA
ENDBRANCH   8   9
ENDBRANCH   7   8
ENDBRANCH   1   7
TORSDOF 5
ENDMDL