MODEL 2
REMARK VINA RESULT: -5.352659995      0.251      1.164
REMARK  5 active torsions:
REMARK  status: ('A' for Active; 'I' for Inactive)
REMARK    1  A    between atoms: C2_2  and  C5_5
REMARK    2  A    between atoms: C7_9  and  S1_10
REMARK    3  A    between atoms: S1_10  and  C8_11
REMARK    4  A    between atoms: C8_11  and  C9_12
REMARK    5  A    between atoms: C9_12  and  N2_13
ROOT
HETATM    1  C5  UNL     1       7.443  -3.400   7.681  1.00  0.00     0.035 C
HETATM    2  C6  UNL     1       7.718  -4.247   8.882  1.00  0.00     0.129 C
HETATM    3  N1  UNL     1       7.559  -3.510  10.088  1.00  0.00    -0.365 N
ATOM      4  H1  UNL     1       7.908  -3.923  10.953  1.00  0.00     0.162 HD
HETATM    5  C7  UNL     1       7.006  -2.363  10.149  1.00  0.00     0.177 C
HETATM    6  O1  UNL     1       6.509  -1.729   9.035  1.00  0.00    -0.330 OA
HETATM    7  C10 UNL     1       6.228  -2.505   7.887  1.00  0.00     0.184 C
ENDROOT
BRANCH   5   8
HETATM    8  S1  UNL     1       6.882  -1.561  11.754  1.00  0.00    -0.085 SA
BRANCH   8   9
HETATM    9  C8  UNL     1       6.563  -2.829  12.995  1.00  0.00     0.110 C
BRANCH   9  10
HETATM   10  C9  UNL     1       5.166  -2.771  13.535  1.00  0.00     0.240 C
BRANCH  10  11
HETATM   11  N2  UNL     1       5.056  -3.555  14.763  1.00  0.00    -0.079 N
ATOM     12  H23 UNL     1       5.261  -4.541  14.601  1.00  0.00     0.274 HD
ATOM     13  H22 UNL     1       5.813  -3.347  15.414  1.00  0.00     0.274 HD
ATOM     14  H21 UNL     1       4.141  -3.424  15.193  1.00  0.00     0.274 HD
ENDBRANCH  10  11
ENDBRANCH   9  10
ENDBRANCH   8   9
ENDBRANCH   5   8
BRANCH   1  15
HETATM   15  C2  UNL     1       7.336  -4.201   6.410  1.00  0.00    -0.044 C
HETATM   16  C1  UNL     1       8.684  -4.851   6.172  1.00  0.00     0.015 C
HETATM   17  C3  UNL     1       6.992  -3.303   5.269  1.00  0.00     0.015 C
HETATM   18  C4  UNL     1       6.314  -5.304   6.500  1.00  0.00     0.015 C
ENDBRANCH   1  15
TORSDOF 5
ENDMDL