MODEL 1
REMARK VINA RESULT: -5.471270256      0.000      0.000
REMARK  4 active torsions:
REMARK  status: ('A' for Active; 'I' for Inactive)
REMARK    1  A    between atoms: C2_2  and  C3_3
REMARK    2  A    between atoms: C3_3  and  N1_4
REMARK    3  A    between atoms: C4_6  and  N2_7
REMARK    4  A    between atoms: N2_7  and  C5_9
ROOT
HETATM    1  N1  UNL     1       6.925  -2.542  11.021  1.00  0.00    -0.266 N
HETATM    2  S1  UNL     1       6.940  -1.811   9.506  1.00  0.00     0.029 SA
HETATM    3  C4  UNL     1       7.189  -3.201   8.543  1.00  0.00     0.166 A
HETATM    4  N3  UNL     1       7.245  -4.162   9.469  1.00  0.00    -0.287 N
ATOM      5  H3  UNL     1       7.389  -5.135   9.203  1.00  0.00     0.172 HD
HETATM    6  C8  UNL     1       7.112  -3.826  10.723  1.00  0.00     0.334 A
HETATM    7  O1  UNL     1       7.152  -4.685  11.693  1.00  0.00    -0.246 OA
ENDROOT
BRANCH   3   8
HETATM    8  N2  UNL     1       7.297  -3.315   7.240  1.00  0.00    -0.347 N
ATOM      9  H2  UNL     1       8.202  -3.110   6.816  1.00  0.00     0.163 HD
BRANCH   8  10
HETATM   10  C5  UNL     1       6.235  -3.704   6.386  1.00  0.00     0.102 C
HETATM   11  C6  UNL     1       6.251  -5.241   6.329  1.00  0.00     0.056 C
HETATM   12  C7  UNL     1       6.508  -3.242   4.973  1.00  0.00     0.056 C
HETATM   13 CL1  UNL     1       4.639  -3.180   6.969  1.00  0.00    -0.096 Cl
ENDBRANCH   8  10
ENDBRANCH   3   8
BRANCH   1  14
HETATM   14  C3  UNL     1       6.750  -1.907  12.312  1.00  0.00     0.142 C
BRANCH  14  15
HETATM   15  C2  UNL     1       6.602  -0.417  12.218  1.00  0.00     0.016 C
HETATM   16  C1  UNL     1       7.851   0.339  12.506  1.00  0.00     0.006 C
ENDBRANCH  14  15
ENDBRANCH   1  14
TORSDOF 4
ENDMDL