MODEL 1
REMARK VINA RESULT: -6.405824272      0.000      0.000
REMARK  3 active torsions:
REMARK  status: ('A' for Active; 'I' for Inactive)
REMARK    1  A    between atoms: C2_2  and  N1_4
REMARK    2  A    between atoms: N1_4  and  C4_6
REMARK    3  A    between atoms: C7_9  and  N2_10
ROOT
HETATM    1  C4  UNL     1       8.556  -3.641   6.884  1.00  0.00     0.077 C
HETATM    2  C5  UNL     1       7.186  -3.385   7.401  1.00  0.00     0.027 C
HETATM    3  C6  UNL     1       6.611  -4.370   8.369  1.00  0.00     0.029 C
HETATM    4  C7  UNL     1       7.471  -4.626   9.572  1.00  0.00     0.109 C
HETATM    5  C10 UNL     1       8.912  -4.382   9.167  1.00  0.00     0.029 C
HETATM    6  C11 UNL     1       9.124  -4.791   7.745  1.00  0.00     0.027 C
ENDROOT
BRANCH   4   7
HETATM    7  N2  UNL     1       7.174  -3.792  10.711  1.00  0.00    -0.280 N
HETATM    8  C8  UNL     1       7.244  -2.472  10.845  1.00  0.00     0.204 A
HETATM    9  N3  UNL     1       6.856  -2.094  12.075  1.00  0.00    -0.312 N
HETATM   10  C9  UNL     1       6.535  -3.252  12.728  1.00  0.00     0.281 A
ATOM     11  H3  UNL     1       6.810  -1.144  12.443  1.00  0.00     0.170 HD
HETATM   12  F1  UNL     1       6.100  -3.225  14.022  1.00  0.00    -0.164 F
HETATM   13  N4  UNL     1       6.737  -4.232  11.882  1.00  0.00    -0.258 N
ATOM     14  H4  UNL     1       6.577  -5.216  12.100  1.00  0.00     0.191 HD
ENDBRANCH   4   7
BRANCH   1  15
HETATM   15  N1  UNL     1       8.719  -3.980   5.504  1.00  0.00    -0.414 N
ATOM     16  H1  UNL     1       7.935  -4.361   4.974  1.00  0.00     0.153 HD
BRANCH  15  17
HETATM   17  C2  UNL     1       9.973  -3.783   4.879  1.00  0.00     0.068 C
HETATM   18  C1  UNL     1      10.480  -5.044   4.239  1.00  0.00     0.031 C
HETATM   19  C3  UNL     1       9.747  -2.835   3.652  1.00  0.00     0.031 C
ENDBRANCH  15  17
ENDBRANCH   1  15
TORSDOF 3
ENDMDL