MODEL 2
REMARK VINA RESULT: -5.723928266      2.146      2.708
REMARK  3 active torsions:
REMARK  status: ('A' for Active; 'I' for Inactive)
REMARK    1  A    between atoms: C4_6  and  C5_7
REMARK    2  A    between atoms: N2_8  and  N3_10
REMARK       I    between atoms: N3_10  and  C6_11
REMARK    3  A    between atoms: C6_11  and  C7_13
ROOT
HETATM    1  C5  UNL     1       4.717  -0.838   6.710  1.00  0.00     0.141 C
HETATM    2  N2  UNL     1       5.737  -1.097   7.426  1.00  0.00    -0.242 N
ATOM      3  H2  UNL     1       6.058  -0.314   7.996  1.00  0.00     0.201 HD
ENDROOT
BRANCH   2   4
HETATM    4  N3  UNL     1       6.444  -2.182   7.562  1.00  0.00    -0.287 NA
HETATM    5  C6  UNL     1       7.181  -3.313   7.703  1.00  0.00     0.320 C
HETATM    6  O1  UNL     1       7.811  -3.691   8.707  1.00  0.00    -0.254 OA
BRANCH   5   7
HETATM    7  C7  UNL     1       7.300  -4.292   6.526  1.00  0.00     0.046 C
HETATM    8  C8  UNL     1       7.361  -3.545   5.229  1.00  0.00     0.026 C
HETATM    9  C9  UNL     1       6.107  -5.222   6.515  1.00  0.00     0.026 C
HETATM   10  C10 UNL     1       8.537  -5.134   6.722  1.00  0.00     0.026 C
ENDBRANCH   5   7
ENDBRANCH   2   4
BRANCH   1  11
HETATM   11  C4  UNL     1       4.153   0.492   6.788  1.00  0.00     0.040 A
HETATM   12  C3  UNL     1       2.917   0.955   6.425  1.00  0.00     0.109 A
HETATM   13  N1  UNL     1       2.664   2.208   6.603  1.00  0.00    -0.363 N
HETATM   14  C2  UNL     1       3.578   3.010   7.120  1.00  0.00     0.047 A
ATOM     15  H1  UNL     1       1.752   2.582   6.342  1.00  0.00     0.165 HD
HETATM   16  C1  UNL     1       3.483   4.489   7.404  1.00  0.00     0.076 C
HETATM   17  S1  UNL     1       4.892   1.939   7.379  1.00  0.00    -0.075 SA
ENDBRANCH   1  11
TORSDOF 3
ENDMDL