MODEL 2
REMARK VINA RESULT: -5.051852458      1.263      1.906
REMARK  3 active torsions:
REMARK  status: ('A' for Active; 'I' for Inactive)
REMARK    1  A    between atoms: C2_2  and  N1_3
REMARK    2  A    between atoms: N1_3  and  C3_4
REMARK    3  A    between atoms: N1_3  and  C4_6
ROOT
HETATM    1  C4  UNL     1       6.933  -2.155  10.395  1.00  0.00     0.146 C
HETATM    2  N2  UNL     1       6.392  -1.334   9.597  1.00  0.00    -0.369 N
ATOM      3  H2  UNL     1       5.859  -0.609  10.078  1.00  0.00     0.161 HD
HETATM    4  C5  UNL     1       6.358  -1.191   8.177  1.00  0.00     0.141 C
HETATM    5  C6  UNL     1       5.976  -2.428   7.429  1.00  0.00     0.141 C
HETATM    6  N3  UNL     1       7.155  -3.238   7.192  1.00  0.00    -0.374 N
ATOM      7  H3  UNL     1       7.421  -3.398   6.220  1.00  0.00     0.161 HD
HETATM    8  C7  UNL     1       7.972  -3.826   8.192  1.00  0.00     0.142 C
HETATM    9  S1  UNL     1       9.091  -4.888   7.700  1.00  0.00    -0.052 SA
HETATM   10  S2  UNL     1       7.923  -3.548   9.952  1.00  0.00    -0.025 SA
ENDROOT
BRANCH   1  11
HETATM   11  N1  UNL     1       6.710  -1.929  11.763  1.00  0.00    -0.349 N
BRANCH  11  12
HETATM   12  C2  UNL     1       6.430  -0.566  12.241  1.00  0.00     0.121 C
HETATM   13  C1  UNL     1       7.756   0.075  12.554  1.00  0.00     0.026 C
ENDBRANCH  11  12
BRANCH  11  14
HETATM   14  C3  UNL     1       6.763  -3.041  12.685  1.00  0.00     0.240 C
HETATM   15 CL1  UNL     1       5.291  -2.937  13.704  1.00  0.00    -0.109 Cl
ENDBRANCH  11  14
ENDBRANCH   1  11
TORSDOF 3
ENDMDL