MODEL 1
REMARK VINA RESULT: -6.656582288      0.000      0.000
REMARK  2 active torsions:
REMARK  status: ('A' for Active; 'I' for Inactive)
REMARK    1  A    between atoms: C1_2  and  C2_4
REMARK    2  A    between atoms: C4_8  and  N2_9
ROOT
HETATM    1  C2  UNL     1       5.141   1.873   7.144  1.00  0.00     0.153 A
HETATM    2  N1  UNL     1       5.933   2.254   8.132  1.00  0.00    -0.352 N
ATOM      3  H1  UNL     1       6.114   3.246   8.287  1.00  0.00     0.166 HD
HETATM    4  C3  UNL     1       6.478   1.370   8.903  1.00  0.00     0.126 A
HETATM    5  C4  UNL     1       6.207   0.046   8.660  1.00  0.00     0.090 A
HETATM    6  S1  UNL     1       5.158   0.171   7.302  1.00  0.00    -0.046 SA
ENDROOT
BRANCH   5   7
HETATM    7  N2  UNL     1       6.678  -1.113   9.358  1.00  0.00    -0.370 N
HETATM    8  C5  UNL     1       7.026  -2.280   8.590  1.00  0.00     0.124 C
HETATM    9  C6  UNL     1       6.834  -3.539   9.395  1.00  0.00     0.024 C
HETATM   10  C7  UNL     1       7.642  -3.399  10.681  1.00  0.00     0.040 C
HETATM   11  C8  UNL     1       6.985  -2.313  11.461  1.00  0.00    -0.035 C
HETATM   12  C9  UNL     1       6.611  -2.505  12.706  1.00  0.00     0.192 C
HETATM   13  C10 UNL     1       6.767  -1.017  10.796  1.00  0.00     0.160 C
HETATM   14  F1  UNL     1       6.819  -3.696  13.291  1.00  0.00    -0.219 F
ENDBRANCH   5   7
BRANCH   1  15
HETATM   15  C1  UNL     1       4.464   2.750   6.205  1.00  0.00     0.234 C
HETATM   16  O1  UNL     1       4.876   2.879   5.037  1.00  0.00    -0.642 OA
HETATM   17  O2  UNL     1       3.352   3.450   6.603  1.00  0.00    -0.642 OA
ENDBRANCH   1  15
TORSDOF 2
ENDMDL