MODEL 3
REMARK VINA RESULT: -6.373136164      6.701      7.759
REMARK  5 active torsions:
REMARK  status: ('A' for Active; 'I' for Inactive)
REMARK    1  A    between atoms: C1_2  and  C2_3
REMARK       I    between atoms: C1_2  and  N1_7
REMARK    2  A    between atoms: C4_9  and  C5_10
REMARK    3  A    between atoms: C5_10  and  C6_11
REMARK    4  A    between atoms: C6_11  and  N2_12
REMARK    5  A    between atoms: N2_12  and  C7_14
ROOT
HETATM    1  C5  UNL     1       6.921  -4.824   7.085  1.00  0.00     0.034 C
ENDROOT
BRANCH   1   2
HETATM    2  C4  UNL     1       8.237  -4.683   6.452  1.00  0.00     0.092 C
HETATM    3  N1  UNL     1       8.310  -3.916   5.419  1.00  0.00    -0.334 N
HETATM    4  C1  UNL     1       9.572  -3.761   4.788  1.00  0.00     0.250 C
ATOM      5  H1  UNL     1       7.484  -3.434   5.065  1.00  0.00     0.168 HD
HETATM    6  O1  UNL     1       9.913  -2.645   4.308  1.00  0.00    -0.268 OA
BRANCH   4   7
HETATM    7  C2  UNL     1      10.460  -4.897   4.700  1.00  0.00     0.148 C
HETATM    8  C3  UNL     1      10.696  -5.459   3.546  1.00  0.00     0.272 C
HETATM    9  F1  UNL     1      10.120  -4.996   2.423  1.00  0.00    -0.173 F
HETATM   10  F2  UNL     1      11.523  -6.516   3.464  1.00  0.00    -0.173 F
ENDBRANCH   4   7
ENDBRANCH   1   2
BRANCH   1  11
HETATM   11  C6  UNL     1       6.668  -4.118   8.168  1.00  0.00     0.091 C
BRANCH  11  12
HETATM   12  N2  UNL     1       7.649  -4.073   9.194  1.00  0.00    -0.345 N
ATOM     13  H2  UNL     1       8.630  -4.259   8.985  1.00  0.00     0.167 HD
BRANCH  12  14
HETATM   14  C7  UNL     1       7.268  -3.786  10.413  1.00  0.00     0.164 A
HETATM   15  N3  UNL     1       6.969  -4.636  11.403  1.00  0.00    -0.280 N
HETATM   16  N4  UNL     1       6.616  -4.164  12.528  1.00  0.00    -0.303 N
ATOM     17  H3  UNL     1       7.023  -5.644  11.256  1.00  0.00     0.189 HD
HETATM   18  C8  UNL     1       6.549  -2.853  12.710  1.00  0.00     0.160 A
ATOM     19  H4  UNL     1       6.384  -4.797  13.294  1.00  0.00     0.186 HD
HETATM   20  S1  UNL     1       7.021  -2.277  11.172  1.00  0.00    -0.046 SA
ENDBRANCH  12  14
ENDBRANCH  11  12
ENDBRANCH   1  11
TORSDOF 5
ENDMDL