MODEL 2
REMARK VINA RESULT: -4.708288711      3.763      5.093
REMARK  2 active torsions:
REMARK  status: ('A' for Active; 'I' for Inactive)
REMARK    1  A    between atoms: S1_2  and  C2_3
REMARK    2  A    between atoms: C2_3  and  C3_4
ROOT
HETATM    1  C3  UNL     1       7.098  -3.500   8.465  1.00  0.00     0.043 C
HETATM    2 CL1  UNL     1       6.822  -4.760   7.294  1.00  0.00    -0.086 Cl
HETATM    3  C4  UNL     1       6.494  -2.360   8.337  1.00  0.00     0.094 C
HETATM    4  S2  UNL     1       6.697  -0.968   9.487  1.00  0.00    -0.054 SA
HETATM    5  C5  UNL     1       6.029   0.254   8.378  1.00  0.00     0.146 C
HETATM    6  S3  UNL     1       6.231   1.839   8.538  1.00  0.00    -0.052 SA
HETATM    7  N1  UNL     1       5.326  -0.470   7.393  1.00  0.00    -0.307 N
ATOM      8  H1  UNL     1       4.684  -0.016   6.744  1.00  0.00     0.170 HD
HETATM    9  C6  UNL     1       5.562  -1.846   7.360  1.00  0.00     0.265 C
HETATM   10  O1  UNL     1       4.974  -2.606   6.502  1.00  0.00    -0.267 OA
ENDROOT
BRANCH   1  11
HETATM   11  C2  UNL     1       8.020  -3.732   9.598  1.00  0.00     0.126 C
BRANCH  11  12
HETATM   12  S1  UNL     1       7.280  -4.585  10.987  1.00  0.00    -0.168 SA
HETATM   13  C1  UNL     1       6.749  -3.434  12.264  1.00  0.00     0.090 C
ENDBRANCH  11  12
ENDBRANCH   1  11
TORSDOF 2
ENDMDL