MODEL 5
REMARK VINA RESULT: -7.147216273      1.957      5.536
REMARK  6 active torsions:
REMARK  status: ('A' for Active; 'I' for Inactive)
REMARK    1  A    between atoms: C2_3  and  N2_4
REMARK       I    between atoms: N2_4  and  C3_6
REMARK       I    between atoms: C3_6  and  N3_8
REMARK    2  A    between atoms: N3_8  and  N4_10
REMARK    3  A    between atoms: C5_14  and  O2_15
REMARK    4  A    between atoms: C5_14  and  C6_17
REMARK    5  A    between atoms: C6_17  and  N5_18
REMARK    6  A    between atoms: C9_27  and  C10_28
ROOT
HETATM    1  N1  UNL     1      13.153   6.875  24.841  1.00  0.00    -0.195 NA
HETATM    2  C1  UNL     1      12.381   6.161  24.345  1.00  0.00     0.092 C
HETATM    3  C2  UNL     1      11.394   5.239  23.737  1.00  0.00     0.146 C
HETATM    4  C4  UNL     1      10.054   5.849  23.849  1.00  0.00     0.110 C
HETATM    5  C5  UNL     1       9.064   5.408  22.821  1.00  0.00     0.151 C
HETATM    6  N8  UNL     1       9.588   4.745  21.678  1.00  0.00    -0.348 N
ATOM      7  H8  UNL     1       8.913   4.376  21.009  1.00  0.00     0.163 HD
HETATM    8  C8  UNL     1      10.802   4.572  21.414  1.00  0.00     0.107 C
HETATM    9  N9  UNL     1      11.156   3.869  20.192  1.00  0.00    -0.087 NA
HETATM   10  C9  UNL     1      11.860   5.063  22.309  1.00  0.00     0.182 C
ENDROOT
BRANCH   3  11
HETATM   11  N2  UNL     1      11.526   3.991  24.456  1.00  0.00    -0.318 N
HETATM   12  C3  UNL     1      11.277   3.811  25.829  1.00  0.00     0.335 C
HETATM   13  O1  UNL     1      10.912   4.763  26.555  1.00  0.00    -0.246 OA
HETATM   14  N3  UNL     1      11.432   2.543  26.444  1.00  0.00    -0.258 N
ATOM     15  H3  UNL     1      11.729   1.757  25.867  1.00  0.00     0.191 HD
ATOM     16  H2  UNL     1      11.825   3.174  23.923  1.00  0.00     0.166 HD
BRANCH  14  17
HETATM   17  N4  UNL     1      11.197   2.320  27.800  1.00  0.00    -0.341 N
ATOM     18  H42 UNL     1      10.986   1.365  28.088  1.00  0.00     0.177 HD
ATOM     19  H41 UNL     1      11.228   3.059  28.502  1.00  0.00     0.177 HD
ENDBRANCH  14  17
ENDBRANCH   3  11
BRANCH  10  20
HETATM   20  C10 UNL     1      12.564   6.249  21.802  1.00  0.00     0.245 C
HETATM   21  N10 UNL     1      13.970   6.347  21.619  1.00  0.00    -0.061 NA
HETATM   22  O3  UNL     1      11.891   7.263  21.503  1.00  0.00    -0.276 OA
ENDBRANCH  10  20
BRANCH   5  23
HETATM   23  O2  UNL     1       8.065   4.622  23.434  1.00  0.00    -0.369 OA
ATOM     24  H2  UNL     1       8.329   3.710  23.427  1.00  0.00     0.212 HD
ENDBRANCH   5  23
BRANCH   5  25
HETATM   25  C6  UNL     1       8.307   6.637  22.301  1.00  0.00     0.182 C
BRANCH  25  26
HETATM   26  N5  UNL     1       7.033   6.274  21.754  1.00  0.00    -0.362 N
HETATM   27  C7  UNL     1       6.859   6.433  20.484  1.00  0.00     0.197 C
HETATM   28  N6  UNL     1       7.869   6.947  19.629  1.00  0.00    -0.067 NA
HETATM   29  N7  UNL     1       5.589   6.068  19.954  1.00  0.00    -0.067 NA
ATOM     30  H5  UNL     1       6.290   5.902  22.345  1.00  0.00     0.161 HD
ENDBRANCH  25  26
ENDBRANCH   5  25
TORSDOF 6
ENDMDL