MODEL 1
REMARK VINA RESULT: -7.441971446      0.000      0.000
REMARK  10 active torsions:
REMARK  status: ('A' for Active; 'I' for Inactive)
REMARK    1  A    between atoms: N1_1  and  C1_5
REMARK    2  A    between atoms: C1_5  and  C2_6
REMARK    3  A    between atoms: C2_6  and  N2_7
REMARK    4  A    between atoms: N2_7  and  C3_9
REMARK    5  A    between atoms: C4_12  and  N4_13
REMARK    6  A    between atoms: N4_13  and  C5_15
REMARK    7  A    between atoms: C5_15  and  N5_16
REMARK    8  A    between atoms: C5_15  and  O1_20
REMARK    9  A    between atoms: C8_31  and  N9_32
REMARK       I    between atoms: N9_32  and  C9_34
REMARK       I    between atoms: C9_34  and  N10_36
REMARK   10  A    between atoms: N10_36  and  N11_38
ROOT
HETATM    1  C3  UNL     1      15.765  11.113  25.708  1.00  0.00     0.134 A
HETATM    2  N3  UNL     1      15.273  11.422  26.915  1.00  0.00    -0.176 N
ATOM      3  H3  UNL     1      15.188  12.405  27.171  1.00  0.00     0.186 HD
HETATM    4  C4  UNL     1      14.884  10.481  27.812  1.00  0.00     0.684 A
HETATM    5  N6  UNL     1      15.012   9.196  27.439  1.00  0.00    -0.175 N
ATOM      6  H6  UNL     1      14.726   8.472  28.098  1.00  0.00     0.186 HD
HETATM    7  C6  UNL     1      15.494   8.817  26.252  1.00  0.00     0.142 A
HETATM    8  N7  UNL     1      15.615   7.514  25.894  1.00  0.00    -0.293 N
ATOM      9  H7  UNL     1      15.326   6.797  26.559  1.00  0.00     0.172 HD
HETATM   10  C7  UNL     1      16.099   7.128  24.702  1.00  0.00     0.327 A
HETATM   11  O2  UNL     1      16.218   5.925  24.356  1.00  0.00    -0.247 OA
HETATM   12  N8  UNL     1      16.482   8.067  23.820  1.00  0.00    -0.293 N
ATOM     13  H8  UNL     1      16.852   7.787  22.912  1.00  0.00     0.172 HD
HETATM   14  C8  UNL     1      16.382   9.382  24.128  1.00  0.00     0.131 A
HETATM   15  C10 UNL     1      15.884   9.765  25.352  1.00  0.00     0.097 A
ENDROOT
BRANCH   4  16
HETATM   16  N4  UNL     1      14.426  10.868  28.943  1.00  0.00    -0.174 N
ATOM     17  H4  UNL     1      15.083  11.301  29.591  1.00  0.00     0.182 HD
BRANCH  16  18
HETATM   18  C5  UNL     1      13.069  10.744  29.370  1.00  0.00     0.438 C
BRANCH  18  19
HETATM   19  N5  UNL     1      12.368  12.006  29.468  1.00  0.00    -0.034 N
ATOM     20  H53 UNL     1      12.654  12.511  30.307  1.00  0.00     0.279 HD
ATOM     21  H52 UNL     1      12.698  12.657  28.755  1.00  0.00     0.279 HD
ATOM     22  H51 UNL     1      11.353  11.918  29.430  1.00  0.00     0.279 HD
ENDBRANCH  18  19
BRANCH  18  23
HETATM   23  O1  UNL     1      12.364   9.834  28.572  1.00  0.00    -0.354 OA
ATOM     24  H1  UNL     1      11.697  10.270  28.055  1.00  0.00     0.213 HD
ENDBRANCH  18  23
ENDBRANCH  16  18
ENDBRANCH   4  16
BRANCH   1  25
HETATM   25  N2  UNL     1      16.149  11.952  24.818  1.00  0.00    -0.373 N
ATOM     26  H2  UNL     1      16.558  11.561  23.969  1.00  0.00     0.161 HD
BRANCH  25  27
HETATM   27  C2  UNL     1      16.066  13.378  24.886  1.00  0.00     0.148 C
BRANCH  27  28
HETATM   28  C1  UNL     1      17.143  14.080  24.084  1.00  0.00     0.249 C
BRANCH  28  29
HETATM   29  N1  UNL     1      17.833  15.096  24.822  1.00  0.00    -0.078 N
ATOM     30  H13 UNL     1      17.873  15.966  24.290  1.00  0.00     0.274 HD
ATOM     31  H12 UNL     1      17.275  15.408  25.616  1.00  0.00     0.274 HD
ATOM     32  H11 UNL     1      18.767  14.816  25.124  1.00  0.00     0.274 HD
ENDBRANCH  28  29
ENDBRANCH  27  28
ENDBRANCH  25  27
ENDBRANCH   1  25
BRANCH  14  33
HETATM   33  N9  UNL     1      16.744  10.292  23.293  1.00  0.00    -0.292 N
HETATM   34  C9  UNL     1      16.900   9.944  21.927  1.00  0.00     0.340 C
HETATM   35  O3  UNL     1      17.931   9.277  21.607  1.00  0.00    -0.245 OA
HETATM   36  N10 UNL     1      15.950  10.319  20.954  1.00  0.00    -0.258 N
ATOM     37  H10 UNL     1      15.136  10.855  21.255  1.00  0.00     0.191 HD
ATOM     38  H9  UNL     1      16.916  11.247  23.609  1.00  0.00     0.172 HD
BRANCH  36  39
HETATM   39  N11 UNL     1      16.065   9.996  19.601  1.00  0.00    -0.341 N
ATOM     40 2H11 UNL     1      16.602   9.162  19.365  1.00  0.00     0.177 HD
ATOM     41 1H11 UNL     1      15.644  10.548  18.853  1.00  0.00     0.177 HD
ENDBRANCH  36  39
ENDBRANCH  14  33
TORSDOF 10
ENDMDL