MODEL 1
REMARK VINA RESULT: -8.381625502      0.000      0.000
REMARK  4 active torsions:
REMARK  status: ('A' for Active; 'I' for Inactive)
REMARK    1  A    between atoms: N1_1  and  N2_4
REMARK       I    between atoms: N2_4  and  C1_6
REMARK    2  A    between atoms: N4_8  and  C2_10
REMARK    3  A    between atoms: C2_10  and  C3_11
REMARK    4  A    between atoms: C3_11  and  N5_12
ROOT
HETATM    1  N5  UNL     1      12.866   4.858  20.949  1.00  0.00    -0.254 N
HETATM    2  N6  UNL     1      12.746   3.605  21.555  1.00  0.00    -0.262 N
ATOM      3  H6  UNL     1      13.373   2.816  21.396  1.00  0.00     0.190 HD
HETATM    4  C4  UNL     1      11.639   3.591  22.413  1.00  0.00     0.287 C
HETATM    5  O1  UNL     1      11.334   2.815  23.361  1.00  0.00    -0.267 OA
HETATM    6  C5  UNL     1      10.791   4.759  21.983  1.00  0.00     0.267 C
HETATM    7  N7  UNL     1      10.110   5.268  23.122  1.00  0.00    -0.329 N
ATOM      8  H7  UNL     1      10.700   5.293  23.953  1.00  0.00     0.164 HD
HETATM    9  C6  UNL     1       8.811   5.744  23.366  1.00  0.00     0.192 C
HETATM   10  N8  UNL     1       8.377   5.803  24.713  1.00  0.00    -0.063 NA
HETATM   11  N9  UNL     1       7.951   6.141  22.491  1.00  0.00    -0.304 N
ATOM     12  H9  UNL     1       7.069   6.446  22.903  1.00  0.00     0.171 HD
HETATM   13  C7  UNL     1       7.970   6.244  21.078  1.00  0.00     0.200 C
HETATM   14  N10 UNL     1       7.178   7.268  20.496  1.00  0.00    -0.063 NA
HETATM   15  N11 UNL     1       8.631   5.508  20.253  1.00  0.00    -0.301 N
ATOM     16  H11 UNL     1       8.529   5.724  19.261  1.00  0.00     0.176 HD
HETATM   17  S1  UNL     1       9.705   4.154  20.674  1.00  0.00    -0.000 SA
HETATM   18  C8  UNL     1      11.808   5.668  21.431  1.00  0.00     0.289 C
HETATM   19  O2  UNL     1      11.737   6.912  21.400  1.00  0.00    -0.267 OA
ENDROOT
BRANCH   1  20
HETATM   20  C3  UNL     1      13.914   5.183  20.013  1.00  0.00     0.172 C
BRANCH  20  21
HETATM   21  C2  UNL     1      15.077   5.891  20.634  1.00  0.00     0.144 C
BRANCH  21  22
HETATM   22  N4  UNL     1      14.854   7.309  20.526  1.00  0.00    -0.362 N
HETATM   23  C1  UNL     1      15.443   8.091  19.717  1.00  0.00     0.202 C
HETATM   24  N2  UNL     1      15.129   9.465  19.714  1.00  0.00    -0.280 N
HETATM   25  N3  UNL     1      16.424   7.636  18.793  1.00  0.00    -0.062 NA
ATOM     26  H2  UNL     1      14.407   9.822  19.089  1.00  0.00     0.189 HD
ATOM     27  H4  UNL     1      14.165   7.722  21.154  1.00  0.00     0.162 HD
BRANCH  24  28
HETATM   28  N1  UNL     1      15.801  10.329  20.560  1.00  0.00    -0.343 N
ATOM     29  H12 UNL     1      16.801  10.479  20.421  1.00  0.00     0.176 HD
ATOM     30  H11 UNL     1      15.297  10.805  21.307  1.00  0.00     0.176 HD
ENDBRANCH  24  28
ENDBRANCH  21  22
ENDBRANCH  20  21
ENDBRANCH   1  20
TORSDOF 4
ENDMDL