MODEL 2
REMARK VINA RESULT: -7.938379580      2.738      4.587
REMARK  10 active torsions:
REMARK  status: ('A' for Active; 'I' for Inactive)
REMARK    1  A    between atoms: N1_1  and  N2_4
REMARK    2  A    between atoms: N2_4  and  N3_6
REMARK       I    between atoms: C1_8  and  N5_10
REMARK    3  A    between atoms: N5_10  and  C2_12
REMARK    4  A    between atoms: C2_12  and  O1_13
REMARK    5  A    between atoms: C2_12  and  C3_15
REMARK    6  A    between atoms: C3_15  and  N6_16
REMARK    7  A    between atoms: C3_15  and  C8_31
REMARK       I    between atoms: N6_16  and  C4_18
REMARK    8  A    between atoms: C4_18  and  C5_20
REMARK    9  A    between atoms: C8_31  and  O5_32
REMARK   10  A    between atoms: C8_31  and  O6_34
ROOT
HETATM    1  C3  UNL     1       8.968   5.981  23.422  1.00  0.00     0.118 C
ENDROOT
BRANCH   1   2
HETATM    2  C2  UNL     1       8.337   5.904  22.198  1.00  0.00     0.170 C
BRANCH   2   3
HETATM    3  N5  UNL     1       7.101   5.243  21.848  1.00  0.00    -0.308 N
HETATM    4  C1  UNL     1       7.064   4.013  21.151  1.00  0.00     0.210 C
HETATM    5  N3  UNL     1       6.019   3.376  20.861  1.00  0.00    -0.259 N
HETATM    6  N4  UNL     1       8.302   3.420  20.606  1.00  0.00    -0.062 NA
ATOM      7  H3  UNL     1       6.216   2.556  20.288  1.00  0.00     0.191 HD
ATOM      8  H5  UNL     1       6.220   5.681  22.114  1.00  0.00     0.170 HD
BRANCH   5   9
HETATM    9  N2  UNL     1       4.704   3.509  21.121  1.00  0.00    -0.247 N
ATOM     10  H2  UNL     1       4.155   4.234  20.660  1.00  0.00     0.207 HD
BRANCH   9  11
HETATM   11  N1  UNL     1       4.146   2.698  21.969  1.00  0.00    -0.331 N
ATOM     12  H12 UNL     1       3.609   1.901  21.625  1.00  0.00     0.178 HD
ATOM     13  H11 UNL     1       4.255   2.876  22.967  1.00  0.00     0.178 HD
ENDBRANCH   9  11
ENDBRANCH   5   9
ENDBRANCH   2   3
BRANCH   2  14
HETATM   14  O1  UNL     1       8.839   6.469  21.109  1.00  0.00    -0.344 OA
ATOM     15  H1  UNL     1       9.209   7.312  21.346  1.00  0.00     0.219 HD
ENDBRANCH   2  14
ENDBRANCH   1   2
BRANCH   1  16
HETATM   16  N6  UNL     1       9.588   6.051  24.621  1.00  0.00    -0.316 N
HETATM   17  C4  UNL     1       9.047   6.676  25.818  1.00  0.00     0.290 C
HETATM   18  O2  UNL     1       7.957   7.267  25.697  1.00  0.00    -0.264 OA
ATOM     19  H6  UNL     1      10.514   5.630  24.694  1.00  0.00     0.169 HD
BRANCH  17  20
HETATM   20  C5  UNL     1       9.773   6.580  27.074  1.00  0.00     0.182 A
HETATM   21  N7  UNL     1      10.224   5.385  27.483  1.00  0.00    -0.290 N
HETATM   22  C6  UNL     1      11.026   5.238  28.551  1.00  0.00     0.329 A
ATOM     23  H7  UNL     1       9.946   4.553  26.963  1.00  0.00     0.172 HD
HETATM   24  O3  UNL     1      11.454   4.105  28.935  1.00  0.00    -0.246 OA
HETATM   25  N8  UNL     1      11.369   6.369  29.224  1.00  0.00    -0.260 N
HETATM   26  C7  UNL     1      10.939   7.567  28.843  1.00  0.00     0.329 A
ATOM     27  H8  UNL     1      11.973   6.295  30.042  1.00  0.00     0.175 HD
HETATM   28  O4  UNL     1      11.318   8.561  29.527  1.00  0.00    -0.246 OA
HETATM   29  N9  UNL     1      10.142   7.682  27.775  1.00  0.00    -0.290 N
ATOM     30  H9  UNL     1       9.809   8.602  27.486  1.00  0.00     0.172 HD
ENDBRANCH  17  20
ENDBRANCH   1  16
BRANCH   1  31
HETATM   31  C8  UNL     1      10.298   5.003  22.828  1.00  0.00     0.309 C
BRANCH  31  32
HETATM   32  O5  UNL     1      11.340   5.912  22.891  1.00  0.00    -0.366 OA
ATOM     33  H5  UNL     1      12.085   5.342  22.742  1.00  0.00     0.213 HD
ENDBRANCH  31  32
BRANCH  31  34
HETATM   34  O6  UNL     1      10.275   4.024  23.736  1.00  0.00    -0.366 OA
ATOM     35  H6  UNL     1      10.841   3.396  23.303  1.00  0.00     0.213 HD
ENDBRANCH  31  34
ENDBRANCH   1  31
TORSDOF 10
ENDMDL