MODEL 2
REMARK VINA RESULT: -6.508259841      2.137      6.556
REMARK  5 active torsions:
REMARK  status: ('A' for Active; 'I' for Inactive)
REMARK    1  A    between atoms: N1_2  and  S1_4
REMARK    2  A    between atoms: S1_4  and  N2_7
REMARK    3  A    between atoms: N2_7  and  C3_9
REMARK    4  A    between atoms: C5_14  and  C6_15
REMARK       I    between atoms: N6_18  and  C7_19
REMARK       I    between atoms: C7_19  and  N7_20
REMARK       I    between atoms: C7_19  and  N8_24
REMARK    5  A    between atoms: C8_28  and  O4_29
ROOT
HETATM    1  C3  UNL     1      11.679   7.236  27.447  1.00  0.00     0.223 C
HETATM    2  N3  UNL     1      12.416   6.030  27.026  1.00  0.00    -0.355 N
ATOM      3  H3  UNL     1      13.358   5.870  27.383  1.00  0.00     0.162 HD
HETATM    4  C4  UNL     1      11.844   5.091  26.137  1.00  0.00     0.145 C
HETATM    5  N4  UNL     1      12.745   4.120  25.572  1.00  0.00    -0.080 NA
HETATM    6  C5  UNL     1      10.533   5.077  25.813  1.00  0.00     0.142 C
HETATM    7  N6  UNL     1       9.763   6.099  26.431  1.00  0.00    -0.294 N
HETATM    8  C7  UNL     1       8.472   6.496  25.931  1.00  0.00     0.485 C
HETATM    9  N7  UNL     1       7.470   5.546  26.294  1.00  0.00    -0.033 N
ATOM     10  H71 UNL     1       6.556   5.827  25.940  1.00  0.00     0.278 HD
ATOM     11  H72 UNL     1       7.452   5.384  27.300  1.00  0.00     0.278 HD
ATOM     12  H73 UNL     1       7.718   4.604  25.990  1.00  0.00     0.278 HD
HETATM   13  N8  UNL     1       8.476   6.862  24.526  1.00  0.00    -0.033 N
ATOM     14  H81 UNL     1       7.562   7.143  24.173  1.00  0.00     0.278 HD
ATOM     15  H82 UNL     1       8.864   6.108  23.959  1.00  0.00     0.278 HD
ATOM     16  H83 UNL     1       9.170   7.587  24.346  1.00  0.00     0.278 HD
HETATM   17  C8  UNL     1      10.249   6.788  27.642  1.00  0.00     0.262 C
ENDROOT
BRANCH   6  18
HETATM   18  C6  UNL     1      10.044   4.084  24.899  1.00  0.00     0.284 C
HETATM   19  N5  UNL     1       9.436   2.909  25.423  1.00  0.00    -0.056 NA
HETATM   20  O3  UNL     1      10.101   4.153  23.672  1.00  0.00    -0.269 OA
ENDBRANCH   6  18
BRANCH  17  21
HETATM   21  O4  UNL     1      10.113   5.845  28.655  1.00  0.00    -0.373 OA
ATOM     22  H4  UNL     1       9.645   5.068  28.374  1.00  0.00     0.212 HD
ENDBRANCH  17  21
BRANCH   1  23
HETATM   23  N2  UNL     1      12.258   7.833  28.580  1.00  0.00    -0.171 NA
HETATM   24  C2  UNL     1      11.515   8.822  29.267  1.00  0.00     0.133 C
BRANCH  23  25
HETATM   25  S1  UNL     1      13.847   8.441  28.343  1.00  0.00     0.300 S
HETATM   26  O1  UNL     1      14.389   8.832  29.690  1.00  0.00    -0.188 OA
HETATM   27  O2  UNL     1      14.785   7.441  27.763  1.00  0.00    -0.188 OA
BRANCH  25  28
HETATM   28  N1  UNL     1      13.878   9.834  27.331  1.00  0.00    -0.311 N
HETATM   29  C1  UNL     1      14.315   9.527  25.990  1.00  0.00     0.160 C
ATOM     30  H1  UNL     1      13.618  10.769  27.643  1.00  0.00     0.172 HD
ENDBRANCH  25  28
ENDBRANCH  23  25
ENDBRANCH   1  23
TORSDOF 5
ENDMDL