MODEL 3
REMARK VINA RESULT: -7.668878241      3.963      8.352
REMARK  8 active torsions:
REMARK  status: ('A' for Active; 'I' for Inactive)
REMARK    1  A    between atoms: N1_1  and  N2_4
REMARK    2  A    between atoms: N2_4  and  S1_6
REMARK    3  A    between atoms: S1_6  and  N3_8
REMARK    4  A    between atoms: S1_6  and  N5_13
REMARK    5  A    between atoms: N3_8  and  N4_10
REMARK    6  A    between atoms: N5_13  and  N6_15
REMARK       I    between atoms: N6_15  and  C1_17
REMARK    7  A    between atoms: N8_19  and  N9_21
REMARK    8  A    between atoms: N9_21  and  C2_23
ROOT
HETATM    1  N6  UNL     1      17.045  10.412  22.514  1.00  0.00    -0.263 N
ATOM      2  H6  UNL     1      16.645  11.273  22.142  1.00  0.00     0.190 HD
HETATM    3  C1  UNL     1      17.161  10.224  23.903  1.00  0.00     0.222 C
HETATM    4  N7  UNL     1      18.246   9.498  24.435  1.00  0.00    -0.061 NA
HETATM    5  N8  UNL     1      16.283  10.709  24.696  1.00  0.00    -0.271 N
ATOM      6  H8  UNL     1      15.499  11.234  24.310  1.00  0.00     0.189 HD
ENDROOT
BRANCH   1   7
HETATM    7  N5  UNL     1      17.483   9.410  21.649  1.00  0.00    -0.223 N
ATOM      8  H5  UNL     1      18.417   9.004  21.697  1.00  0.00     0.200 HD
BRANCH   7   9
HETATM    9  S1  UNL     1      16.323   8.926  20.508  1.00  0.00     0.243 S
HETATM   10  O1  UNL     1      16.061   7.466  20.473  1.00  0.00    -0.201 OA
BRANCH   9  11
HETATM   11  N2  UNL     1      16.718   9.344  19.028  1.00  0.00    -0.232 N
ATOM     12  H2  UNL     1      17.685   9.392  18.707  1.00  0.00     0.199 HD
BRANCH  11  13
HETATM   13  N1  UNL     1      15.626   9.641  18.200  1.00  0.00    -0.336 N
ATOM     14  H12 UNL     1      15.663   9.510  17.189  1.00  0.00     0.177 HD
ATOM     15  H11 UNL     1      14.807   9.995  18.694  1.00  0.00     0.177 HD
ENDBRANCH  11  13
ENDBRANCH   9  11
BRANCH   9  16
HETATM   16  N3  UNL     1      14.802   9.731  20.819  1.00  0.00    -0.232 N
ATOM     17  H3  UNL     1      14.612  10.732  20.765  1.00  0.00     0.199 HD
BRANCH  16  18
HETATM   18  N4  UNL     1      13.892   8.706  21.159  1.00  0.00    -0.336 N
ATOM     19  H42 UNL     1      13.186   8.741  21.894  1.00  0.00     0.177 HD
ATOM     20  H41 UNL     1      14.094   7.938  20.519  1.00  0.00     0.177 HD
ENDBRANCH  16  18
ENDBRANCH   9  16
ENDBRANCH   7   9
ENDBRANCH   1   7
BRANCH   5  21
HETATM   21  N9  UNL     1      16.372  10.537  26.078  1.00  0.00    -0.280 N
ATOM     22  H9  UNL     1      17.291  10.544  26.521  1.00  0.00     0.189 HD
BRANCH  21  23
HETATM   23  C2  UNL     1      15.204  10.350  26.895  1.00  0.00     0.181 A
HETATM   24  N10 UNL     1      14.853  11.184  27.797  1.00  0.00    -0.290 N
HETATM   25  C3  UNL     1      13.700  11.013  28.612  1.00  0.00     0.328 A
ATOM     26  H10 UNL     1      15.428  12.014  27.940  1.00  0.00     0.172 HD
HETATM   27  O2  UNL     1      13.391  11.862  29.491  1.00  0.00    -0.247 OA
HETATM   28  N11 UNL     1      12.843   9.887  28.481  1.00  0.00    -0.272 N
HETATM   29  C4  UNL     1      13.182   8.923  27.493  1.00  0.00     0.303 A
ATOM     30  H11 UNL     1      12.019   9.774  29.072  1.00  0.00     0.174 HD
HETATM   31  O3  UNL     1      12.449   7.916  27.347  1.00  0.00    -0.263 OA
HETATM   32  C5  UNL     1      14.377   9.163  26.694  1.00  0.00     0.284 A
HETATM   33  O4  UNL     1      14.707   8.331  25.809  1.00  0.00    -0.278 OA
ENDBRANCH  21  23
ENDBRANCH   5  21
TORSDOF 8
ENDMDL