MODEL 2
REMARK VINA RESULT: -7.249149827      2.138      5.241
REMARK  6 active torsions:
REMARK  status: ('A' for Active; 'I' for Inactive)
REMARK    1  A    between atoms: C1_2  and  C2_4
REMARK    2  A    between atoms: C2_4  and  O2_5
REMARK    3  A    between atoms: C2_4  and  C3_7
REMARK    4  A    between atoms: C3_7  and  O3_8
REMARK    5  A    between atoms: C3_7  and  C4_10
REMARK    6  A    between atoms: C4_10  and  N2_11
REMARK       I    between atoms: N3_13  and  C6_15
REMARK       I    between atoms: C6_15  and  N4_16
REMARK       I    between atoms: C6_15  and  N5_20
ROOT
HETATM    1  N2  UNL     1      10.509   5.222  23.479  1.00  0.00    -0.310 N
HETATM    2  C5  UNL     1       9.895   5.083  24.699  1.00  0.00     0.177 A
HETATM    3  N3  UNL     1       8.976   5.905  24.963  1.00  0.00    -0.322 N
ATOM      4  H3  UNL     1       8.803   6.582  24.219  1.00  0.00     0.165 HD
HETATM    5  C6  UNL     1       8.141   6.070  26.083  1.00  0.00     0.481 C
HETATM    6  N4  UNL     1       7.484   7.387  25.971  1.00  0.00    -0.033 N
ATOM      7  H41 UNL     1       6.879   7.507  26.783  1.00  0.00     0.278 HD
ATOM      8  H42 UNL     1       6.988   7.507  25.088  1.00  0.00     0.278 HD
ATOM      9  H43 UNL     1       8.150   8.152  25.858  1.00  0.00     0.278 HD
HETATM   10  N5  UNL     1       7.080   5.086  26.212  1.00  0.00    -0.033 N
ATOM     11  H51 UNL     1       6.475   5.206  27.024  1.00  0.00     0.278 HD
ATOM     12  H52 UNL     1       7.471   4.144  26.201  1.00  0.00     0.278 HD
ATOM     13  H53 UNL     1       6.522   5.058  25.359  1.00  0.00     0.278 HD
HETATM   14  C7  UNL     1      10.323   4.076  25.536  1.00  0.00     0.290 A
HETATM   15  O4  UNL     1       9.794   3.905  26.665  1.00  0.00    -0.264 OA
HETATM   16  N6  UNL     1      11.325   3.270  25.123  1.00  0.00    -0.313 N
ATOM     17  H6  UNL     1      11.642   2.524  25.742  1.00  0.00     0.169 HD
HETATM   18  C8  UNL     1      11.920   3.412  23.930  1.00  0.00     0.148 A
HETATM   19  C9  UNL     1      12.946   2.592  23.499  1.00  0.00     0.277 A
HETATM   20  O5  UNL     1      13.322   1.690  24.263  1.00  0.00    -0.266 OA
HETATM   21  N7  UNL     1      13.527   2.763  22.287  1.00  0.00    -0.318 N
ATOM     22  H7  UNL     1      14.283   2.145  21.992  1.00  0.00     0.169 HD
HETATM   23  C10 UNL     1      13.107   3.745  21.473  1.00  0.00     0.185 A
HETATM   24  N8  UNL     1      12.114   4.542  21.887  1.00  0.00    -0.336 N
ATOM     25  H8  UNL     1      11.803   5.287  21.264  1.00  0.00     0.168 HD
HETATM   26  C11 UNL     1      11.504   4.414  23.080  1.00  0.00     0.143 A
ENDROOT
BRANCH   1  27
HETATM   27  C4  UNL     1      10.113   6.254  22.538  1.00  0.00     0.167 C
BRANCH  27  28
HETATM   28  C3  UNL     1       8.638   6.173  22.210  1.00  0.00     0.174 C
BRANCH  28  29
HETATM   29  C2  UNL     1       8.413   5.693  20.793  1.00  0.00     0.237 C
BRANCH  29  30
HETATM   30  C1  UNL     1       8.371   4.232  20.688  1.00  0.00     0.262 C
HETATM   31  N1  UNL     1       7.172   3.494  20.850  1.00  0.00    -0.060 NA
HETATM   32  O1  UNL     1       9.422   3.597  20.445  1.00  0.00    -0.274 OA
ENDBRANCH  29  30
BRANCH  29  33
HETATM   33  O2  UNL     1       9.361   6.198  19.925  1.00  0.00    -0.384 OA
ATOM     34  H2  UNL     1      10.131   5.642  19.929  1.00  0.00     0.210 HD
ENDBRANCH  29  33
ENDBRANCH  28  29
BRANCH  28  35
HETATM   35  O3  UNL     1       7.947   7.347  22.444  1.00  0.00    -0.391 OA
ATOM     36  H3  UNL     1       7.932   7.549  23.373  1.00  0.00     0.210 HD
ENDBRANCH  28  35
ENDBRANCH  27  28
ENDBRANCH   1  27
TORSDOF 6
ENDMDL