MODEL 4
REMARK VINA RESULT: -7.386725825      1.333      1.494
REMARK  10 active torsions:
REMARK  status: ('A' for Active; 'I' for Inactive)
REMARK    1  A    between atoms: N1_1  and  C1_4
REMARK    2  A    between atoms: C2_7  and  N3_8
REMARK    3  A    between atoms: N3_8  and  N4_10
REMARK    4  A    between atoms: C4_16  and  C5_17
REMARK    5  A    between atoms: C5_17  and  N6_18
REMARK    6  A    between atoms: N6_18  and  S1_20
REMARK    7  A    between atoms: S1_20  and  N7_21
REMARK    8  A    between atoms: S1_20  and  N8_25
REMARK    9  A    between atoms: N8_25  and  C6_27
REMARK   10  A    between atoms: N12_34  and  O2_35
ROOT
HETATM    1  N6  UNL     1      12.352   4.424  21.687  1.00  0.00    -0.315 N
ATOM      2  H6  UNL     1      12.976   3.627  21.563  1.00  0.00     0.172 HD
ENDROOT
BRANCH   1   3
HETATM    3  C5  UNL     1      12.860   5.681  22.303  1.00  0.00     0.176 C
BRANCH   3   4
HETATM    4  C4  UNL     1      13.740   6.383  21.384  1.00  0.00     0.020 A
HETATM    5  C1  UNL     1      13.680   7.727  21.363  1.00  0.00     0.124 A
HETATM    6  N2  UNL     1      14.429   8.457  20.530  1.00  0.00    -0.175 N
HETATM    7  C2  UNL     1      15.267   7.783  19.685  1.00  0.00     0.697 A
ATOM      8  H2  UNL     1      14.377   9.476  20.526  1.00  0.00     0.186 HD
HETATM    9  N5  UNL     1      15.332   6.458  19.687  1.00  0.00    -0.200 N
HETATM   10  C3  UNL     1      14.593   5.721  20.516  1.00  0.00     0.118 A
ATOM     11  H5  UNL     1      15.965   5.991  19.038  1.00  0.00     0.183 HD
BRANCH   5  12
HETATM   12  N1  UNL     1      12.889   8.370  22.138  1.00  0.00    -0.385 N
ATOM     13  H12 UNL     1      12.022   8.779  21.789  1.00  0.00     0.157 HD
ATOM     14  H11 UNL     1      13.174   8.457  23.113  1.00  0.00     0.157 HD
ENDBRANCH   5  12
BRANCH   7  15
HETATM   15  N3  UNL     1      16.119   8.515  19.002  1.00  0.00    -0.138 N
ATOM     16  H3  UNL     1      17.108   8.266  18.969  1.00  0.00     0.205 HD
BRANCH  15  17
HETATM   17  N4  UNL     1      15.651   9.626  18.332  1.00  0.00    -0.331 N
ATOM     18  H42 UNL     1      14.744   9.589  17.865  1.00  0.00     0.177 HD
ATOM     19  H41 UNL     1      16.225  10.468  18.317  1.00  0.00     0.177 HD
ENDBRANCH  15  17
ENDBRANCH   7  15
ENDBRANCH   3   4
ENDBRANCH   1   3
BRANCH   1  20
HETATM   20  S1  UNL     1      10.754   4.322  21.198  1.00  0.00     0.206 S
HETATM   21  O1  UNL     1      10.542   6.057  21.446  1.00  0.00    -0.206 OA
BRANCH  20  22
HETATM   22  N7  UNL     1      11.565   3.726  19.481  1.00  0.00    -0.328 N
ATOM     23  H72 UNL     1      11.957   4.151  18.642  1.00  0.00     0.168 HD
ATOM     24  H71 UNL     1      11.392   2.796  19.862  1.00  0.00     0.168 HD
ENDBRANCH  20  22
BRANCH  20  25
HETATM   25  N8  UNL     1       9.251   4.403  20.451  1.00  0.00    -0.112 N
ATOM     26  H8  UNL     1       9.304   3.926  19.550  1.00  0.00     0.197 HD
BRANCH  25  27
HETATM   27  C6  UNL     1       8.122   4.830  20.606  1.00  0.00     0.750 A
HETATM   28  N9  UNL     1       7.026   4.287  21.140  1.00  0.00    -0.112 N
HETATM   29  N10 UNL     1       5.971   5.046  20.897  1.00  0.00    -0.211 N
ATOM     30  H9  UNL     1       7.005   3.412  21.662  1.00  0.00     0.207 HD
HETATM   31  N11 UNL     1       6.361   6.101  20.214  1.00  0.00    -0.186 N
ATOM     32  H10 UNL     1       5.014   4.848  21.190  1.00  0.00     0.210 HD
HETATM   33  N12 UNL     1       7.628   6.011  20.020  1.00  0.00     0.034 N
ATOM     34  H11 UNL     1       5.761   6.861  19.893  1.00  0.00     0.213 HD
BRANCH  33  35
HETATM   35  O2  UNL     1       8.503   6.852  19.335  1.00  0.00    -0.253 OA
ATOM     36  H2  UNL     1       8.686   7.716  19.682  1.00  0.00     0.247 HD
ENDBRANCH  33  35
ENDBRANCH  25  27
ENDBRANCH  20  25
ENDBRANCH   1  20
TORSDOF 10
ENDMDL