MODEL 1
REMARK VINA RESULT: -7.554826566      0.000      0.000
REMARK  11 active torsions:
REMARK  status: ('A' for Active; 'I' for Inactive)
REMARK    1  A    between atoms: C1_2  and  C2_4
REMARK    2  A    between atoms: C2_4  and  N2_5
REMARK    3  A    between atoms: C2_4  and  C6_28
REMARK    4  A    between atoms: N2_5  and  N3_7
REMARK    5  A    between atoms: N3_7  and  C3_9
REMARK    6  A    between atoms: C3_9  and  O2_10
REMARK    7  A    between atoms: N4_12  and  C4_14
REMARK    8  A    between atoms: C5_19  and  S1_20
REMARK    9  A    between atoms: S1_20  and  N7_21
REMARK   10  A    between atoms: C6_28  and  N9_29
REMARK   11  A    between atoms: C6_28  and  N10_33
ROOT
HETATM    1  C3  UNL     1      15.880  10.772  26.006  1.00  0.00     0.250 C
HETATM    2  N4  UNL     1      16.917  10.554  25.157  1.00  0.00    -0.152 N
ATOM      3  H4  UNL     1      17.749  11.103  25.377  1.00  0.00     0.188 HD
ENDROOT
BRANCH   1   4
HETATM    4  N3  UNL     1      15.028   9.755  26.476  1.00  0.00    -0.268 N
ATOM      5  H3  UNL     1      15.209   8.782  26.230  1.00  0.00     0.190 HD
BRANCH   4   6
HETATM    6  N2  UNL     1      13.956  10.076  27.265  1.00  0.00    -0.316 N
ATOM      7  H2  UNL     1      13.236  10.701  26.904  1.00  0.00     0.181 HD
BRANCH   6   8
HETATM    8  C2  UNL     1      13.833   9.560  28.558  1.00  0.00     0.246 C
BRANCH   8   9
HETATM    9  C1  UNL     1      14.850  10.054  29.515  1.00  0.00     0.259 C
HETATM   10  N1  UNL     1      15.093   9.260  30.680  1.00  0.00    -0.060 NA
HETATM   11  O1  UNL     1      15.493  11.136  29.331  1.00  0.00    -0.274 OA
ENDBRANCH   8   9
BRANCH   8  12
HETATM   12  C6  UNL     1      12.414   9.875  29.059  1.00  0.00     0.410 C
BRANCH  12  13
HETATM   13  N9  UNL     1      12.085   9.024  30.190  1.00  0.00    -0.048 N
ATOM     14  H93 UNL     1      12.901   8.521  30.540  1.00  0.00     0.276 HD
ATOM     15  H92 UNL     1      11.874   9.566  31.028  1.00  0.00     0.276 HD
ATOM     16  H91 UNL     1      11.324   8.392  29.942  1.00  0.00     0.276 HD
ENDBRANCH  12  13
BRANCH  12  17
HETATM   17  N10 UNL     1      12.298  11.237  29.460  1.00  0.00    -0.048 N
ATOM     18 3H10 UNL     1      12.038  11.317  30.444  1.00  0.00     0.276 HD
ATOM     19 2H10 UNL     1      13.209  11.694  29.500  1.00  0.00     0.276 HD
ATOM     20 1H10 UNL     1      11.650  11.746  28.859  1.00  0.00     0.276 HD
ENDBRANCH  12  17
ENDBRANCH   8  12
ENDBRANCH   6   8
ENDBRANCH   4   6
ENDBRANCH   1   4
BRANCH   1  21
HETATM   21  O2  UNL     1      15.661  11.988  26.416  1.00  0.00    -0.331 OA
ATOM     22  H2  UNL     1      16.022  12.702  25.903  1.00  0.00     0.221 HD
ENDBRANCH   1  21
BRANCH   2  23
HETATM   23  C4  UNL     1      17.056   9.810  24.151  1.00  0.00     0.702 A
HETATM   24  N5  UNL     1      17.541   8.569  23.970  1.00  0.00    -0.130 N
HETATM   25  N6  UNL     1      17.470   8.237  22.674  1.00  0.00    -0.260 N
ATOM     26  H5  UNL     1      17.909   7.969  24.709  1.00  0.00     0.205 HD
HETATM   27  C5  UNL     1      16.943   9.251  22.016  1.00  0.00     0.253 A
ATOM     28  H6  UNL     1      17.771   7.352  22.266  1.00  0.00     0.190 HD
HETATM   29  N8  UNL     1      16.687  10.204  22.878  1.00  0.00    -0.162 N
ATOM     30  H8  UNL     1      16.274  11.107  22.644  1.00  0.00     0.186 HD
BRANCH  27  31
HETATM   31  S1  UNL     1      16.599   9.400  20.287  1.00  0.00     0.290 S
HETATM   32  O3  UNL     1      15.928  10.700  19.974  1.00  0.00    -0.198 OA
HETATM   33  O4  UNL     1      15.776   8.201  19.912  1.00  0.00    -0.198 OA
BRANCH  31  34
HETATM   34  N7  UNL     1      18.060   9.327  19.380  1.00  0.00    -0.322 N
ATOM     35  H72 UNL     1      18.808  10.018  19.445  1.00  0.00     0.169 HD
ATOM     36  H71 UNL     1      18.062   8.502  18.780  1.00  0.00     0.169 HD
ENDBRANCH  31  34
ENDBRANCH  27  31
ENDBRANCH   2  23
TORSDOF 11
ENDMDL