MODEL 5
REMARK VINA RESULT: -7.376121172      5.579      6.621
REMARK  7 active torsions:
REMARK  status: ('A' for Active; 'I' for Inactive)
REMARK    1  A    between atoms: N1_1  and  C1_4
REMARK    2  A    between atoms: C2_7  and  N3_8
REMARK    3  A    between atoms: N3_8  and  N4_9
REMARK    4  A    between atoms: N5_15  and  C5_16
REMARK    5  A    between atoms: C5_16  and  C6_17
REMARK    6  A    between atoms: C7_20  and  N7_21
REMARK    7  A    between atoms: N7_21  and  N8_23
REMARK       I    between atoms: N8_23  and  C8_24
ROOT
HETATM    1  C1  UNL     1       9.660   6.806  27.264  1.00  0.00     0.679 A
HETATM    2  N2  UNL     1      10.924   6.449  27.096  1.00  0.00    -0.161 N
ATOM      3  H2  UNL     1      11.590   6.647  27.843  1.00  0.00     0.187 HD
HETATM    4  C2  UNL     1      11.380   5.819  25.950  1.00  0.00     0.236 A
HETATM    5  C3  UNL     1      10.409   5.579  24.959  1.00  0.00     0.138 A
HETATM    6  C4  UNL     1      10.755   4.951  23.776  1.00  0.00     0.281 A
HETATM    7  O1  UNL     1      11.929   4.582  23.532  1.00  0.00    -0.266 OA
HETATM    8  N5  UNL     1       9.826   4.711  22.831  1.00  0.00    -0.136 N
HETATM    9  C7  UNL     1       8.563   5.107  23.089  1.00  0.00     0.714 A
HETATM   10  N10 UNL     1       8.210   5.720  24.232  1.00  0.00    -0.172 N
ATOM     11  H10 UNL     1       7.239   5.998  24.370  1.00  0.00     0.186 HD
HETATM   12  C9  UNL     1       9.120   5.976  25.204  1.00  0.00     0.157 A
HETATM   13  N11 UNL     1       8.725   6.581  26.327  1.00  0.00    -0.175 N
ATOM     14  H11 UNL     1       7.755   6.861  26.466  1.00  0.00     0.186 HD
ENDROOT
BRANCH   9  15
HETATM   15  N7  UNL     1       7.712   4.843  22.160  1.00  0.00    -0.060 N
ATOM     16  H7  UNL     1       7.393   3.875  22.176  1.00  0.00     0.221 HD
BRANCH  15  17
HETATM   17  N8  UNL     1       7.171   5.538  21.206  1.00  0.00    -0.253 NA
HETATM   18  C8  UNL     1       6.610   6.256  20.220  1.00  0.00     0.424 C
HETATM   19  N9  UNL     1       7.389   7.267  19.488  1.00  0.00    -0.024 NA
HETATM   20  O3  UNL     1       5.412   6.177  19.797  1.00  0.00    -0.232 OA
ENDBRANCH  15  17
ENDBRANCH   9  15
BRANCH   8  21
HETATM   21  C5  UNL     1      10.174   4.052  21.590  1.00  0.00     0.250 C
BRANCH  21  22
HETATM   22  C6  UNL     1      10.798   4.967  20.592  1.00  0.00     0.250 C
HETATM   23  N6  UNL     1      11.838   4.411  19.814  1.00  0.00    -0.061 NA
HETATM   24  O2  UNL     1      10.394   6.152  20.480  1.00  0.00    -0.275 OA
ENDBRANCH  21  22
ENDBRANCH   8  21
BRANCH   4  25
HETATM   25  N3  UNL     1      12.527   5.477  25.831  1.00  0.00    -0.313 NA
BRANCH  25  26
HETATM   26  N4  UNL     1      13.761   5.126  25.695  1.00  0.00    -0.278 N
ATOM     27  H42 UNL     1      12.997   5.673  25.297  1.00  0.00     0.191 HD
ATOM     28  H41 UNL     1      14.735   4.840  25.598  1.00  0.00     0.191 HD
ENDBRANCH  25  26
ENDBRANCH   4  25
BRANCH   1  29
HETATM   29  N1  UNL     1       9.302   7.396  28.360  1.00  0.00    -0.234 N
ATOM     30  H12 UNL     1       8.321   7.351  28.634  1.00  0.00     0.174 HD
ATOM     31  H11 UNL     1       9.998   7.892  28.916  1.00  0.00     0.174 HD
ENDBRANCH   1  29
TORSDOF 7
ENDMDL