MODEL 1
REMARK VINA RESULT: -9.837698163      0.000      0.000
REMARK  14 active torsions:
REMARK  status: ('A' for Active; 'I' for Inactive)
REMARK    1  A    between atoms: C3_3  and  C4_4
REMARK    2  A    between atoms: C7_7  and  C8_8
REMARK       I    between atoms: C8_8  and  N1_10
REMARK    3  A    between atoms: N1_10  and  C9_12
REMARK    4  A    between atoms: C9_12  and  C10_13
REMARK    5  A    between atoms: C10_13  and  C11_14
REMARK    6  A    between atoms: C11_14  and  C12_15
REMARK    7  A    between atoms: C14_19  and  N3_20
REMARK    8  A    between atoms: C17_30  and  O2_31
REMARK    9  A    between atoms: O2_31  and  C18_32
REMARK   10  A    between atoms: C18_32  and  C19_33
REMARK   11  A    between atoms: C19_33  and  C20_34
REMARK   12  A    between atoms: C20_34  and  C21_35
REMARK   13  A    between atoms: C21_35  and  C22_36
REMARK   14  A    between atoms: C22_36  and  N6_37
ROOT
HETATM    1  C1  UNL     1      -5.942  25.124  -4.876  1.00  0.00     0.012 C
HETATM    2  C2  UNL     1      -6.254  25.619  -5.932  1.00  0.00    -0.113 C
HETATM    3  C3  UNL     1      -6.655  26.228  -7.201  1.00  0.00     0.134 C
ENDROOT
BRANCH   3   4
HETATM    4  C4  UNL     1      -6.177  25.448  -8.375  1.00  0.00    -0.014 A
HETATM    5  C5  UNL     1      -4.861  25.520  -8.766  1.00  0.00     0.012 A
HETATM    6  C6  UNL     1      -4.362  24.824  -9.842  1.00  0.00     0.018 A
HETATM    7  C7  UNL     1      -5.202  24.018 -10.570  1.00  0.00     0.034 A
HETATM    8  C16 UNL     1      -6.538  23.948 -10.170  1.00  0.00     0.054 A
HETATM    9  C17 UNL     1      -7.054  24.630  -9.103  1.00  0.00     0.076 A
BRANCH   7  10
HETATM   10  C8  UNL     1      -4.682  23.261 -11.710  1.00  0.00     0.251 C
HETATM   11  O1  UNL     1      -5.167  22.124 -11.998  1.00  0.00    -0.268 OA
HETATM   12  N1  UNL     1      -3.637  23.825 -12.469  1.00  0.00    -0.357 N
ATOM     13  H1  UNL     1      -3.293  24.739 -12.176  1.00  0.00     0.162 HD
BRANCH  12  14
HETATM   14  C9  UNL     1      -3.007  23.230 -13.621  1.00  0.00     0.123 C
BRANCH  14  15
HETATM   15  C10 UNL     1      -3.485  23.882 -14.938  1.00  0.00     0.024 C
BRANCH  15  16
HETATM   16  C11 UNL     1      -4.272  22.854 -15.645  1.00  0.00     0.045 C
BRANCH  16  17
HETATM   17  C12 UNL     1      -5.243  23.272 -16.654  1.00  0.00     0.002 A
HETATM   18  C13 UNL     1      -6.156  24.241 -16.220  1.00  0.00     0.117 A
HETATM   19  N2  UNL     1      -7.084  24.690 -17.060  1.00  0.00    -0.202 N
HETATM   20  C14 UNL     1      -7.160  24.226 -18.334  1.00  0.00     0.677 A
ATOM     21  H2  UNL     1      -7.749  25.395 -16.742  1.00  0.00     0.183 HD
HETATM   22  N4  UNL     1      -6.310  23.316 -18.765  1.00  0.00    -0.177 N
HETATM   23  C15 UNL     1      -5.334  22.812 -17.951  1.00  0.00     0.122 A
ATOM     24  H4  UNL     1      -6.383  22.980 -19.725  1.00  0.00     0.185 HD
HETATM   25  N5  UNL     1      -4.544  21.959 -18.369  1.00  0.00    -0.385 N
ATOM     26  H52 UNL     1      -3.816  21.582 -17.762  1.00  0.00     0.157 HD
ATOM     27  H51 UNL     1      -4.612  21.618 -19.329  1.00  0.00     0.157 HD
BRANCH  20  28
HETATM   28  N3  UNL     1      -8.099  24.712 -19.108  1.00  0.00    -0.234 N
ATOM     29  H32 UNL     1      -7.878  25.251 -19.945  1.00  0.00     0.174 HD
ATOM     30  H31 UNL     1      -9.069  24.535 -18.848  1.00  0.00     0.174 HD
ENDBRANCH  20  28
ENDBRANCH  16  17
ENDBRANCH  15  16
ENDBRANCH  14  15
ENDBRANCH  12  14
ENDBRANCH   7  10
BRANCH   9  31
HETATM   31  O2  UNL     1      -8.329  24.590  -8.690  1.00  0.00    -0.350 OA
BRANCH  31  32
HETATM   32  C18 UNL     1      -9.548  24.408  -9.350  1.00  0.00     0.179 C
BRANCH  32  33
HETATM   33  C19 UNL     1     -10.013  25.686  -9.924  1.00  0.00     0.054 C
BRANCH  33  34
HETATM   34  C20 UNL     1     -11.400  25.860 -10.321  1.00  0.00    -0.023 C
BRANCH  34  35
HETATM   35  C21 UNL     1     -12.077  25.524 -11.529  1.00  0.00     0.014 C
BRANCH  35  36
HETATM   36  C22 UNL     1     -12.373  24.270 -12.168  1.00  0.00     0.103 C
BRANCH  36  37
HETATM   37  N6  UNL     1     -11.536  23.375 -12.825  1.00  0.00    -0.258 N
HETATM   38  C23 UNL     1     -10.955  22.250 -12.319  1.00  0.00     0.332 A
HETATM   39  O3  UNL     1     -11.110  21.855 -11.125  1.00  0.00    -0.246 OA
HETATM   40  N7  UNL     1     -10.229  21.671 -13.260  1.00  0.00    -0.304 N
HETATM   41  C24 UNL     1     -10.308  22.377 -14.383  1.00  0.00     0.098 A
ATOM     42  H7  UNL     1      -9.690  20.813 -13.142  1.00  0.00     0.171 HD
HETATM   43  C25 UNL     1      -9.753  22.220 -15.646  1.00  0.00     0.139 A
HETATM   44  C27 UNL     1     -11.124  23.443 -14.119  1.00  0.00     0.159 A
HETATM   45  N8  UNL     1     -10.013  23.108 -16.604  1.00  0.00    -0.200 N
HETATM   46  C26 UNL     1     -10.812  24.162 -16.364  1.00  0.00     0.677 A
ATOM     47  H8  UNL     1      -9.601  22.988 -17.530  1.00  0.00     0.183 HD
HETATM   48  N9  UNL     1     -11.067  25.023 -17.289  1.00  0.00    -0.234 N
HETATM   49  N10 UNL     1     -11.352  24.307 -15.123  1.00  0.00    -0.174 N
ATOM     50  H92 UNL     1     -10.661  24.914 -18.219  1.00  0.00     0.174 HD
ATOM     51  H91 UNL     1     -11.673  25.823 -17.106  1.00  0.00     0.174 HD
ATOM     52  H10 UNL     1     -11.958  25.109 -14.946  1.00  0.00     0.186 HD
ENDBRANCH  36  37
ENDBRANCH  35  36
ENDBRANCH  34  35
ENDBRANCH  33  34
ENDBRANCH  32  33
ENDBRANCH  31  32
ENDBRANCH   9  31
ENDBRANCH   3   4
TORSDOF 14
ENDMDL