MODEL 2
REMARK VINA RESULT: -8.774424400      1.302      1.893
REMARK  14 active torsions:
REMARK  status: ('A' for Active; 'I' for Inactive)
REMARK    1  A    between atoms: N2_3  and  S1_5
REMARK    2  A    between atoms: S1_5  and  C2_7
REMARK    3  A    between atoms: S1_5  and  N3_11
REMARK    4  A    between atoms: C2_7  and  C3_8
REMARK    5  A    between atoms: N3_11  and  C6_13
REMARK    6  A    between atoms: C6_13  and  C7_14
REMARK    7  A    between atoms: C7_14  and  C8_16
REMARK    8  A    between atoms: C11_19  and  C12_20
REMARK    9  A    between atoms: C14_26  and  N6_27
REMARK   10  A    between atoms: C15_32  and  N8_33
REMARK   11  A    between atoms: C17_39  and  N10_40
REMARK   12  A    between atoms: N10_40  and  C18_42
REMARK   13  A    between atoms: C18_42  and  C19_43
REMARK   14  A    between atoms: C19_43  and  N11_44
ROOT
HETATM    1  N1  UNL     1      -3.055  27.823 -14.413  1.00  0.00    -0.171 NA
HETATM    2  C1  UNL     1      -3.127  27.111 -15.352  1.00  0.00     0.190 C
HETATM    3  N2  UNL     1      -3.241  26.248 -16.487  1.00  0.00    -0.238 N
ATOM      4  H2  UNL     1      -2.409  25.793 -16.864  1.00  0.00     0.189 HD
ENDROOT
BRANCH   3   5
HETATM    5  S1  UNL     1      -4.853  25.958 -17.259  1.00  0.00     0.115 S
HETATM    6  O1  UNL     1      -4.006  26.680 -18.685  1.00  0.00    -0.228 OA
BRANCH   5   7
HETATM    7  C2  UNL     1      -6.019  27.212 -16.314  1.00  0.00     0.144 C
BRANCH   7   8
HETATM    8  C3  UNL     1      -7.428  26.635 -16.392  1.00  0.00    -0.000 A
HETATM    9  C4  UNL     1      -8.254  26.552 -15.166  1.00  0.00     0.006 A
HETATM   10  C5  UNL     1      -8.607  27.546 -16.258  1.00  0.00     0.006 A
ENDBRANCH   7   8
ENDBRANCH   5   7
BRANCH   5  11
HETATM   11  N3  UNL     1      -5.884  25.316 -18.437  1.00  0.00    -0.328 N
ATOM     12  H3  UNL     1      -6.613  25.873 -18.882  1.00  0.00     0.171 HD
BRANCH  11  13
HETATM   13  C6  UNL     1      -5.660  23.901 -18.779  1.00  0.00     0.214 C
BRANCH  13  14
HETATM   14  C7  UNL     1      -5.556  23.091 -17.562  1.00  0.00     0.177 C
HETATM   15  O2  UNL     1      -4.479  22.459 -17.279  1.00  0.00    -0.291 OA
BRANCH  14  16
HETATM   16  C8  UNL     1      -6.687  23.004 -16.671  1.00  0.00     0.014 A
HETATM   17  C9  UNL     1      -7.985  22.867 -17.097  1.00  0.00     0.016 A
HETATM   18  C10 UNL     1      -9.036  22.786 -16.214  1.00  0.00     0.018 A
HETATM   19  C11 UNL     1      -8.833  22.838 -14.828  1.00  0.00     0.034 A
HETATM   20  C17 UNL     1      -7.544  22.975 -14.388  1.00  0.00     0.043 A
HETATM   21  C24 UNL     1      -6.494  23.056 -15.320  1.00  0.00     0.045 A
BRANCH  19  22
HETATM   22  C12 UNL     1      -9.999  22.770 -13.934  1.00  0.00     0.120 A
HETATM   23  N4  UNL     1     -10.458  21.789 -13.150  1.00  0.00    -0.325 N
HETATM   24  C13 UNL     1     -11.549  22.144 -12.497  1.00  0.00     0.153 A
ATOM     25  H4  UNL     1     -10.017  20.873 -13.067  1.00  0.00     0.169 HD
HETATM   26  N5  UNL     1     -12.380  21.565 -11.617  1.00  0.00    -0.174 N
HETATM   27  C16 UNL     1     -11.832  23.437 -12.869  1.00  0.00     0.123 A
HETATM   28  C14 UNL     1     -13.453  22.217 -11.112  1.00  0.00     0.679 A
ATOM     29  H5  UNL     1     -12.198  20.606 -11.321  1.00  0.00     0.186 HD
HETATM   30  N7  UNL     1     -13.734  23.492 -11.475  1.00  0.00    -0.175 N
HETATM   31  C15 UNL     1     -12.928  24.105 -12.352  1.00  0.00     0.145 A
ATOM     32  H7  UNL     1     -14.544  23.976 -11.088  1.00  0.00     0.186 HD
HETATM   33  N9  UNL     1     -10.859  23.788 -13.752  1.00  0.00    -0.336 N
ATOM     34  H9  UNL     1     -10.792  24.695 -14.212  1.00  0.00     0.168 HD
BRANCH  28  35
HETATM   35  N6  UNL     1     -14.221  21.635 -10.284  1.00  0.00    -0.234 N
ATOM     36  H62 UNL     1     -13.855  20.849  -9.747  1.00  0.00     0.174 HD
ATOM     37  H61 UNL     1     -15.181  21.956 -10.164  1.00  0.00     0.174 HD
ENDBRANCH  28  35
BRANCH  31  38
HETATM   38  N8  UNL     1     -13.149  25.304 -12.723  1.00  0.00    -0.383 N
ATOM     39  H82 UNL     1     -13.331  25.489 -13.710  1.00  0.00     0.157 HD
ATOM     40  H81 UNL     1     -13.144  26.072 -12.053  1.00  0.00     0.157 HD
ENDBRANCH  31  38
ENDBRANCH  19  22
BRANCH  20  41
HETATM   41  N10 UNL     1      -7.219  22.986 -12.998  1.00  0.00    -0.387 N
ATOM     42  H10 UNL     1      -7.822  22.504 -12.331  1.00  0.00     0.159 HD
BRANCH  41  43
HETATM   43  C18 UNL     1      -6.024  23.687 -12.524  1.00  0.00     0.150 C
BRANCH  43  44
HETATM   44  C19 UNL     1      -5.233  22.749 -11.678  1.00  0.00     0.292 C
BRANCH  44  45
HETATM   45  N11 UNL     1      -3.818  22.724 -12.001  1.00  0.00     0.090 N
HETATM   46  C20 UNL     1      -3.662  22.788 -13.444  1.00  0.00     0.272 C
HETATM   47  C21 UNL     1      -2.401  23.593 -13.676  1.00  0.00     0.032 C
HETATM   48  C22 UNL     1      -2.483  24.626 -12.572  1.00  0.00     0.032 C
HETATM   49  C23 UNL     1      -3.185  23.905 -11.472  1.00  0.00     0.272 C
ENDBRANCH  44  45
ENDBRANCH  43  44
ENDBRANCH  41  43
ENDBRANCH  20  41
ENDBRANCH  14  16
ENDBRANCH  13  14
ENDBRANCH  11  13
ENDBRANCH   5  11
ENDBRANCH   3   5
TORSDOF 14
ENDMDL