MODEL 2
REMARK VINA RESULT: -8.102415190      4.789      8.038
REMARK  15 active torsions:
REMARK  status: ('A' for Active; 'I' for Inactive)
REMARK    1  A    between atoms: C2_2  and  N1_5
REMARK    2  A    between atoms: N1_5  and  C5_6
REMARK    3  A    between atoms: C5_6  and  C6_7
REMARK    4  A    between atoms: C5_6  and  N5_18
REMARK    5  A    between atoms: C6_7  and  C7_8
REMARK    6  A    between atoms: C7_8  and  C8_9
REMARK    7  A    between atoms: C8_9  and  C9_10
REMARK       I    between atoms: N2_11  and  C10_13
REMARK    8  A    between atoms: C12_25  and  C13_26
REMARK    9  A    between atoms: C13_26  and  C14_27
REMARK   10  A    between atoms: C15_30  and  C16_31
REMARK       I    between atoms: C16_31  and  N9_33
REMARK   11  A    between atoms: N9_33  and  C17_35
REMARK   12  A    between atoms: C17_35  and  C18_36
REMARK   13  A    between atoms: C18_36  and  C19_37
REMARK   14  A    between atoms: C19_37  and  C20_38
REMARK   15  A    between atoms: C20_38  and  N10_39
REMARK       I    between atoms: N10_39  and  C21_41
ROOT
HETATM    1  N5  UNL     1      -8.001  24.475 -13.713  1.00  0.00    -0.314 N
ATOM      2  H5  UNL     1      -8.224  25.202 -14.393  1.00  0.00     0.170 HD
HETATM    3  C11 UNL     1      -8.786  24.341 -12.695  1.00  0.00     0.167 A
HETATM    4  N6  UNL     1      -8.744  23.493 -11.665  1.00  0.00    -0.279 N
ATOM      5  H6  UNL     1      -7.995  22.805 -11.594  1.00  0.00     0.189 HD
HETATM    6  N7  UNL     1      -9.646  23.553 -10.778  1.00  0.00    -0.295 N
ATOM      7  H7  UNL     1      -9.620  22.908  -9.987  1.00  0.00     0.187 HD
HETATM    8  C12 UNL     1     -10.621  24.442 -10.863  1.00  0.00     0.076 A
HETATM    9  S1  UNL     1     -10.217  25.244 -12.313  1.00  0.00    -0.037 SA
ENDROOT
BRANCH   8  10
HETATM   10  C13 UNL     1     -11.772  24.673  -9.914  1.00  0.00     0.144 C
BRANCH  10  11
HETATM   11  C14 UNL     1     -12.814  23.627 -10.198  1.00  0.00     0.103 A
HETATM   12  N8  UNL     1     -14.147  23.725 -10.220  1.00  0.00    -0.325 N
HETATM   13  C15 UNL     1     -14.663  22.520 -10.521  1.00  0.00     0.190 A
ATOM     14  H8  UNL     1     -14.684  24.573 -10.037  1.00  0.00     0.169 HD
HETATM   15  N13 UNL     1     -13.626  21.657 -10.689  1.00  0.00    -0.280 N
HETATM   16  N14 UNL     1     -12.526  22.341 -10.490  1.00  0.00    -0.287 N
ATOM     17  H13 UNL     1     -13.692  20.667 -10.924  1.00  0.00     0.189 HD
ATOM     18  H14 UNL     1     -11.583  21.956 -10.548  1.00  0.00     0.188 HD
BRANCH  13  19
HETATM   19  C16 UNL     1     -16.081  22.198 -10.652  1.00  0.00     0.287 C
HETATM   20  O1  UNL     1     -16.723  22.742 -11.581  1.00  0.00    -0.264 OA
HETATM   21  N9  UNL     1     -16.679  21.302  -9.751  1.00  0.00    -0.354 N
ATOM     22  H9  UNL     1     -16.147  20.863  -8.999  1.00  0.00     0.162 HD
BRANCH  21  23
HETATM   23  C17 UNL     1     -18.116  21.026  -9.946  1.00  0.00     0.123 C
BRANCH  23  24
HETATM   24  C18 UNL     1     -18.825  20.900  -8.619  1.00  0.00     0.021 C
BRANCH  24  25
HETATM   25  C19 UNL     1     -20.306  20.886  -8.845  1.00  0.00     0.021 C
BRANCH  25  26
HETATM   26  C20 UNL     1     -20.789  22.174  -9.427  1.00  0.00     0.122 C
BRANCH  26  27
HETATM   27  N10 UNL     1     -20.402  23.313  -8.598  1.00  0.00    -0.365 N
HETATM   28  C21 UNL     1     -19.846  24.495  -9.147  1.00  0.00     0.181 C
HETATM   29  N11 UNL     1     -19.003  24.428 -10.105  1.00  0.00    -0.374 N
HETATM   30  N12 UNL     1     -20.249  25.747  -8.607  1.00  0.00    -0.064 NA
ATOM     31 2H11 UNL     1     -18.714  23.530 -10.492  1.00  0.00     0.158 HD
ATOM     32 1H11 UNL     1     -18.603  25.279 -10.500  1.00  0.00     0.158 HD
ATOM     33  H10 UNL     1     -20.536  23.256  -7.589  1.00  0.00     0.162 HD
ENDBRANCH  26  27
ENDBRANCH  25  26
ENDBRANCH  24  25
ENDBRANCH  23  24
ENDBRANCH  21  23
ENDBRANCH  13  19
ENDBRANCH  10  11
ENDBRANCH   8  10
BRANCH   1  34
HETATM   34  C5  UNL     1      -6.838  23.673 -13.953  1.00  0.00     0.151 C
BRANCH  34  35
HETATM   35  N1  UNL     1      -5.921  23.618 -13.194  1.00  0.00    -0.424 NA
BRANCH  35  36
HETATM   36  C2  UNL     1      -4.892  23.553 -12.342  1.00  0.00     0.084 C
HETATM   37  C1  UNL     1      -3.933  22.370 -12.526  1.00  0.00     0.053 C
HETATM   38  C3  UNL     1      -4.010  24.814 -12.491  1.00  0.00     0.053 C
HETATM   39  C4  UNL     1      -5.237  23.524 -10.850  1.00  0.00     0.053 C
ENDBRANCH  35  36
ENDBRANCH  34  35
BRANCH  34  40
HETATM   40  C6  UNL     1      -6.796  22.845 -15.219  1.00  0.00     0.092 C
BRANCH  40  41
HETATM   41  C7  UNL     1      -7.225  23.532 -16.445  1.00  0.00     0.013 C
BRANCH  41  42
HETATM   42  C8  UNL     1      -8.623  23.382 -16.913  1.00  0.00     0.045 C
BRANCH  42  43
HETATM   43  C9  UNL     1      -9.329  24.598 -17.280  1.00  0.00     0.063 C
HETATM   44  N2  UNL     1     -10.617  24.575 -17.304  1.00  0.00    -0.344 N
HETATM   45  C10 UNL     1     -11.337  25.721 -17.653  1.00  0.00     0.185 C
ATOM     46  H2  UNL     1     -11.113  23.716 -17.068  1.00  0.00     0.167 HD
HETATM   47  N3  UNL     1     -12.637  25.620 -17.674  1.00  0.00    -0.374 N
HETATM   48  N4  UNL     1     -10.767  26.969 -17.985  1.00  0.00    -0.064 NA
ATOM     49  H32 UNL     1     -13.049  24.719 -17.434  1.00  0.00     0.158 HD
ATOM     50  H31 UNL     1     -13.163  26.456 -17.928  1.00  0.00     0.158 HD
ENDBRANCH  42  43
ENDBRANCH  41  42
ENDBRANCH  40  41
ENDBRANCH  34  40
ENDBRANCH   1  34
TORSDOF 15
ENDMDL