MODEL 3
REMARK VINA RESULT: -7.194614241      3.243      8.977
REMARK  21 active torsions:
REMARK  status: ('A' for Active; 'I' for Inactive)
REMARK    1  A    between atoms: C2_2  and  C3_3
REMARK    2  A    between atoms: C3_3  and  O1_5
REMARK    3  A    between atoms: C3_3  and  C5_7
REMARK    4  A    between atoms: C6_8  and  O2_9
REMARK    5  A    between atoms: C8_12  and  O3_13
REMARK    6  A    between atoms: C9_15  and  C10_16
REMARK    7  A    between atoms: C11_17  and  C12_18
REMARK    8  A    between atoms: C12_18  and  C13_19
REMARK    9  A    between atoms: C13_19  and  O4_20
REMARK   10  A    between atoms: C13_19  and  C14_22
REMARK   11  A    between atoms: C18_26  and  O5_27
REMARK   12  A    between atoms: C18_26  and  C19_29
REMARK   13  A    between atoms: C19_29  and  O6_30
REMARK   14  A    between atoms: C19_29  and  C20_32
REMARK   15  A    between atoms: C20_32  and  C21_33
REMARK   16  A    between atoms: C21_33  and  C22_34
REMARK   17  A    between atoms: C24_36  and  C25_37
REMARK   18  A    between atoms: C25_37  and  O7_38
REMARK   19  A    between atoms: C25_37  and  C26_40
REMARK   20  A    between atoms: C26_40  and  C28_42
REMARK   21  A    between atoms: C28_42  and  O8_43
ROOT
HETATM    1  C14 UNL     1      -6.799  26.330  -8.911  1.00  0.00     0.025 C
HETATM    2  C15 UNL     1      -7.504  27.545  -9.329  1.00  0.00    -0.009 C
HETATM    3  C16 UNL     1      -6.885  28.337 -10.409  1.00  0.00     0.010 C
HETATM    4  C17 UNL     1      -8.926  27.005  -9.713  1.00  0.00     0.045 C
HETATM    5  C18 UNL     1      -9.198  26.147  -8.495  1.00  0.00     0.087 C
HETATM    6  C29 UNL     1      -7.917  25.467  -8.220  1.00  0.00     0.025 C
HETATM    7  C30 UNL     1      -7.726  24.078  -8.663  1.00  0.00     0.014 C
ENDROOT
BRANCH   1   8
HETATM    8  C13 UNL     1      -5.636  26.368  -8.012  1.00  0.00     0.126 C
BRANCH   8   9
HETATM    9  C12 UNL     1      -4.287  26.445  -8.717  1.00  0.00     0.059 C
BRANCH   9  10
HETATM   10  C11 UNL     1      -4.332  25.168  -9.653  1.00  0.00    -0.028 C
HETATM   11  C10 UNL     1      -4.208  25.377 -10.902  1.00  0.00    -0.023 C
BRANCH  11  12
HETATM   12  C9  UNL     1      -4.192  24.594 -12.126  1.00  0.00     0.046 C
HETATM   13  C5  UNL     1      -5.305  23.547 -12.155  1.00  0.00     0.062 C
HETATM   14  C6  UNL     1      -4.688  22.276 -12.718  1.00  0.00     0.128 C
HETATM   15  C7  UNL     1      -3.213  22.519 -12.826  1.00  0.00     0.064 C
HETATM   16  C8  UNL     1      -2.903  23.774 -12.103  1.00  0.00     0.128 C
BRANCH  13  17
HETATM   17  C3  UNL     1      -6.499  23.950 -12.973  1.00  0.00     0.078 C
HETATM   18  C4  UNL     1      -6.024  24.721 -14.219  1.00  0.00     0.051 C
BRANCH  17  19
HETATM   19  C2  UNL     1      -7.358  24.901 -12.253  1.00  0.00     0.000 C
HETATM   20  C1  UNL     1      -8.375  25.511 -12.796  1.00  0.00     0.010 C
ENDBRANCH  17  19
BRANCH  17  21
HETATM   21  O1  UNL     1      -7.232  22.826 -13.394  1.00  0.00    -0.386 OA
ATOM     22  H1  UNL     1      -6.871  22.464 -14.194  1.00  0.00     0.211 HD
ENDBRANCH  17  21
ENDBRANCH  13  17
BRANCH  14  23
HETATM   23  O2  UNL     1      -5.224  21.941 -13.973  1.00  0.00    -0.395 OA
ATOM     24  H2  UNL     1      -4.887  21.113 -14.295  1.00  0.00     0.210 HD
ENDBRANCH  14  23
BRANCH  16  25
HETATM   25  O3  UNL     1      -1.842  24.423 -12.676  1.00  0.00    -0.395 OA
ATOM     26  H3  UNL     1      -1.241  24.745 -12.015  1.00  0.00     0.210 HD
ENDBRANCH  16  25
ENDBRANCH  11  12
ENDBRANCH   9  10
ENDBRANCH   8   9
BRANCH   8  27
HETATM   27  O4  UNL     1      -5.724  27.098  -6.867  1.00  0.00    -0.395 OA
ATOM     28  H4  UNL     1      -5.262  27.928  -6.888  1.00  0.00     0.210 HD
ENDBRANCH   8  27
ENDBRANCH   1   8
BRANCH   5  29
HETATM   29  O5  UNL     1      -9.459  27.113  -7.473  1.00  0.00    -0.387 OA
ATOM     30  H5  UNL     1     -10.322  26.865  -7.161  1.00  0.00     0.210 HD
ENDBRANCH   5  29
BRANCH   5  31
HETATM   31  C19 UNL     1     -10.409  25.327  -8.587  1.00  0.00     0.153 C
BRANCH  31  32
HETATM   32  O6  UNL     1     -10.837  24.666  -7.457  1.00  0.00    -0.393 OA
ATOM     33  H6  UNL     1     -11.770  24.637  -7.279  1.00  0.00     0.210 HD
ENDBRANCH  31  32
BRANCH  31  34
HETATM   34  C20 UNL     1     -11.461  25.936  -9.439  1.00  0.00     0.039 C
BRANCH  34  35
HETATM   35  C21 UNL     1     -12.874  25.461  -9.291  1.00  0.00     0.036 C
BRANCH  35  36
HETATM   36  C22 UNL     1     -13.034  24.449 -10.444  1.00  0.00    -0.085 C
HETATM   37  C23 UNL     1     -14.026  23.380 -10.384  1.00  0.00     0.043 C
HETATM   38  C24 UNL     1     -12.256  24.631 -11.487  1.00  0.00     0.007 C
BRANCH  38  39
HETATM   39  C25 UNL     1     -12.224  23.798 -12.667  1.00  0.00     0.146 C
BRANCH  39  40
HETATM   40  O7  UNL     1     -12.000  24.606 -13.829  1.00  0.00    -0.391 OA
ATOM     41  H7  UNL     1     -11.833  24.051 -14.581  1.00  0.00     0.210 HD
ENDBRANCH  39  40
BRANCH  39  42
HETATM   42  C26 UNL     1     -11.267  22.674 -12.651  1.00  0.00     0.038 C
HETATM   43  C27 UNL     1     -10.286  22.628 -11.529  1.00  0.00     0.015 C
BRANCH  42  44
HETATM   44  C28 UNL     1     -10.585  22.539 -13.998  1.00  0.00     0.171 C
BRANCH  44  45
HETATM   45  O8  UNL     1      -9.757  21.472 -14.125  1.00  0.00    -0.400 OA
ATOM     46  H8  UNL     1      -8.833  21.657 -14.002  1.00  0.00     0.209 HD
ENDBRANCH  44  45
ENDBRANCH  42  44
ENDBRANCH  39  42
ENDBRANCH  38  39
ENDBRANCH  35  36
ENDBRANCH  34  35
ENDBRANCH  31  34
ENDBRANCH   5  31
TORSDOF 21
ENDMDL