MODEL 2
REMARK VINA RESULT: -8.351191754      0.736      1.016
REMARK  16 active torsions:
REMARK  status: ('A' for Active; 'I' for Inactive)
REMARK    1  A    between atoms: C2_2  and  C4_4
REMARK    2  A    between atoms: C4_4  and  N1_5
REMARK    3  A    between atoms: N1_5  and  C5_7
REMARK    4  A    between atoms: C6_10  and  N3_11
REMARK    5  A    between atoms: N3_11  and  C7_13
REMARK    6  A    between atoms: C7_13  and  C8_14
REMARK    7  A    between atoms: C13_24  and  N6_25
REMARK    8  A    between atoms: N6_25  and  C14_27
REMARK    9  A    between atoms: C14_27  and  C15_28
REMARK   10  A    between atoms: C15_28  and  C16_29
REMARK   11  A    between atoms: C16_29  and  N7_30
REMARK   12  A    between atoms: C21_38  and  C22_39
REMARK   13  A    between atoms: C22_39  and  C23_40
REMARK   14  A    between atoms: C23_40  and  C24_41
REMARK   15  A    between atoms: C26_43  and  N9_44
REMARK   16  A    between atoms: C28_50  and  O1_51
ROOT
HETATM    1  C5  UNL     1      -4.959  23.245 -12.205  1.00  0.00     0.127 A
HETATM    2  N2  UNL     1      -5.286  22.957 -13.485  1.00  0.00    -0.176 N
ATOM      3  H2  UNL     1      -4.557  22.682 -14.142  1.00  0.00     0.186 HD
HETATM    4  C6  UNL     1      -6.539  23.027 -13.890  1.00  0.00     0.681 A
HETATM    5  N5  UNL     1      -7.477  23.391 -13.001  1.00  0.00    -0.176 N
ATOM      6  H5  UNL     1      -8.446  23.444 -13.315  1.00  0.00     0.186 HD
HETATM    7  C13 UNL     1      -7.203  23.691 -11.708  1.00  0.00     0.127 A
HETATM    8  C21 UNL     1      -5.886  23.620 -11.270  1.00  0.00     0.031 A
ENDROOT
BRANCH   8   9
HETATM    9  C22 UNL     1      -5.630  23.942  -9.888  1.00  0.00     0.051 C
BRANCH   9  10
HETATM   10  C23 UNL     1      -5.342  25.336  -9.494  1.00  0.00     0.046 C
BRANCH  10  11
HETATM   11  C24 UNL     1      -5.747  25.543  -8.065  1.00  0.00    -0.020 A
HETATM   12  C25 UNL     1      -6.909  25.035  -7.529  1.00  0.00     0.058 A
HETATM   13  C26 UNL     1      -7.232  25.251  -6.203  1.00  0.00     0.099 A
HETATM   14  N10 UNL     1      -6.431  25.962  -5.388  1.00  0.00    -0.350 N
HETATM   15  C27 UNL     1      -5.295  26.468  -5.885  1.00  0.00     0.126 A
ATOM     16  H10 UNL     1      -6.683  26.112  -4.411  1.00  0.00     0.166 HD
HETATM   17  C28 UNL     1      -4.955  26.263  -7.203  1.00  0.00     0.087 A
BRANCH  13  18
HETATM   18  N9  UNL     1      -8.309  24.783  -5.699  1.00  0.00    -0.385 N
ATOM     19  H92 UNL     1      -8.744  23.996  -6.181  1.00  0.00     0.157 HD
ATOM     20  H91 UNL     1      -8.712  25.181  -4.851  1.00  0.00     0.157 HD
ENDBRANCH  13  18
BRANCH  17  21
HETATM   21  O1  UNL     1      -3.744  26.823  -7.660  1.00  0.00    -0.359 OA
ATOM     22  H1  UNL     1      -3.234  27.382  -7.087  1.00  0.00     0.217 HD
ENDBRANCH  17  21
ENDBRANCH  10  11
ENDBRANCH   9  10
ENDBRANCH   8   9
BRANCH   1  23
HETATM   23  N1  UNL     1      -3.735  23.151 -11.892  1.00  0.00    -0.375 N
ATOM     24  H1  UNL     1      -3.476  22.496 -11.153  1.00  0.00     0.161 HD
BRANCH  23  25
HETATM   25  C4  UNL     1      -2.692  23.914 -12.518  1.00  0.00     0.125 C
BRANCH  25  26
HETATM   26  C2  UNL     1      -2.402  25.213 -11.826  1.00  0.00    -0.005 C
HETATM   27  C1  UNL     1      -1.409  25.969 -12.712  1.00  0.00     0.011 C
HETATM   28  C3  UNL     1      -1.844  25.000 -10.435  1.00  0.00     0.011 C
ENDBRANCH  25  26
ENDBRANCH  23  25
ENDBRANCH   1  23
BRANCH   7  29
HETATM   29  N6  UNL     1      -8.259  24.073 -10.844  1.00  0.00    -0.375 N
ATOM     30  H6  UNL     1      -8.674  23.378 -10.223  1.00  0.00     0.161 HD
BRANCH  29  31
HETATM   31  C14 UNL     1      -8.755  25.417 -10.824  1.00  0.00     0.123 C
BRANCH  31  32
HETATM   32  C15 UNL     1     -10.269  25.474 -10.854  1.00  0.00     0.050 C
BRANCH  32  33
HETATM   33  C16 UNL     1     -10.845  24.471 -11.809  1.00  0.00     0.274 C
BRANCH  33  34
HETATM   34  N7  UNL     1     -11.713  23.551 -11.149  1.00  0.00     0.091 N
HETATM   35  C17 UNL     1     -12.714  22.953 -11.974  1.00  0.00     0.300 C
HETATM   36  C18 UNL     1     -13.791  22.299 -11.117  1.00  0.00     0.262 C
HETATM   37  N8  UNL     1     -14.515  23.354 -10.475  1.00  0.00    -0.072 N
HETATM   38  C19 UNL     1     -13.682  24.371  -9.899  1.00  0.00     0.262 C
ATOM     39  H82 UNL     1     -15.190  23.767 -11.118  1.00  0.00     0.277 HD
ATOM     40  H81 UNL     1     -15.152  22.975  -9.775  1.00  0.00     0.277 HD
HETATM   41  C20 UNL     1     -12.221  24.040  -9.889  1.00  0.00     0.300 C
ENDBRANCH  33  34
ENDBRANCH  32  33
ENDBRANCH  31  32
ENDBRANCH  29  31
ENDBRANCH   7  29
BRANCH   4  42
HETATM   42  N3  UNL     1      -6.919  22.772 -15.078  1.00  0.00    -0.226 N
ATOM     43  H3  UNL     1      -6.781  21.838 -15.464  1.00  0.00     0.177 HD
BRANCH  42  44
HETATM   44  C7  UNL     1      -7.543  23.791 -15.878  1.00  0.00     0.142 C
BRANCH  44  45
HETATM   45  C8  UNL     1      -8.616  23.210 -16.786  1.00  0.00     0.007 C
HETATM   46  C9  UNL     1      -9.269  24.280 -17.633  1.00  0.00     0.034 C
HETATM   47  C10 UNL     1     -10.413  24.949 -16.899  1.00  0.00     0.232 C
HETATM   48  N4  UNL     1     -11.339  23.988 -16.334  1.00  0.00    -0.075 N
HETATM   49  C11 UNL     1     -10.616  23.269 -15.283  1.00  0.00     0.232 C
ATOM     50  H42 UNL     1     -12.207  24.411 -16.007  1.00  0.00     0.277 HD
ATOM     51  H41 UNL     1     -11.752  23.370 -17.032  1.00  0.00     0.277 HD
HETATM   52  C12 UNL     1      -9.577  22.411 -15.971  1.00  0.00     0.034 C
ENDBRANCH  44  45
ENDBRANCH  42  44
ENDBRANCH   4  42
TORSDOF 16
ENDMDL