MODEL 1
REMARK VINA RESULT: -9.466192989      0.000      0.000
REMARK  16 active torsions:
REMARK  status: ('A' for Active; 'I' for Inactive)
REMARK    1  A    between atoms: C7_12  and  N3_13
REMARK       I    between atoms: N3_13  and  C8_15
REMARK    2  A    between atoms: C8_15  and  C9_17
REMARK    3  A    between atoms: C9_17  and  C10_18
REMARK    4  A    between atoms: C10_18  and  C11_19
REMARK    5  A    between atoms: C11_19  and  C12_20
REMARK    6  A    between atoms: C12_20  and  C13_21
REMARK    7  A    between atoms: C13_21  and  C14_22
REMARK    8  A    between atoms: C14_22  and  C15_23
REMARK    9  A    between atoms: C15_23  and  C16_24
REMARK   10  A    between atoms: C16_24  and  C17_25
REMARK   11  A    between atoms: C17_25  and  C18_26
REMARK   12  A    between atoms: C18_26  and  N4_27
REMARK   13  A    between atoms: N4_27  and  C19_29
REMARK   14  A    between atoms: C20_32  and  N6_33
REMARK   15  A    between atoms: C22_41  and  N9_42
REMARK   16  A    between atoms: C23_47  and  N11_48
ROOT
HETATM    1  C17 UNL     1      -5.647  22.162 -14.028  1.00  0.00     0.044 C
ENDROOT
BRANCH   1   2
HETATM    2  C16 UNL     1      -4.317  22.614 -14.464  1.00  0.00     0.005 C
BRANCH   2   3
HETATM    3  C15 UNL     1      -3.193  22.626 -13.495  1.00  0.00     0.000 C
BRANCH   3   4
HETATM    4  C14 UNL     1      -2.238  23.790 -13.744  1.00  0.00     0.000 C
BRANCH   4   5
HETATM    5  C13 UNL     1      -2.502  24.871 -12.754  1.00  0.00     0.000 C
BRANCH   5   6
HETATM    6  C12 UNL     1      -3.208  24.375 -11.544  1.00  0.00     0.000 C
BRANCH   6   7
HETATM    7  C11 UNL     1      -4.573  24.991 -11.374  1.00  0.00     0.000 C
BRANCH   7   8
HETATM    8  C10 UNL     1      -5.398  24.111 -10.487  1.00  0.00     0.009 C
BRANCH   8   9
HETATM    9  C9  UNL     1      -5.776  24.789  -9.197  1.00  0.00     0.103 C
BRANCH   9  10
HETATM   10  C8  UNL     1      -7.253  24.571  -8.978  1.00  0.00     0.222 C
HETATM   11  N3  UNL     1      -8.193  25.153  -9.849  1.00  0.00    -0.327 N
ATOM     12  H3  UNL     1      -7.812  25.716 -10.610  1.00  0.00     0.169 HD
HETATM   13  O3  UNL     1      -7.561  23.868  -8.007  1.00  0.00    -0.273 OA
BRANCH  11  14
HETATM   14  C7  UNL     1      -9.608  25.050  -9.792  1.00  0.00     0.037 A
HETATM   15  C6  UNL     1     -10.443  25.917  -9.140  1.00  0.00     0.032 A
HETATM   16  C5  UNL     1     -11.837  25.756  -9.139  1.00  0.00     0.034 A
HETATM   17  C4  UNL     1     -12.430  24.709  -9.803  1.00  0.00     0.062 A
HETATM   18  N2  UNL     1     -13.768  24.562  -9.801  1.00  0.00    -0.317 N
HETATM   19  C26 UNL     1     -11.589  23.839 -10.459  1.00  0.00     0.066 A
HETATM   20  C3  UNL     1     -14.335  23.536 -10.454  1.00  0.00     0.314 A
ATOM     21  H2  UNL     1     -14.352  25.233  -9.302  1.00  0.00     0.169 HD
HETATM   22  C2  UNL     1     -13.513  22.653 -11.117  1.00  0.00     0.316 A
HETATM   23  O2  UNL     1     -15.600  23.388 -10.456  1.00  0.00    -0.262 OA
HETATM   24  N1  UNL     1     -12.191  22.801 -11.118  1.00  0.00    -0.312 N
HETATM   25  O1  UNL     1     -14.069  21.689 -11.728  1.00  0.00    -0.262 OA
HETATM   26  C1  UNL     1     -11.319  21.878 -11.811  1.00  0.00     0.160 C
HETATM   27  C25 UNL     1     -10.226  23.980 -10.469  1.00  0.00     0.061 A
ENDBRANCH  11  14
ENDBRANCH   9  10
ENDBRANCH   8   9
ENDBRANCH   7   8
ENDBRANCH   6   7
ENDBRANCH   5   6
ENDBRANCH   4   5
ENDBRANCH   3   4
ENDBRANCH   2   3
ENDBRANCH   1   2
BRANCH   1  28
HETATM   28  C18 UNL     1      -6.794  23.094 -14.019  1.00  0.00     0.062 C
BRANCH  28  29
HETATM   29  N4  UNL     1      -7.779  22.942 -15.008  1.00  0.00    -0.355 N
ATOM     30  H4  UNL     1      -8.586  22.383 -14.731  1.00  0.00     0.166 HD
BRANCH  29  31
HETATM   31  C19 UNL     1      -7.820  23.399 -16.208  1.00  0.00     0.138 A
HETATM   32  N5  UNL     1      -6.791  23.303 -17.045  1.00  0.00    -0.176 N
HETATM   33  C20 UNL     1      -6.905  23.805 -18.294  1.00  0.00     0.679 A
ATOM     34  H5  UNL     1      -5.925  22.856 -16.747  1.00  0.00     0.186 HD
HETATM   35  N7  UNL     1      -8.025  24.399 -18.719  1.00  0.00    -0.175 N
HETATM   36  C21 UNL     1      -9.084  24.513 -17.898  1.00  0.00     0.154 A
ATOM     37  H7  UNL     1      -8.076  24.766 -19.669  1.00  0.00     0.186 HD
HETATM   38  N8  UNL     1     -10.224  25.119 -18.288  1.00  0.00    -0.175 N
HETATM   39  C24 UNL     1      -8.984  24.009 -16.625  1.00  0.00     0.098 A
HETATM   40  C22 UNL     1     -11.272  25.239 -17.447  1.00  0.00     0.679 A
ATOM     41  H8  UNL     1     -10.295  25.492 -19.234  1.00  0.00     0.186 HD
HETATM   42  N10 UNL     1     -11.195  24.757 -16.202  1.00  0.00    -0.176 N
HETATM   43  C23 UNL     1     -10.080  24.148 -15.773  1.00  0.00     0.132 A
ATOM     44  H10 UNL     1     -11.992  24.855 -15.572  1.00  0.00     0.186 HD
BRANCH  33  45
HETATM   45  N6  UNL     1      -5.887  23.704 -19.105  1.00  0.00    -0.234 N
ATOM     46  H62 UNL     1      -5.511  22.781 -19.322  1.00  0.00     0.174 HD
ATOM     47  H61 UNL     1      -5.492  24.556 -19.503  1.00  0.00     0.174 HD
ENDBRANCH  33  45
BRANCH  40  48
HETATM   48  N9  UNL     1     -12.380  25.817 -17.799  1.00  0.00    -0.234 N
ATOM     49  H92 UNL     1     -13.101  25.235 -18.224  1.00  0.00     0.174 HD
ATOM     50  H91 UNL     1     -12.541  26.815 -17.662  1.00  0.00     0.174 HD
ENDBRANCH  40  48
BRANCH  43  51
HETATM   51  N11 UNL     1     -10.057  23.735 -14.573  1.00  0.00    -0.384 N
ATOM     52 2H11 UNL     1     -10.274  24.346 -13.786  1.00  0.00     0.157 HD
ATOM     53 1H11 UNL     1      -9.833  22.753 -14.414  1.00  0.00     0.157 HD
ENDBRANCH  43  51
ENDBRANCH  29  31
ENDBRANCH  28  29
ENDBRANCH   1  28
TORSDOF 16
ENDMDL