MODEL 4
REMARK VINA RESULT: -7.982643062      1.626      2.773
REMARK  17 active torsions:
REMARK  status: ('A' for Active; 'I' for Inactive)
REMARK    1  A    between atoms: C3_5  and  C4_6
REMARK    2  A    between atoms: C4_6  and  N2_7
REMARK    3  A    between atoms: C4_6  and  N3_11
REMARK    4  A    between atoms: N3_11  and  C5_14
REMARK    5  A    between atoms: C5_14  and  C6_15
REMARK    6  A    between atoms: C6_15  and  C7_16
REMARK    7  A    between atoms: C7_16  and  N4_17
REMARK    8  A    between atoms: N4_17  and  C8_19
REMARK    9  A    between atoms: C9_23  and  C10_24
REMARK   10  A    between atoms: C10_24  and  C11_25
REMARK   11  A    between atoms: C11_25  and  C12_26
REMARK   12  A    between atoms: C15_34  and  N8_35
REMARK   13  A    between atoms: C17_41  and  C18_42
REMARK   14  A    between atoms: C18_42  and  C19_43
REMARK   15  A    between atoms: C19_43  and  N10_44
REMARK       I    between atoms: N10_44  and  C20_46
REMARK   16  A    between atoms: C20_46  and  O5_48
REMARK   17  A    between atoms: O5_48  and  C21_49
ROOT
HETATM    1  C1  UNL     1      -7.611  26.565 -14.816  1.00  0.00     0.232 C
HETATM    2  N1  UNL     1      -8.028  25.844 -14.011  1.00  0.00    -0.403 NA
HETATM    3  C2  UNL     1      -8.550  24.988 -13.038  1.00  0.00     0.244 A
HETATM    4  O1  UNL     1      -9.127  25.325 -11.910  1.00  0.00    -0.264 OA
HETATM    5  C3  UNL     1      -9.504  24.270 -11.224  1.00  0.00     0.185 A
HETATM    6  N5  UNL     1      -9.154  23.189 -11.943  1.00  0.00    -0.336 N
ATOM      7  H5  UNL     1      -9.309  22.215 -11.685  1.00  0.00     0.167 HD
HETATM    8  C9  UNL     1      -8.566  23.629 -13.062  1.00  0.00     0.077 A
ENDROOT
BRANCH   8   9
HETATM    9  C10 UNL     1      -8.030  22.739 -14.120  1.00  0.00     0.069 C
BRANCH   9  10
HETATM   10  C11 UNL     1      -8.998  22.397 -15.169  1.00  0.00     0.064 C
BRANCH  10  11
HETATM   11  C12 UNL     1      -9.294  23.363 -16.221  1.00  0.00     0.018 A
HETATM   12  N6  UNL     1     -10.447  24.120 -16.317  1.00  0.00    -0.353 N
HETATM   13  C13 UNL     1     -10.417  24.883 -17.409  1.00  0.00     0.130 A
ATOM     14  H6  UNL     1     -11.214  24.097 -15.645  1.00  0.00     0.166 HD
HETATM   15  C14 UNL     1     -11.288  25.803 -17.969  1.00  0.00     0.288 A
HETATM   16  C16 UNL     1      -9.223  24.633 -18.053  1.00  0.00     0.089 A
HETATM   17  O3  UNL     1     -12.373  26.062 -17.427  1.00  0.00    -0.265 OA
HETATM   18  N7  UNL     1     -10.986  26.447 -19.121  1.00  0.00    -0.154 N
HETATM   19  C15 UNL     1      -9.819  26.187 -19.730  1.00  0.00     0.679 A
ATOM     20  H7  UNL     1     -11.638  27.122 -19.520  1.00  0.00     0.187 HD
HETATM   21  N9  UNL     1      -8.970  25.296 -19.192  1.00  0.00    -0.189 N
ATOM     22  H9  UNL     1      -8.088  25.114 -19.673  1.00  0.00     0.184 HD
HETATM   23  C17 UNL     1      -8.511  23.670 -17.298  1.00  0.00    -0.004 A
BRANCH  19  24
HETATM   24  N8  UNL     1      -9.516  26.795 -20.831  1.00  0.00    -0.234 N
ATOM     25  H82 UNL     1      -8.541  26.990 -21.058  1.00  0.00     0.174 HD
ATOM     26  H81 UNL     1     -10.254  27.079 -21.476  1.00  0.00     0.174 HD
ENDBRANCH  19  24
BRANCH  23  27
HETATM   27  C18 UNL     1      -7.172  23.229 -17.730  1.00  0.00     0.062 C
BRANCH  27  28
HETATM   28  C19 UNL     1      -6.122  24.111 -17.101  1.00  0.00     0.130 C
BRANCH  28  29
HETATM   29  N10 UNL     1      -5.398  23.460 -16.025  1.00  0.00    -0.337 N
HETATM   30  C20 UNL     1      -4.218  24.016 -15.513  1.00  0.00     0.361 C
HETATM   31  O4  UNL     1      -3.749  25.071 -15.966  1.00  0.00    -0.238 OA
ATOM     32  H10 UNL     1      -5.753  22.586 -15.636  1.00  0.00     0.164 HD
BRANCH  30  33
HETATM   33  O5  UNL     1      -3.536  23.396 -14.478  1.00  0.00    -0.294 OA
BRANCH  33  34
HETATM   34  C21 UNL     1      -3.661  23.691 -13.118  1.00  0.00     0.061 C
HETATM   35  C22 UNL     1      -4.865  24.555 -12.813  1.00  0.00     0.046 C
HETATM   36  C23 UNL     1      -3.822  22.369 -12.370  1.00  0.00     0.046 C
HETATM   37  C24 UNL     1      -2.392  24.335 -12.626  1.00  0.00     0.046 C
ENDBRANCH  33  34
ENDBRANCH  30  33
ENDBRANCH  28  29
ENDBRANCH  27  28
ENDBRANCH  23  27
ENDBRANCH  10  11
ENDBRANCH   9  10
ENDBRANCH   8   9
BRANCH   5  38
HETATM   38  C4  UNL     1     -10.179  24.284  -9.921  1.00  0.00     0.454 C
BRANCH  38  39
HETATM   39  N2  UNL     1     -10.231  25.647  -9.406  1.00  0.00    -0.043 N
ATOM     40  H23 UNL     1      -9.303  26.013  -9.194  1.00  0.00     0.277 HD
ATOM     41  H22 UNL     1     -10.495  26.320 -10.126  1.00  0.00     0.277 HD
ATOM     42  H21 UNL     1     -10.852  25.688  -8.598  1.00  0.00     0.277 HD
ENDBRANCH  38  39
BRANCH  38  43
HETATM   43  N3  UNL     1     -11.480  23.717  -9.960  1.00  0.00    -0.038 N
ATOM     44  H32 UNL     1     -11.436  22.721 -10.171  1.00  0.00     0.280 HD
ATOM     45  H31 UNL     1     -11.885  23.672  -9.025  1.00  0.00     0.280 HD
BRANCH  43  46
HETATM   46  C5  UNL     1     -12.375  24.404 -10.880  1.00  0.00     0.240 C
BRANCH  46  47
HETATM   47  C6  UNL     1     -13.034  23.450 -11.769  1.00  0.00     0.072 C
BRANCH  47  48
HETATM   48  C7  UNL     1     -13.262  22.063 -11.361  1.00  0.00     0.065 C
BRANCH  48  49
HETATM   49  N4  UNL     1     -14.398  21.667 -10.646  1.00  0.00    -0.348 N
ATOM     50  H4  UNL     1     -14.269  20.831 -10.078  1.00  0.00     0.167 HD
BRANCH  49  51
HETATM   51  C8  UNL     1     -15.669  22.218 -10.579  1.00  0.00     0.352 C
HETATM   52  O2  UNL     1     -16.296  22.669 -11.539  1.00  0.00    -0.283 OA
ENDBRANCH  49  51
ENDBRANCH  48  49
ENDBRANCH  47  48
ENDBRANCH  46  47
ENDBRANCH  43  46
ENDBRANCH  38  43
ENDBRANCH   5  38
TORSDOF 17
ENDMDL