MODEL 1
REMARK VINA RESULT: -8.916795039      0.000      0.000
REMARK  14 active torsions:
REMARK  status: ('A' for Active; 'I' for Inactive)
REMARK    1  A    between atoms: N1_1  and  C1_4
REMARK    2  A    between atoms: C7_17  and  N5_18
REMARK    3  A    between atoms: N5_18  and  C8_19
REMARK    4  A    between atoms: N5_18  and  C18_37
REMARK    5  A    between atoms: C8_19  and  C9_20
REMARK    6  A    between atoms: C9_20  and  C10_21
REMARK    7  A    between atoms: C10_21  and  N6_22
REMARK    8  A    between atoms: N6_22  and  C11_25
REMARK    9  A    between atoms: C11_25  and  C12_26
REMARK   10  A    between atoms: C12_26  and  O1_27
REMARK   11  A    between atoms: C12_26  and  C13_29
REMARK   12  A    between atoms: C15_32  and  C16_33
REMARK   13  A    between atoms: C18_37  and  C19_38
REMARK   14  A    between atoms: C22_41  and  C23_42
ROOT
HETATM    1  N5  UNL     1      -8.723  24.106 -14.992  1.00  0.00    -0.388 N
ENDROOT
BRANCH   1   2
HETATM    2  C7  UNL     1      -9.697  23.787 -14.056  1.00  0.00     0.089 C
HETATM    3  C6  UNL     1     -10.506  22.565 -14.228  1.00  0.00     0.030 C
HETATM    4  C5  UNL     1     -10.693  21.696 -13.016  1.00  0.00     0.046 C
HETATM    5  C3  UNL     1     -10.917  22.535 -11.838  1.00  0.00     0.009 A
HETATM    6  C2  UNL     1      -9.956  23.530 -11.621  1.00  0.00     0.038 A
HETATM    7  C4  UNL     1     -11.929  22.439 -10.934  1.00  0.00     0.122 A
HETATM    8  N2  UNL     1      -9.986  24.371 -10.588  1.00  0.00    -0.195 N
HETATM    9  C26 UNL     1      -8.910  23.556 -12.700  1.00  0.00     0.083 C
HETATM   10  C1  UNL     1     -11.007  24.251  -9.702  1.00  0.00     0.677 A
ATOM     11  H2  UNL     1      -9.264  25.081 -10.467  1.00  0.00     0.184 HD
HETATM   12  N4  UNL     1     -11.940  23.316  -9.879  1.00  0.00    -0.177 N
ATOM     13  H4  UNL     1     -12.696  23.250  -9.199  1.00  0.00     0.185 HD
HETATM   14  N3  UNL     1     -12.838  21.567 -11.061  1.00  0.00    -0.385 N
ATOM     15  H32 UNL     1     -12.830  20.916 -11.845  1.00  0.00     0.157 HD
ATOM     16  H31 UNL     1     -13.596  21.496 -10.384  1.00  0.00     0.157 HD
BRANCH  10  17
HETATM   17  N1  UNL     1     -11.033  25.076  -8.689  1.00  0.00    -0.234 N
ATOM     18  H12 UNL     1     -10.483  24.917  -7.845  1.00  0.00     0.174 HD
ATOM     19  H11 UNL     1     -11.626  25.903  -8.765  1.00  0.00     0.174 HD
ENDBRANCH  10  17
ENDBRANCH   1   2
BRANCH   1  20
HETATM   20  C8  UNL     1      -7.382  24.388 -14.565  1.00  0.00     0.124 C
BRANCH  20  21
HETATM   21  C9  UNL     1      -6.332  23.572 -15.240  1.00  0.00     0.047 C
BRANCH  21  22
HETATM   22  C10 UNL     1      -5.114  24.423 -15.599  1.00  0.00     0.234 C
BRANCH  22  23
HETATM   23  N6  UNL     1      -3.927  23.618 -15.395  1.00  0.00    -0.072 N
ATOM     24  H62 UNL     1      -3.547  23.233 -16.259  1.00  0.00     0.277 HD
ATOM     25  H61 UNL     1      -3.109  24.166 -15.129  1.00  0.00     0.277 HD
BRANCH  23  26
HETATM   26  C11 UNL     1      -4.282  22.590 -14.409  1.00  0.00     0.268 C
BRANCH  26  27
HETATM   27  C12 UNL     1      -3.290  22.643 -13.296  1.00  0.00     0.177 C
BRANCH  27  28
HETATM   28  O1  UNL     1      -2.073  23.150 -13.685  1.00  0.00    -0.389 OA
ATOM     29  H1  UNL     1      -1.642  22.620 -14.345  1.00  0.00     0.210 HD
ENDBRANCH  27  28
BRANCH  27  30
HETATM   30  C13 UNL     1      -3.865  23.362 -12.089  1.00  0.00    -0.020 A
HETATM   31  C14 UNL     1      -3.166  24.401 -11.526  1.00  0.00     0.060 A
HETATM   32  S1  UNL     1      -4.199  24.907 -10.260  1.00  0.00    -0.096 SA
HETATM   33  C15 UNL     1      -5.467  23.797 -10.486  1.00  0.00     0.070 A
HETATM   34  C17 UNL     1      -5.048  23.052 -11.554  1.00  0.00     0.034 A
BRANCH  33  35
HETATM   35  C16 UNL     1      -6.720  23.684  -9.718  1.00  0.00     0.271 C
HETATM   36  N7  UNL     1      -7.157  24.832  -9.022  1.00  0.00    -0.057 NA
HETATM   37  O2  UNL     1      -7.324  22.608  -9.718  1.00  0.00    -0.270 OA
ENDBRANCH  33  35
ENDBRANCH  27  30
ENDBRANCH  26  27
ENDBRANCH  23  26
ENDBRANCH  22  23
ENDBRANCH  21  22
ENDBRANCH  20  21
ENDBRANCH   1  20
BRANCH   1  38
HETATM   38  C18 UNL     1      -8.724  23.551 -16.288  1.00  0.00     0.063 C
BRANCH  38  39
HETATM   39  C19 UNL     1      -9.056  24.298 -17.506  1.00  0.00     0.024 C
HETATM   40  C20 UNL     1     -10.445  24.944 -17.209  1.00  0.00     0.011 C
HETATM   41  C21 UNL     1     -10.895  25.750 -18.381  1.00  0.00     0.016 C
HETATM   42  C22 UNL     1     -10.024  26.975 -18.567  1.00  0.00     0.087 C
HETATM   43  C24 UNL     1      -8.820  26.821 -17.712  1.00  0.00     0.016 C
HETATM   44  C25 UNL     1      -8.204  25.443 -17.925  1.00  0.00     0.011 C
BRANCH  42  45
HETATM   45  C23 UNL     1      -9.720  27.230 -19.996  1.00  0.00     0.177 C
HETATM   46  O3  UNL     1      -9.303  28.342 -20.394  1.00  0.00    -0.648 OA
HETATM   47  O4  UNL     1      -9.896  26.217 -20.945  1.00  0.00    -0.648 OA
ENDBRANCH  42  45
ENDBRANCH  38  39
ENDBRANCH   1  38
TORSDOF 14
ENDMDL