MODEL 3
REMARK VINA RESULT: -8.782281360      1.429      2.200
REMARK  15 active torsions:
REMARK  status: ('A' for Active; 'I' for Inactive)
REMARK    1  A    between atoms: N1_2  and  C3_4
REMARK    2  A    between atoms: N2_7  and  N3_8
REMARK       I    between atoms: N3_8  and  C6_10
REMARK    3  A    between atoms: C6_10  and  C7_12
REMARK    4  A    between atoms: C10_17  and  N5_18
REMARK    5  A    between atoms: C11_23  and  N7_24
REMARK    6  A    between atoms: C13_30  and  C14_31
REMARK    7  A    between atoms: C14_31  and  C15_32
REMARK    8  A    between atoms: C15_32  and  C16_33
REMARK    9  A    between atoms: C16_33  and  C17_34
REMARK   10  A    between atoms: C17_34  and  C18_35
REMARK   11  A    between atoms: C18_35  and  C19_36
REMARK   12  A    between atoms: C19_36  and  C20_37
REMARK   13  A    between atoms: C20_37  and  C21_38
REMARK   14  A    between atoms: C21_38  and  C22_39
REMARK   15  A    between atoms: C26_46  and  N11_47
ROOT
HETATM    1  C22 UNL     1      -6.706  23.534 -14.266  1.00  0.00     0.029 A
HETATM    2  C23 UNL     1      -6.574  23.711 -15.610  1.00  0.00     0.067 A
HETATM    3  C24 UNL     1      -7.556  23.246 -16.458  1.00  0.00     0.131 A
HETATM    4  C25 UNL     1      -7.376  23.465 -17.866  1.00  0.00     0.118 C
HETATM    5  N9  UNL     1      -7.220  23.626 -19.008  1.00  0.00    -0.190 NA
HETATM    6  N10 UNL     1      -8.642  22.620 -15.987  1.00  0.00    -0.182 N
ATOM      7  H10 UNL     1      -9.359  22.281 -16.626  1.00  0.00     0.185 HD
HETATM    8  C26 UNL     1      -8.774  22.444 -14.669  1.00  0.00     0.677 A
HETATM    9  N12 UNL     1      -7.832  22.891 -13.849  1.00  0.00    -0.196 N
ATOM     10  H12 UNL     1      -7.957  22.743 -12.848  1.00  0.00     0.184 HD
ENDROOT
BRANCH   1  11
HETATM   11  C21 UNL     1      -5.726  23.957 -13.248  1.00  0.00     0.057 C
BRANCH  11  12
HETATM   12  C20 UNL     1      -5.466  22.910 -12.198  1.00  0.00     0.006 C
BRANCH  12  13
HETATM   13  C19 UNL     1      -3.995  22.544 -12.076  1.00  0.00     0.000 C
BRANCH  13  14
HETATM   14  C18 UNL     1      -3.127  23.746 -12.165  1.00  0.00     0.000 C
BRANCH  14  15
HETATM   15  C17 UNL     1      -2.731  24.432 -10.943  1.00  0.00     0.000 C
BRANCH  15  16
HETATM   16  C16 UNL     1      -3.281  25.696 -10.474  1.00  0.00     0.000 C
BRANCH  16  17
HETATM   17  C15 UNL     1      -4.279  25.655  -9.389  1.00  0.00     0.002 C
BRANCH  17  18
HETATM   18  C14 UNL     1      -5.680  26.008  -9.961  1.00  0.00     0.029 C
BRANCH  18  19
HETATM   19  C13 UNL     1      -6.029  27.369  -9.521  1.00  0.00     0.135 C
HETATM   20  C3  UNL     1      -5.417  28.501 -10.250  1.00  0.00     0.247 C
HETATM   21  C4  UNL     1      -6.034  29.633  -9.380  1.00  0.00     0.059 C
HETATM   22  C5  UNL     1      -7.482  29.091  -9.321  1.00  0.00     0.145 C
HETATM   23  N2  UNL     1      -7.376  27.690  -9.384  1.00  0.00    -0.318 N
BRANCH  20  24
HETATM   24  N1  UNL     1      -5.982  28.777 -11.544  1.00  0.00     0.086 N
HETATM   25  C1  UNL     1      -5.625  30.108 -11.950  1.00  0.00     0.310 C
HETATM   26  C2  UNL     1      -5.752  27.863 -12.582  1.00  0.00     0.310 C
ENDBRANCH  20  24
BRANCH  23  27
HETATM   27  N3  UNL     1      -8.346  26.942  -9.920  1.00  0.00    -0.266 N
HETATM   28  C6  UNL     1      -9.314  26.286  -9.093  1.00  0.00     0.286 C
HETATM   29  O1  UNL     1      -9.261  26.420  -7.839  1.00  0.00    -0.264 OA
ATOM     30  H3  UNL     1      -8.398  26.838 -10.934  1.00  0.00     0.190 HD
BRANCH  28  31
HETATM   31  C7  UNL     1     -10.365  25.455  -9.659  1.00  0.00     0.105 A
HETATM   32  C8  UNL     1     -10.948  24.330  -9.093  1.00  0.00     0.068 A
HETATM   33  C9  UNL     1     -11.926  23.869  -9.940  1.00  0.00     0.082 A
HETATM   34  N4  UNL     1     -12.802  22.840  -9.894  1.00  0.00    -0.190 N
HETATM   35  C12 UNL     1     -11.950  24.709 -11.032  1.00  0.00     0.105 A
HETATM   36  C10 UNL     1     -13.680  22.633 -10.889  1.00  0.00     0.678 A
ATOM     37  H4  UNL     1     -12.796  22.211  -9.091  1.00  0.00     0.184 HD
HETATM   38  N6  UNL     1     -13.704  23.440 -11.941  1.00  0.00    -0.175 N
HETATM   39  C11 UNL     1     -12.857  24.475 -12.036  1.00  0.00     0.144 A
ATOM     40  H6  UNL     1     -14.377  23.271 -12.689  1.00  0.00     0.186 HD
HETATM   41  N8  UNL     1     -10.994  25.650 -10.824  1.00  0.00    -0.347 N
ATOM     42  H8  UNL     1     -10.782  26.409 -11.471  1.00  0.00     0.166 HD
BRANCH  36  43
HETATM   43  N5  UNL     1     -14.500  21.624 -10.777  1.00  0.00    -0.234 N
ATOM     44  H52 UNL     1     -14.192  20.662 -10.915  1.00  0.00     0.174 HD
ATOM     45  H51 UNL     1     -15.474  21.826 -10.550  1.00  0.00     0.174 HD
ENDBRANCH  36  43
BRANCH  39  46
HETATM   46  N7  UNL     1     -12.895  25.246 -13.071  1.00  0.00    -0.383 N
ATOM     47  H72 UNL     1     -13.756  25.736 -13.315  1.00  0.00     0.157 HD
ATOM     48  H71 UNL     1     -12.061  25.369 -13.645  1.00  0.00     0.157 HD
ENDBRANCH  39  46
ENDBRANCH  28  31
ENDBRANCH  23  27
ENDBRANCH  18  19
ENDBRANCH  17  18
ENDBRANCH  16  17
ENDBRANCH  15  16
ENDBRANCH  14  15
ENDBRANCH  13  14
ENDBRANCH  12  13
ENDBRANCH  11  12
ENDBRANCH   1  11
BRANCH   8  49
HETATM   49  N11 UNL     1      -9.832  21.833 -14.236  1.00  0.00    -0.234 N
ATOM     50 2H11 UNL     1     -10.730  21.897 -14.714  1.00  0.00     0.174 HD
ATOM     51 1H11 UNL     1      -9.752  21.273 -13.387  1.00  0.00     0.174 HD
ENDBRANCH   8  49
TORSDOF 15
ENDMDL