MODEL 1
REMARK VINA RESULT: -9.927972877      0.000      0.000
REMARK  13 active torsions:
REMARK  status: ('A' for Active; 'I' for Inactive)
REMARK       I    between atoms: N2_3  and  C2_5
REMARK       I    between atoms: C2_5  and  N9_38
REMARK    1  A    between atoms: N3_6  and  C3_8
REMARK    2  A    between atoms: C4_9  and  C5_10
REMARK    3  A    between atoms: C5_10  and  C6_11
REMARK    4  A    between atoms: C6_11  and  C7_12
REMARK    5  A    between atoms: C7_12  and  N4_13
REMARK    6  A    between atoms: N4_13  and  C8_14
REMARK    7  A    between atoms: N4_13  and  C13_19
REMARK    8  A    between atoms: C8_14  and  C9_15
REMARK    9  A    between atoms: C9_15  and  C10_16
REMARK   10  A    between atoms: C13_19  and  C14_20
REMARK       I    between atoms: N5_24  and  C18_25
REMARK   11  A    between atoms: C21_34  and  C22_35
REMARK   12  A    between atoms: N9_38  and  C23_40
REMARK   13  A    between atoms: C25_44  and  N11_45
ROOT
HETATM    1  N1  UNL     1      -8.970  28.272 -16.103  1.00  0.00    -0.171 NA
HETATM    2  C1  UNL     1      -8.589  27.234 -16.449  1.00  0.00     0.196 C
HETATM    3  N2  UNL     1      -8.121  25.980 -16.852  1.00  0.00    -0.126 N
ATOM      4  H2  UNL     1      -7.141  25.737 -16.713  1.00  0.00     0.197 HD
HETATM    5  C2  UNL     1      -9.007  25.034 -17.460  1.00  0.00     0.693 C
HETATM    6  N3  UNL     1      -8.851  23.766 -17.331  1.00  0.00    -0.188 N
ATOM      7  H3  UNL     1      -9.503  23.126 -17.785  1.00  0.00     0.184 HD
HETATM    8  N9  UNL     1     -10.076  25.627 -18.218  1.00  0.00    -0.174 N
ATOM      9  H9  UNL     1     -11.039  25.379 -17.993  1.00  0.00     0.186 HD
ENDROOT
BRANCH   6  10
HETATM   10  C3  UNL     1      -7.792  23.254 -16.570  1.00  0.00     0.089 A
HETATM   11  C4  UNL     1      -7.971  22.795 -15.307  1.00  0.00    -0.027 A
HETATM   12  C19 UNL     1      -6.823  22.471 -14.553  1.00  0.00     0.026 A
HETATM   13  C20 UNL     1      -5.568  22.620 -15.104  1.00  0.00     0.089 A
HETATM   14  N8  UNL     1      -5.452  23.074 -16.359  1.00  0.00    -0.359 N
HETATM   15  C21 UNL     1      -6.505  23.400 -17.126  1.00  0.00     0.137 A
ATOM     16  H8  UNL     1      -4.516  23.178 -16.752  1.00  0.00     0.165 HD
BRANCH  11  17
HETATM   17  C5  UNL     1      -9.283  22.472 -14.747  1.00  0.00     0.043 C
BRANCH  17  18
HETATM   18  C6  UNL     1      -9.379  23.342 -13.447  1.00  0.00     0.035 C
BRANCH  18  19
HETATM   19  C7  UNL     1     -10.073  22.567 -12.381  1.00  0.00     0.272 C
BRANCH  19  20
HETATM   20  N4  UNL     1      -9.808  23.153 -11.083  1.00  0.00     0.090 N
BRANCH  20  21
HETATM   21  C8  UNL     1      -8.671  23.993 -11.093  1.00  0.00     0.273 C
BRANCH  21  22
HETATM   22  C9  UNL     1      -7.446  23.371 -10.443  1.00  0.00     0.034 C
BRANCH  22  23
HETATM   23  C10 UNL     1      -6.245  23.835 -11.236  1.00  0.00    -0.013 A
HETATM   24  C11 UNL     1      -5.067  22.944 -11.383  1.00  0.00     0.005 A
HETATM   25  C12 UNL     1      -4.985  24.076 -10.401  1.00  0.00     0.005 A
ENDBRANCH  22  23
ENDBRANCH  21  22
ENDBRANCH  20  21
BRANCH  20  26
HETATM   26  C13 UNL     1     -10.912  23.664 -10.389  1.00  0.00     0.297 C
BRANCH  26  27
HETATM   27  C14 UNL     1     -12.058  23.983 -11.297  1.00  0.00     0.115 C
HETATM   28  C15 UNL     1     -12.157  25.506 -11.465  1.00  0.00     0.029 C
HETATM   29  C16 UNL     1     -12.811  25.975 -10.181  1.00  0.00     0.022 C
HETATM   30  C17 UNL     1     -13.490  24.745  -9.646  1.00  0.00     0.126 C
HETATM   31  N5  UNL     1     -13.342  23.701 -10.625  1.00  0.00    -0.349 N
HETATM   32  C18 UNL     1     -14.204  22.649 -10.917  1.00  0.00     0.184 C
HETATM   33  N6  UNL     1     -13.955  21.436 -10.587  1.00  0.00    -0.374 N
HETATM   34  N7  UNL     1     -15.409  22.935 -11.610  1.00  0.00    -0.064 NA
ATOM     35  H62 UNL     1     -13.089  21.231 -10.089  1.00  0.00     0.158 HD
ATOM     36  H61 UNL     1     -14.587  20.664 -10.801  1.00  0.00     0.158 HD
ENDBRANCH  26  27
ENDBRANCH  20  26
ENDBRANCH  19  20
ENDBRANCH  18  19
ENDBRANCH  17  18
ENDBRANCH  11  17
BRANCH  15  37
HETATM   37  C22 UNL     1      -6.370  23.889 -18.488  1.00  0.00     0.229 C
HETATM   38  O1  UNL     1      -6.906  23.246 -19.414  1.00  0.00    -0.643 OA
HETATM   39  O2  UNL     1      -5.670  25.036 -18.765  1.00  0.00    -0.643 OA
ENDBRANCH  15  37
ENDBRANCH   6  10
BRANCH   8  40
HETATM   40  C23 UNL     1      -9.830  26.547 -19.270  1.00  0.00     0.152 A
HETATM   41  C24 UNL     1      -9.984  26.305 -20.631  1.00  0.00     0.155 A
HETATM   42  N10 UNL     1      -9.660  27.412 -21.331  1.00  0.00    -0.199 N
HETATM   43  C25 UNL     1      -9.297  28.369 -20.435  1.00  0.00     0.677 A
ATOM     44  H10 UNL     1      -9.682  27.512 -22.346  1.00  0.00     0.183 HD
HETATM   45  N12 UNL     1      -9.409  27.824 -19.223  1.00  0.00    -0.175 N
ATOM     46  H12 UNL     1      -9.200  28.320 -18.357  1.00  0.00     0.186 HD
BRANCH  43  47
HETATM   47  N11 UNL     1      -8.925  29.575 -20.752  1.00  0.00    -0.234 N
ATOM     48 2H11 UNL     1      -8.006  29.901 -21.051  1.00  0.00     0.174 HD
ATOM     49 1H11 UNL     1      -9.536  30.392 -20.737  1.00  0.00     0.174 HD
ENDBRANCH  43  47
ENDBRANCH   8  40
TORSDOF 13
ENDMDL