MODEL 4
REMARK VINA RESULT: -6.229271699      1.569      3.037
REMARK  2 active torsions:
REMARK  status: ('A' for Active; 'I' for Inactive)
REMARK    1  A    between atoms: C3_4  and  N2_5
REMARK    2  A    between atoms: N3_14  and  C9_15
ROOT
HETATM    1  C1  UNL     1       7.719  -4.545   3.694  1.00  0.00     0.311 C
HETATM    2  N1  UNL     1       8.730  -5.192   4.487  1.00  0.00     0.097 N
HETATM    3  C2  UNL     1      10.071  -4.981   3.981  1.00  0.00     0.305 C
HETATM    4  C3  UNL     1      11.009  -5.129   5.159  1.00  0.00     0.214 C
HETATM    5  C4  UNL     1      10.119  -5.228   6.365  1.00  0.00     0.077 C
HETATM    6  C5  UNL     1       8.802  -4.730   5.831  1.00  0.00     0.172 C
HETATM    7  C6  UNL     1       8.730  -3.182   5.921  1.00  0.00     0.123 C
HETATM    8  C7  UNL     1       8.014  -2.878   7.088  1.00  0.00    -0.151 C
HETATM    9  C8  UNL     1       7.289  -2.779   8.281  1.00  0.00     0.352 C
HETATM   10  N3  UNL     1       6.869  -4.143   8.684  1.00  0.00     0.103 N
HETATM   11  C15 UNL     1       7.650  -5.194   8.095  1.00  0.00     0.276 C
HETATM   12  C16 UNL     1       7.707  -5.398   6.656  1.00  0.00     0.073 C
ENDROOT
BRANCH   4  13
HETATM   13  N2  UNL     1      11.859  -6.288   5.051  1.00  0.00    -0.073 N
ATOM     14  H23 UNL     1      12.823  -6.018   4.856  1.00  0.00     0.274 HD
ATOM     15  H22 UNL     1      11.992  -6.730   5.961  1.00  0.00     0.274 HD
ATOM     16  H21 UNL     1      11.521  -6.961   4.363  1.00  0.00     0.274 HD
ENDBRANCH   4  13
BRANCH  10  17
HETATM   17  C9  UNL     1       6.652  -4.272  10.071  1.00  0.00     0.224 C
HETATM   18  C10 UNL     1       7.029  -3.094  10.910  1.00  0.00     0.036 C
HETATM   19  C11 UNL     1       6.470  -3.271  12.317  1.00  0.00     0.002 C
HETATM   20  C12 UNL     1       6.609  -4.677  12.818  1.00  0.00     0.000 C
HETATM   21  C13 UNL     1       7.611  -5.492  12.049  1.00  0.00     0.002 C
HETATM   22  C14 UNL     1       7.363  -5.501  10.568  1.00  0.00     0.036 C
ENDBRANCH  10  17
TORSDOF 2
ENDMDL