MODEL 2
REMARK VINA RESULT: -6.435211126      2.874      6.162
REMARK  3 active torsions:
REMARK  status: ('A' for Active; 'I' for Inactive)
REMARK    1  A    between atoms: C1_2  and  N1_3
REMARK    2  A    between atoms: C1_2  and  N3_13
REMARK    3  A    between atoms: N1_3  and  N2_5
ROOT
HETATM    1  S1  UNL     1       7.293  -5.506  12.282  1.00  0.00    -0.039 SA
HETATM    2  C1  UNL     1       7.116  -4.517  10.992  1.00  0.00     0.189 C
ENDROOT
BRANCH   2   3
HETATM    3  N1  UNL     1       6.950  -5.067   9.711  1.00  0.00    -0.276 N
ATOM      4  H1  UNL     1       6.098  -4.888   9.180  1.00  0.00     0.189 HD
BRANCH   3   5
HETATM    5  N2  UNL     1       7.967  -5.864   9.170  1.00  0.00    -0.307 N
HETATM    6  C2  UNL     1       8.575  -5.590   8.087  1.00  0.00     0.004 C
HETATM    7  C3  UNL     1       9.632  -6.483   7.591  1.00  0.00     0.054 C
HETATM    8  C7  UNL     1       8.206  -4.365   7.333  1.00  0.00     0.054 C
HETATM    9  C4  UNL     1       9.685  -6.572   6.089  1.00  0.00     0.006 C
HETATM   10  C5  UNL     1       9.420  -5.259   5.418  1.00  0.00     0.001 C
HETATM   11  C6  UNL     1       8.048  -4.771   5.883  1.00  0.00     0.006 C
ATOM     12  H2  UNL     1       8.235  -6.710   9.672  1.00  0.00     0.186 HD
ENDBRANCH   3   5
ENDBRANCH   2   3
BRANCH   2  13
HETATM   13  N3  UNL     1       7.137  -3.129  11.214  1.00  0.00    -0.348 N
HETATM   14  C8  UNL     1       7.389  -2.177  10.116  1.00  0.00     0.157 C
HETATM   15  C9  UNL     1       6.600  -0.937  10.565  1.00  0.00     0.139 C
HETATM   16  C10 UNL     1       5.250  -1.475  11.066  1.00  0.00     0.036 C
HETATM   17  O1  UNL     1       7.309  -0.342  11.571  1.00  0.00    -0.382 OA
HETATM   18  C11 UNL     1       5.456  -2.024  12.486  1.00  0.00     0.030 C
HETATM   19  C12 UNL     1       6.924  -2.475  12.497  1.00  0.00     0.110 C
HETATM   20  C13 UNL     1       7.737  -1.188  12.570  1.00  0.00     0.193 C
ENDBRANCH   2  13
TORSDOF 3
ENDMDL