MODEL 5
REMARK VINA RESULT: -6.575719236      2.470      5.427
REMARK  3 active torsions:
REMARK  status: ('A' for Active; 'I' for Inactive)
REMARK    1  A    between atoms: C2_2  and  C3_3
REMARK    2  A    between atoms: C3_3  and  N1_4
REMARK    3  A    between atoms: C14_16  and  O2_17
ROOT
HETATM    1  N1  UNL     1       7.293  -4.878  10.758  1.00  0.00    -0.185 NA
HETATM    2  O1  UNL     1       8.281  -5.782  10.948  1.00  0.00    -0.296 OA
HETATM    3  C4  UNL     1       9.156  -5.066  10.133  1.00  0.00     0.167 C
HETATM    4  C5  UNL     1       9.550  -5.991   8.990  1.00  0.00     0.041 C
HETATM    5  C6  UNL     1       8.141  -6.427   8.538  1.00  0.00     0.001 C
HETATM    6  C7  UNL     1       8.373  -7.035   7.179  1.00  0.00     0.006 C
HETATM    7  C8  UNL     1       8.701  -5.841   6.351  1.00  0.00     0.006 C
HETATM    8  C9  UNL     1       8.199  -4.611   7.087  1.00  0.00     0.002 C
HETATM    9  C10 UNL     1       7.311  -3.868   6.138  1.00  0.00    -0.014 C
HETATM   10  C11 UNL     1       8.081  -3.755   4.812  1.00  0.00     0.010 C
HETATM   11  C12 UNL     1       6.029  -4.587   5.815  1.00  0.00     0.007 C
HETATM   12  C13 UNL     1       5.490  -5.450   6.900  1.00  0.00     0.033 C
HETATM   13  C14 UNL     1       6.054  -5.016   8.238  1.00  0.00     0.129 C
HETATM   14  C15 UNL     1       7.527  -5.078   8.345  1.00  0.00     0.014 C
HETATM   15  C16 UNL     1       7.958  -4.352   9.589  1.00  0.00     0.129 C
ENDROOT
BRANCH   1  16
HETATM   16  C3  UNL     1       7.203  -4.042  11.917  1.00  0.00     0.147 C
BRANCH  16  17
HETATM   17  C2  UNL     1       6.832  -2.638  11.672  1.00  0.00    -0.020 C
HETATM   18  C1  UNL     1       7.488  -1.647  12.216  1.00  0.00     0.008 C
ENDBRANCH  16  17
ENDBRANCH   1  16
BRANCH  13  19
HETATM   19  O2  UNL     1       5.709  -3.640   8.318  1.00  0.00    -0.395 OA
ATOM     20  H2  UNL     1       6.235  -3.318   9.041  1.00  0.00     0.210 HD
ENDBRANCH  13  19
TORSDOF 3
ENDMDL