MODEL 5
REMARK VINA RESULT: -5.916573728      1.817      2.441
REMARK  2 active torsions:
REMARK  status: ('A' for Active; 'I' for Inactive)
REMARK    1  A    between atoms: C14_15  and  O1_16
REMARK    2  A    between atoms: O1_16  and  N2_17
ROOT
HETATM    1  C1  UNL     1       7.698  -0.951   7.814  1.00  0.00     0.016 C
HETATM    2  C2  UNL     1       6.621  -1.925   8.331  1.00  0.00    -0.033 C
HETATM    3  C3  UNL     1       5.341  -1.422   7.665  1.00  0.00     0.010 C
HETATM    4  C4  UNL     1       5.181  -2.036   6.338  1.00  0.00     0.001 C
HETATM    5  C5  UNL     1       4.917  -3.489   6.573  1.00  0.00     0.005 C
HETATM    6  C6  UNL     1       5.831  -4.183   7.526  1.00  0.00    -0.003 C
HETATM    7  C7  UNL     1       6.188  -5.439   6.854  1.00  0.00     0.036 C
HETATM    8  C8  UNL     1       7.088  -6.404   7.439  1.00  0.00     0.272 C
HETATM    9  N1  UNL     1       8.277  -5.769   7.941  1.00  0.00     0.088 N
HETATM   10  C9  UNL     1       8.821  -4.768   7.100  1.00  0.00     0.273 C
HETATM   11  C10 UNL     1       8.040  -3.504   6.965  1.00  0.00     0.041 C
HETATM   12  C11 UNL     1       6.959  -3.343   8.062  1.00  0.00    -0.022 C
HETATM   13  C12 UNL     1       7.634  -3.908   9.265  1.00  0.00     0.026 C
HETATM   14  C13 UNL     1       6.966  -3.627  10.587  1.00  0.00     0.041 C
HETATM   15  C14 UNL     1       7.223  -2.125  10.791  1.00  0.00     0.152 C
HETATM   16  C15 UNL     1       6.371  -1.515   9.750  1.00  0.00     0.044 C
HETATM   17  C16 UNL     1       7.959  -5.355   9.261  1.00  0.00     0.277 C
ENDROOT
BRANCH  15  18
HETATM   18  O1  UNL     1       6.814  -1.705  12.028  1.00  0.00    -0.282 OA
BRANCH  18  19
HETATM   19  N2  UNL     1       7.693  -0.948  12.689  1.00  0.00    -0.311 N
ATOM     20  H22 UNL     1       8.698  -1.069  12.569  1.00  0.00     0.184 HD
ATOM     21  H21 UNL     1       7.282  -0.253  13.313  1.00  0.00     0.184 HD
ENDBRANCH  18  19
ENDBRANCH  15  18
TORSDOF 2
ENDMDL