MODEL 3
REMARK VINA RESULT: -6.807801115      1.735      6.974
REMARK  1 active torsions:
REMARK  status: ('A' for Active; 'I' for Inactive)
REMARK    1  A    between atoms: C3_3  and  N1_4
ROOT
HETATM    1  N1  UNL     1       9.412  -5.775   4.916  1.00  0.00     0.093 N
HETATM    2  C4  UNL     1       8.733  -4.562   5.228  1.00  0.00     0.276 C
HETATM    3  C5  UNL     1       7.721  -4.852   6.287  1.00  0.00     0.070 C
HETATM    4  C6  UNL     1       8.173  -5.710   7.412  1.00  0.00     0.089 C
HETATM    5  C7  UNL     1       9.324  -6.611   7.121  1.00  0.00     0.070 C
HETATM    6  C8  UNL     1      10.234  -6.132   6.014  1.00  0.00     0.276 C
HETATM    7  C9  UNL     1       6.998  -6.641   7.758  1.00  0.00     0.270 C
HETATM    8  N2  UNL     1       5.842  -5.884   8.122  1.00  0.00    -0.070 N
ATOM      9  H21 UNL     1       5.149  -6.478   8.577  1.00  0.00     0.277 HD
ATOM     10  H22 UNL     1       5.313  -5.612   7.293  1.00  0.00     0.277 HD
HETATM   11  C10 UNL     1       6.144  -4.732   8.937  1.00  0.00     0.270 C
HETATM   12  C11 UNL     1       7.553  -4.687   9.415  1.00  0.00     0.086 C
HETATM   13  C12 UNL     1       7.793  -3.275   9.969  1.00  0.00     0.040 C
HETATM   14  C13 UNL     1       7.376  -3.296  11.400  1.00  0.00     0.003 C
HETATM   15  C14 UNL     1       7.027  -4.692  11.783  1.00  0.00     0.003 C
HETATM   16  C15 UNL     1       7.666  -5.516  10.665  1.00  0.00     0.040 C
HETATM   17  O1  UNL     1       8.512  -4.916   8.486  1.00  0.00    -0.366 OA
ENDROOT
BRANCH   1  18
HETATM   18  C3  UNL     1       9.954  -5.849   3.620  1.00  0.00     0.223 C
HETATM   19  C2  UNL     1      10.989  -4.831   3.238  1.00  0.00     0.036 C
HETATM   20  C1  UNL     1      11.783  -5.970   2.596  1.00  0.00     0.004 C
HETATM   21  C16 UNL     1      11.100  -6.875   3.627  1.00  0.00     0.036 C
ENDBRANCH   1  18
TORSDOF 1
ENDMDL