MODEL 4
REMARK VINA RESULT: -7.804610107      3.705      6.362
REMARK  1 active torsions:
REMARK  status: ('A' for Active; 'I' for Inactive)
REMARK    1  A    between atoms: C4_4  and  C5_5
ROOT
HETATM    1  C5  UNL     1       5.690  -1.242   9.070  1.00  0.00     0.100 A
HETATM    2  C6  UNL     1       5.789  -2.347   8.343  1.00  0.00     0.025 A
HETATM    3  C7  UNL     1       6.368  -3.398   8.995  1.00  0.00     0.016 A
HETATM    4  C8  UNL     1       6.570  -4.656   8.410  1.00  0.00     0.001 A
HETATM    5  C9  UNL     1       6.149  -4.805   7.110  1.00  0.00     0.002 A
HETATM    6  C10 UNL     1       5.558  -3.778   6.409  1.00  0.00     0.030 A
HETATM    7  C11 UNL     1       5.382  -2.562   7.022  1.00  0.00     0.046 A
HETATM    8  N1  UNL     1       4.816  -1.710   6.227  1.00  0.00    -0.338 N
ATOM      9  H1  UNL     1       4.605  -2.085   5.303  1.00  0.00     0.167 HD
HETATM   10  C12 UNL     1       4.434  -0.357   6.398  1.00  0.00     0.159 A
HETATM   11  N2  UNL     1       3.845   0.430   5.481  1.00  0.00    -0.335 N
ATOM     12  H2  UNL     1       3.596   0.144   4.534  1.00  0.00     0.168 HD
HETATM   13  C13 UNL     1       3.633   1.655   6.004  1.00  0.00     0.184 A
HETATM   14  N3  UNL     1       4.093   1.639   7.265  1.00  0.00    -0.330 N
ATOM     15  H3  UNL     1       4.069   2.426   7.914  1.00  0.00     0.168 HD
HETATM   16  C14 UNL     1       4.597   0.401   7.537  1.00  0.00     0.194 A
HETATM   17  O1  UNL     1       5.154   0.013   8.726  1.00  0.00    -0.288 OA
ENDROOT
BRANCH   1  18
HETATM   18  C4  UNL     1       6.200  -1.303  10.426  1.00  0.00    -0.001 A
HETATM   19  C3  UNL     1       7.479  -0.905  10.735  1.00  0.00     0.014 A
HETATM   20  C2  UNL     1       7.950  -0.937  12.046  1.00  0.00     0.001 A
HETATM   21  C1  UNL     1       7.129  -1.374  13.058  1.00  0.00     0.000 A
HETATM   22  C16 UNL     1       5.853  -1.774  12.769  1.00  0.00     0.001 A
HETATM   23  C15 UNL     1       5.388  -1.739  11.449  1.00  0.00     0.014 A
ENDBRANCH   1  18
TORSDOF 1
ENDMDL