MODEL 1
REMARK VINA RESULT: -7.343411717      0.000      0.000
REMARK  2 active torsions:
REMARK  status: ('A' for Active; 'I' for Inactive)
REMARK    1  A    between atoms: C3_3  and  O1_4
REMARK    2  A    between atoms: C11_13  and  C12_14
ROOT
HETATM    1  C1  UNL     1       2.787  -0.235   7.688  1.00  0.00     0.017 C
HETATM    2  C2  UNL     1       3.983  -0.366   7.174  1.00  0.00    -0.056 C
HETATM    3  C3  UNL     1       4.157  -0.571   5.739  1.00  0.00     0.151 C
HETATM    4  C4  UNL     1       5.027  -1.761   5.443  1.00  0.00     0.020 C
HETATM    5  C5  UNL     1       5.610  -1.531   4.046  1.00  0.00     0.013 C
HETATM    6  C6  UNL     1       6.119  -2.005   6.368  1.00  0.00     0.009 C
HETATM    7  C7  UNL     1       6.378  -0.970   7.426  1.00  0.00     0.037 C
HETATM    8  C8  UNL     1       5.223  -0.307   8.044  1.00  0.00     0.024 C
HETATM    9  C9  UNL     1       4.791  -0.654   9.399  1.00  0.00     0.015 C
HETATM   10  C10 UNL     1       5.748  -1.011  10.442  1.00  0.00     0.069 C
HETATM   11  C11 UNL     1       6.744  -2.054  10.257  1.00  0.00     0.165 C
HETATM   12  O2  UNL     1       6.362  -3.305   9.892  1.00  0.00    -0.346 OA
HETATM   13  C14 UNL     1       6.716  -3.441   8.513  1.00  0.00     0.168 A
HETATM   14  C15 UNL     1       5.870  -2.828   7.609  1.00  0.00     0.060 A
HETATM   15  C16 UNL     1       6.965  -2.109   8.139  1.00  0.00     0.102 A
HETATM   16  O3  UNL     1       7.580  -1.653   9.220  1.00  0.00    -0.341 OA
ENDROOT
BRANCH   3  17
HETATM   17  O1  UNL     1       4.680   0.613   5.190  1.00  0.00    -0.391 OA
ATOM     18  H1  UNL     1       4.734   0.502   4.248  1.00  0.00     0.210 HD
ENDBRANCH   3  17
BRANCH  11  19
HETATM   19  C12 UNL     1       7.637  -2.075  11.509  1.00  0.00     0.064 C
HETATM   20  C13 UNL     1       7.581  -0.782  12.246  1.00  0.00     0.010 C
ENDBRANCH  11  19
TORSDOF 2
ENDMDL