MODEL 3
REMARK VINA RESULT: -8.163860582      1.929      5.136
REMARK  0 active torsions:
REMARK  status: ('A' for Active; 'I' for Inactive)
ROOT
HETATM    1  N1  UNL     1       6.996  -3.429  12.719  1.00  0.00    -0.083 NA
HETATM    2  C1  UNL     1       7.083  -3.405  11.302  1.00  0.00     0.117 A
HETATM    3  N2  UNL     1       6.332  -2.485  10.751  1.00  0.00    -0.344 N
ATOM      4  H2  UNL     1       5.819  -1.948  11.451  1.00  0.00     0.167 HD
HETATM    5  C2  UNL     1       6.046  -2.038   9.435  1.00  0.00     0.043 A
HETATM    6  C3  UNL     1       5.149  -1.012   9.593  1.00  0.00     0.030 A
HETATM    7  C4  UNL     1       4.659  -0.348   8.496  1.00  0.00     0.002 A
HETATM    8  C5  UNL     1       5.066  -0.706   7.204  1.00  0.00     0.001 A
HETATM    9  C6  UNL     1       5.972  -1.742   7.039  1.00  0.00     0.014 A
HETATM   10  C7  UNL     1       6.454  -2.398   8.145  1.00  0.00    -0.009 A
HETATM   11  C8  UNL     1       7.357  -3.396   7.581  1.00  0.00     0.026 A
HETATM   12  C9  UNL     1       8.117  -4.324   8.136  1.00  0.00    -0.015 A
HETATM   13  C10 UNL     1       8.388  -4.758   9.496  1.00  0.00    -0.026 A
HETATM   14  C11 UNL     1       7.975  -4.388  10.724  1.00  0.00     0.054 A
HETATM   15  C12 UNL     1       9.334  -5.875   9.727  1.00  0.00     0.159 A
HETATM   16  N3  UNL     1       9.909  -6.439   8.554  1.00  0.00    -0.385 N
ATOM     17  H3  UNL     1      10.561  -7.208   8.711  1.00  0.00     0.160 HD
HETATM   18  C13 UNL     1       9.726  -6.120   7.338  1.00  0.00     0.039 A
HETATM   19  C14 UNL     1      10.254  -6.619   6.057  1.00  0.00     0.030 A
HETATM   20  C15 UNL     1       9.691  -5.885   5.127  1.00  0.00     0.003 A
HETATM   21  C16 UNL     1       8.782  -4.885   5.745  1.00  0.00     0.014 A
HETATM   22  C17 UNL     1       8.794  -5.012   7.037  1.00  0.00     0.001 A
ENDROOT
TORSDOF 0
ENDMDL