MODEL 3
REMARK VINA RESULT: -6.159979323      4.615      5.780
REMARK  2 active torsions:
REMARK  status: ('A' for Active; 'I' for Inactive)
REMARK    1  A    between atoms: C2_2  and  N1_3
REMARK    2  A    between atoms: C2_2  and  C3_7
ROOT
HETATM    1  C3  UNL     1       4.433   0.381   7.699  1.00  0.00     0.020 A
HETATM    2  C4  UNL     1       5.425  -0.217   6.705  1.00  0.00     0.013 A
HETATM    3  C5  UNL     1       5.371  -1.565   7.389  1.00  0.00     0.005 A
HETATM    4  C6  UNL     1       4.471  -0.912   8.447  1.00  0.00    -0.003 A
HETATM    5  C7  UNL     1       5.331  -0.891   9.719  1.00  0.00     0.013 C
HETATM    6  C8  UNL     1       6.135  -2.132   9.523  1.00  0.00     0.019 C
HETATM    7  C9  UNL     1       7.227  -2.350  10.492  1.00  0.00     0.129 C
HETATM    8  N2  UNL     1       7.685  -3.739  10.343  1.00  0.00    -0.370 N
HETATM    9  C10 UNL     1       7.894  -4.593  11.499  1.00  0.00     0.151 C
HETATM   10  C11 UNL     1       7.944  -4.311   9.065  1.00  0.00     0.136 C
HETATM   11  S1  UNL     1       8.813  -5.690   8.950  1.00  0.00    -0.053 SA
HETATM   12  S2  UNL     1       7.316  -3.520   7.563  1.00  0.00    -0.095 SA
HETATM   13  C12 UNL     1       6.648  -1.920   8.091  1.00  0.00     0.065 C
ENDROOT
BRANCH   1  14
HETATM   14  C2  UNL     1       3.062   0.539   7.028  1.00  0.00     0.183 C
HETATM   15  C1  UNL     1       2.618   1.961   6.979  1.00  0.00     0.040 C
BRANCH  14  16
HETATM   16  N1  UNL     1       2.117  -0.200   7.866  1.00  0.00    -0.075 N
ATOM     17  H13 UNL     1       1.200  -0.302   7.431  1.00  0.00     0.274 HD
ATOM     18  H12 UNL     1       2.345  -1.192   7.938  1.00  0.00     0.274 HD
ATOM     19  H11 UNL     1       2.075   0.263   8.774  1.00  0.00     0.274 HD
ENDBRANCH  14  16
ENDBRANCH   1  14
TORSDOF 2
ENDMDL