MODEL 3
REMARK VINA RESULT: -6.169003167      1.492      1.854
REMARK  0 active torsions:
REMARK  status: ('A' for Active; 'I' for Inactive)
ROOT
HETATM    1  O1  UNL     1      33.356   1.357  41.820  1.00  0.00    -0.245 OA
HETATM    2  C1  UNL     1      32.711   2.223  42.463  1.00  0.00     0.341 A
HETATM    3  N1  UNL     1      31.365   2.179  42.464  1.00  0.00    -0.248 N
ATOM      4  H1  UNL     1      30.860   1.455  41.954  1.00  0.00     0.192 HD
HETATM    5  N2  UNL     1      30.720   3.110  43.154  1.00  0.00    -0.258 N
ATOM      6  H2  UNL     1      29.701   3.090  43.165  1.00  0.00     0.190 HD
HETATM    7  C2  UNL     1      31.349   4.076  43.837  1.00  0.00     0.328 A
HETATM    8  O2  UNL     1      30.762   4.970  44.498  1.00  0.00    -0.261 OA
HETATM    9  C3  UNL     1      32.730   4.111  43.829  1.00  0.00     0.319 A
HETATM   10  O3  UNL     1      33.364   5.011  44.465  1.00  0.00    -0.262 OA
HETATM   11  N3  UNL     1      33.397   3.170  43.131  1.00  0.00    -0.270 N
ATOM     12  H3  UNL     1      34.417   3.176  43.110  1.00  0.00     0.174 HD
ENDROOT
TORSDOF 0
ENDMDL