MODEL 5
REMARK VINA RESULT: -5.422130141      2.036      4.255
REMARK  2 active torsions:
REMARK  status: ('A' for Active; 'I' for Inactive)
REMARK       I    between atoms: C1_2  and  N2_4
REMARK    1  A    between atoms: N2_4  and  N3_6
REMARK    2  A    between atoms: N3_6  and  C2_8
ROOT
HETATM    1  C2  UNL     1      32.367   3.465  42.232  1.00  0.00     0.712 A
HETATM    2  N4  UNL     1      31.426   4.303  42.687  1.00  0.00    -0.184 N
ATOM      3  H4  UNL     1      31.485   5.322  42.694  1.00  0.00     0.185 HD
HETATM    4  C3  UNL     1      30.397   3.579  43.128  1.00  0.00     0.215 A
HETATM    5  N5  UNL     1      30.689   2.271  42.951  1.00  0.00    -0.281 N
ATOM      6  H5  UNL     1      30.094   1.479  43.192  1.00  0.00     0.188 HD
HETATM    7  N6  UNL     1      31.880   2.215  42.410  1.00  0.00    -0.130 N
ATOM      8  H6  UNL     1      32.369   1.355  42.160  1.00  0.00     0.205 HD
ENDROOT
BRANCH   1   9
HETATM    9  N3  UNL     1      33.500   3.813  41.732  1.00  0.00    -0.127 N
ATOM     10  H3  UNL     1      34.335   3.822  42.318  1.00  0.00     0.206 HD
BRANCH   9  11
HETATM   11  N2  UNL     1      33.588   4.178  40.395  1.00  0.00    -0.240 N
HETATM   12  C1  UNL     1      33.401   5.500  39.931  1.00  0.00     0.347 C
HETATM   13  N1  UNL     1      33.497   5.833  38.565  1.00  0.00    -0.038 NA
HETATM   14  O1  UNL     1      33.144   6.393  40.766  1.00  0.00    -0.249 OA
ATOM     15  H2  UNL     1      33.798   3.452  39.710  1.00  0.00     0.192 HD
ENDBRANCH   9  11
ENDBRANCH   1   9
TORSDOF 2
ENDMDL