MODEL 5
REMARK VINA RESULT: -5.571406516      1.990      2.071
REMARK  2 active torsions:
REMARK  status: ('A' for Active; 'I' for Inactive)
REMARK       I    between atoms: C1_2  and  N2_4
REMARK    1  A    between atoms: N2_4  and  C2_6
REMARK    2  A    between atoms: N5_11  and  N6_12
ROOT
HETATM    1  C2  UNL     1      33.422   3.089  42.767  1.00  0.00     0.197 A
HETATM    2  N3  UNL     1      32.624   2.164  42.201  1.00  0.00    -0.264 N
ATOM      3  H3  UNL     1      32.918   1.373  41.628  1.00  0.00     0.190 HD
HETATM    4  N4  UNL     1      31.384   2.481  42.534  1.00  0.00    -0.217 N
ATOM      5  H4  UNL     1      30.561   1.953  42.245  1.00  0.00     0.210 HD
HETATM    6  N5  UNL     1      31.341   3.554  43.279  1.00  0.00    -0.146 N
HETATM    7  C3  UNL     1      32.617   3.973  43.452  1.00  0.00     0.328 A
HETATM    8  O2  UNL     1      32.949   4.987  44.121  1.00  0.00    -0.260 OA
ENDROOT
BRANCH   1   9
HETATM    9  N2  UNL     1      34.704   3.177  42.710  1.00  0.00    -0.291 N
HETATM   10  C1  UNL     1      35.368   3.527  41.503  1.00  0.00     0.334 C
HETATM   11  N1  UNL     1      35.549   4.906  41.204  1.00  0.00    -0.040 NA
HETATM   12  O1  UNL     1      35.757   2.594  40.767  1.00  0.00    -0.251 OA
ATOM     13  H2  UNL     1      35.255   2.992  43.548  1.00  0.00     0.172 HD
ENDBRANCH   1   9
BRANCH   6  14
HETATM   14  N6  UNL     1      30.187   4.146  43.795  1.00  0.00    -0.320 N
ATOM     15  H62 UNL     1      29.904   5.121  43.701  1.00  0.00     0.179 HD
ATOM     16  H61 UNL     1      29.467   3.674  44.342  1.00  0.00     0.179 HD
ENDBRANCH   6  14
TORSDOF 2
ENDMDL