MODEL 5
REMARK VINA RESULT: -6.017138363      2.025      3.592
REMARK  2 active torsions:
REMARK  status: ('A' for Active; 'I' for Inactive)
REMARK       I    between atoms: C1_2  and  N2_4
REMARK    1  A    between atoms: N2_4  and  C2_6
REMARK    2  A    between atoms: N6_11  and  O2_12
ROOT
HETATM    1  C2  UNL     1      32.435   3.682  42.326  1.00  0.00     0.738 A
HETATM    2  N3  UNL     1      33.366   4.651  42.417  1.00  0.00    -0.114 N
ATOM      3  H3  UNL     1      33.187   5.648  42.535  1.00  0.00     0.203 HD
HETATM    4  N4  UNL     1      34.559   4.076  42.324  1.00  0.00     0.009 NA
HETATM    5  N5  UNL     1      34.426   2.765  42.178  1.00  0.00     0.037 NA
HETATM    6  N6  UNL     1      33.120   2.533  42.180  1.00  0.00     0.031 N
ENDROOT
BRANCH   1   7
HETATM    7  N2  UNL     1      31.132   3.808  42.369  1.00  0.00    -0.139 N
HETATM    8  C1  UNL     1      30.510   4.005  43.632  1.00  0.00     0.347 C
HETATM    9  N1  UNL     1      30.808   5.133  44.439  1.00  0.00    -0.039 NA
HETATM   10  O1  UNL     1      29.658   3.187  44.108  1.00  0.00    -0.250 OA
ATOM     11  H2  UNL     1      30.576   3.765  41.516  1.00  0.00     0.189 HD
ENDBRANCH   1   7
BRANCH   6  12
HETATM   12  O2  UNL     1      32.593   1.412  42.064  1.00  0.00    -0.256 OA
ATOM     13  H2  UNL     1      32.360   0.851  42.795  1.00  0.00     0.247 HD
ENDBRANCH   6  12
TORSDOF 2
ENDMDL