MODEL 2
REMARK VINA RESULT: -5.999364489      0.029      2.482
REMARK  2 active torsions:
REMARK  status: ('A' for Active; 'I' for Inactive)
REMARK    1  A    between atoms: N1_1  and  N2_4
REMARK    2  A    between atoms: N2_4  and  C1_6
ROOT
HETATM    1  C1  UNL     1      32.389   2.386  42.559  1.00  0.00     0.704 A
HETATM    2  N3  UNL     1      33.134   3.273  43.225  1.00  0.00    -0.139 N
ATOM      3  H3  UNL     1      34.149   3.167  43.214  1.00  0.00     0.189 HD
HETATM    4  C2  UNL     1      32.602   4.303  43.910  1.00  0.00     0.342 A
HETATM    5  O1  UNL     1      33.319   5.131  44.532  1.00  0.00    -0.246 OA
HETATM    6  N4  UNL     1      31.266   4.438  43.921  1.00  0.00    -0.260 N
ATOM      7  H4  UNL     1      30.834   5.208  44.431  1.00  0.00     0.175 HD
HETATM    8  C3  UNL     1      30.508   3.562  43.264  1.00  0.00     0.342 A
HETATM    9  O2  UNL     1      29.258   3.688  43.274  1.00  0.00    -0.246 OA
HETATM   10  N5  UNL     1      31.060   2.527  42.576  1.00  0.00    -0.139 N
ATOM     11  H5  UNL     1      30.466   1.865  42.078  1.00  0.00     0.189 HD
ENDROOT
BRANCH   1  12
HETATM   12  N2  UNL     1      32.921   1.424  41.922  1.00  0.00    -0.138 N
ATOM     13  H2  UNL     1      32.672   0.477  42.204  1.00  0.00     0.205 HD
BRANCH  12  14
HETATM   14  N1  UNL     1      33.813   1.567  40.871  1.00  0.00    -0.331 N
ATOM     15  H12 UNL     1      33.574   1.087  40.003  1.00  0.00     0.177 HD
ATOM     16  H11 UNL     1      34.676   2.109  40.907  1.00  0.00     0.177 HD
ENDBRANCH  12  14
ENDBRANCH   1  12
TORSDOF 2
ENDMDL