MODEL 1
REMARK VINA RESULT: -6.155156882      0.000      0.000
REMARK  0 active torsions:
REMARK  status: ('A' for Active; 'I' for Inactive)
ROOT
HETATM    1  C1  UNL     1      34.835   3.663  42.600  1.00  0.00     0.047 C
HETATM    2  C2  UNL     1      33.539   3.445  42.723  1.00  0.00     0.071 C
HETATM    3  N1  UNL     1      32.787   4.383  43.462  1.00  0.00    -0.316 N
ATOM      4  H1  UNL     1      33.288   5.210  43.784  1.00  0.00     0.169 HD
HETATM    5  C3  UNL     1      31.391   4.305  43.813  1.00  0.00     0.315 C
HETATM    6  O1  UNL     1      30.915   5.289  44.393  1.00  0.00    -0.262 OA
HETATM    7  C4  UNL     1      30.449   3.220  43.584  1.00  0.00     0.328 C
HETATM    8  O2  UNL     1      29.322   3.362  44.115  1.00  0.00    -0.261 OA
HETATM    9  N2  UNL     1      30.601   2.020  42.848  1.00  0.00    -0.260 N
ATOM     10  H2  UNL     1      29.774   1.429  42.760  1.00  0.00     0.190 HD
HETATM   11  N3  UNL     1      31.773   1.557  42.229  1.00  0.00    -0.281 N
ATOM     12  H3  UNL     1      31.725   0.614  41.843  1.00  0.00     0.188 HD
HETATM   13  C5  UNL     1      33.035   2.232  42.064  1.00  0.00     0.140 C
HETATM   14  N4  UNL     1      33.865   1.727  41.224  1.00  0.00    -0.383 N
ATOM     15  H41 UNL     1      33.515   0.885  40.768  1.00  0.00     0.157 HD
ATOM     16  H42 UNL     1      34.759   2.204  41.107  1.00  0.00     0.157 HD
ENDROOT
TORSDOF 0
ENDMDL