MODEL 1
REMARK VINA RESULT: -5.724137155      0.000      0.000
REMARK  1 active torsions:
REMARK  status: ('A' for Active; 'I' for Inactive)
REMARK       I    between atoms: N1_1  and  C1_4
REMARK       I    between atoms: C1_4  and  N3_6
REMARK    1  A    between atoms: N3_6  and  C2_8
ROOT
HETATM    1  C2  UNL     1      32.256   3.997  42.352  1.00  0.00     0.201 A
HETATM    2  N4  UNL     1      31.019   3.509  42.135  1.00  0.00    -0.220 N
ATOM      3  H4  UNL     1      30.632   3.262  41.225  1.00  0.00     0.198 HD
HETATM    4  O1  UNL     1      30.403   3.406  43.260  1.00  0.00    -0.152 OA
HETATM    5  N5  UNL     1      31.137   3.794  44.257  1.00  0.00    -0.203 N
ATOM      6  H5  UNL     1      30.876   3.808  45.243  1.00  0.00     0.200 HD
HETATM    7  C3  UNL     1      32.312   4.174  43.726  1.00  0.00     0.312 A
HETATM    8  O2  UNL     1      33.302   4.616  44.351  1.00  0.00    -0.262 OA
ENDROOT
BRANCH   1   9
HETATM    9  N3  UNL     1      33.199   4.253  41.488  1.00  0.00    -0.311 N
HETATM   10  C1  UNL     1      33.202   5.537  40.920  1.00  0.00     0.187 C
HETATM   11  N1  UNL     1      33.585   6.531  41.612  1.00  0.00    -0.373 N
HETATM   12  N2  UNL     1      32.777   5.691  39.590  1.00  0.00    -0.064 NA
ATOM     13  H12 UNL     1      33.588   7.464  41.199  1.00  0.00     0.158 HD
ATOM     14  H11 UNL     1      33.894   6.418  42.578  1.00  0.00     0.158 HD
ATOM     15  H3  UNL     1      33.899   3.554  41.238  1.00  0.00     0.170 HD
ENDBRANCH   1   9
TORSDOF 1
ENDMDL