MODEL 2
REMARK VINA RESULT: -5.509193542      0.950      2.667
REMARK  0 active torsions:
REMARK  status: ('A' for Active; 'I' for Inactive)
REMARK       I    between atoms: C1_4  and  N3_6
ROOT
HETATM    1  N1  UNL     1      32.684   5.569  43.994  1.00  0.00    -0.373 N
ATOM      2  H11 UNL     1      31.934   5.367  44.655  1.00  0.00     0.158 HD
ATOM      3  H12 UNL     1      33.248   6.411  44.110  1.00  0.00     0.158 HD
HETATM    4  C1  UNL     1      32.910   4.766  43.027  1.00  0.00     0.200 C
HETATM    5  N2  UNL     1      33.948   5.044  42.114  1.00  0.00    -0.063 NA
HETATM    6  N3  UNL     1      32.132   3.603  42.868  1.00  0.00    -0.185 N
HETATM    7  C2  UNL     1      30.824   3.416  43.174  1.00  0.00     0.351 A
HETATM    8  O1  UNL     1      30.039   4.264  43.672  1.00  0.00    -0.244 OA
HETATM    9  N4  UNL     1      30.520   2.144  42.844  1.00  0.00    -0.247 N
ATOM     10  H4  UNL     1      29.602   1.714  42.962  1.00  0.00     0.192 HD
HETATM   11  N5  UNL     1      31.581   1.537  42.348  1.00  0.00    -0.247 N
ATOM     12  H5  UNL     1      31.628   0.572  42.020  1.00  0.00     0.192 HD
HETATM   13  C3  UNL     1      32.588   2.426  42.356  1.00  0.00     0.351 A
HETATM   14  O2  UNL     1      33.744   2.150  41.941  1.00  0.00    -0.244 OA
ENDROOT
TORSDOF 0
ENDMDL