MODEL 4
REMARK VINA RESULT: -5.402916538      2.109      4.468
REMARK  1 active torsions:
REMARK  status: ('A' for Active; 'I' for Inactive)
REMARK    1  A    between atoms: N1_1  and  C1_4
ROOT
HETATM    1  C1  UNL     1      32.289   4.598  43.094  1.00  0.00     0.172 C
HETATM    2  N2  UNL     1      32.792   3.504  42.490  1.00  0.00    -0.290 N
ATOM      3  H2  UNL     1      33.722   3.607  42.083  1.00  0.00     0.172 HD
HETATM    4  C2  UNL     1      32.213   2.274  42.355  1.00  0.00     0.329 C
HETATM    5  O1  UNL     1      32.993   1.345  42.016  1.00  0.00    -0.246 OA
HETATM    6  N3  UNL     1      30.909   1.946  42.542  1.00  0.00    -0.260 N
ATOM      7  H3  UNL     1      30.655   1.003  42.245  1.00  0.00     0.175 HD
HETATM    8  C3  UNL     1      29.897   2.674  43.058  1.00  0.00     0.331 C
HETATM    9  O2  UNL     1      28.714   2.306  42.830  1.00  0.00    -0.246 OA
HETATM   10  N4  UNL     1      30.056   3.784  43.810  1.00  0.00    -0.272 N
ATOM     11  H4  UNL     1      29.289   4.006  44.444  1.00  0.00     0.174 HD
HETATM   12  C4  UNL     1      31.114   4.646  43.827  1.00  0.00     0.293 C
HETATM   13  O3  UNL     1      31.046   5.625  44.597  1.00  0.00    -0.264 OA
ENDROOT
BRANCH   1  14
HETATM   14  N1  UNL     1      32.952   5.700  42.987  1.00  0.00    -0.381 N
ATOM     15  H12 UNL     1      32.448   6.560  43.202  1.00  0.00     0.157 HD
ATOM     16  H11 UNL     1      33.928   5.639  42.698  1.00  0.00     0.157 HD
ENDBRANCH   1  14
TORSDOF 1
ENDMDL