MODEL 1
REMARK VINA RESULT: -6.095286072      0.000      0.000
REMARK  1 active torsions:
REMARK  status: ('A' for Active; 'I' for Inactive)
REMARK    1  A    between atoms: N1_1  and  C1_4
ROOT
HETATM    1  C1  UNL     1      33.072   3.271  42.920  1.00  0.00     0.693 A
HETATM    2  N2  UNL     1      32.217   2.368  42.401  1.00  0.00    -0.129 N
ATOM      3  H2  UNL     1      32.602   1.595  41.859  1.00  0.00     0.205 HD
HETATM    4  N3  UNL     1      30.908   2.431  42.558  1.00  0.00    -0.247 N
ATOM      5  H3  UNL     1      30.289   1.730  42.150  1.00  0.00     0.191 HD
HETATM    6  C2  UNL     1      30.426   3.460  43.277  1.00  0.00     0.329 A
HETATM    7  O1  UNL     1      29.160   3.521  43.428  1.00  0.00    -0.261 OA
HETATM    8  C3  UNL     1      31.276   4.385  43.811  1.00  0.00     0.329 A
HETATM    9  O2  UNL     1      30.788   5.351  44.489  1.00  0.00    -0.261 OA
HETATM   10  N4  UNL     1      32.611   4.308  43.644  1.00  0.00    -0.150 N
ATOM     11  H4  UNL     1      33.241   5.002  44.045  1.00  0.00     0.188 HD
ENDROOT
BRANCH   1  12
HETATM   12  N1  UNL     1      34.352   3.203  42.763  1.00  0.00    -0.233 N
ATOM     13  H12 UNL     1      34.683   2.688  41.948  1.00  0.00     0.174 HD
ATOM     14  H11 UNL     1      35.016   3.632  43.407  1.00  0.00     0.174 HD
ENDBRANCH   1  12
TORSDOF 1
ENDMDL