MODEL 1
REMARK VINA RESULT: -7.755089945      0.000      0.000
REMARK  6 active torsions:
REMARK  status: ('A' for Active; 'I' for Inactive)
REMARK    1  A    between atoms: C4_5  and  N2_6
REMARK    2  A    between atoms: N2_6  and  C5_8
REMARK    3  A    between atoms: C6_11  and  N4_12
REMARK    4  A    between atoms: N4_12  and  C7_14
REMARK    5  A    between atoms: C10_19  and  N6_20
REMARK    6  A    between atoms: N6_20  and  C11_22
ROOT
HETATM    1  C5  UNL     1     -28.561   2.430  26.859  1.00  0.00     0.707 A
HETATM    2  N3  UNL     1     -27.635   3.278  27.283  1.00  0.00    -0.021 N
ATOM      3  H3  UNL     1     -27.885   4.248  27.477  1.00  0.00     0.203 HD
HETATM    4  C6  UNL     1     -26.353   2.861  27.462  1.00  0.00     0.707 A
HETATM    5  N5  UNL     1     -26.038   1.570  27.200  1.00  0.00    -0.021 N
ATOM      6  H5  UNL     1     -25.076   1.262  27.335  1.00  0.00     0.203 HD
HETATM    7  C10 UNL     1     -26.947   0.683  26.768  1.00  0.00     0.709 A
HETATM    8  N9  UNL     1     -28.199   1.123  26.603  1.00  0.00    -0.021 N
ATOM      9  H9  UNL     1     -28.911   0.470  26.277  1.00  0.00     0.203 HD
ENDROOT
BRANCH   7  10
HETATM   10  N6  UNL     1     -26.616  -0.513  26.534  1.00  0.00    -0.187 N
ATOM     11  H6  UNL     1     -25.728  -0.642  26.049  1.00  0.00     0.180 HD
BRANCH  10  12
HETATM   12  C11 UNL     1     -27.322  -1.701  26.859  1.00  0.00     0.391 C
HETATM   13  N7  UNL     1     -28.237  -2.113  25.807  1.00  0.00    -0.043 N
HETATM   14  C12 UNL     1     -28.988  -3.248  26.231  1.00  0.00     0.265 C
ATOM     15  H72 UNL     1     -28.839  -1.348  25.503  1.00  0.00     0.280 HD
ATOM     16  H71 UNL     1     -27.753  -2.282  24.925  1.00  0.00     0.280 HD
HETATM   17  C13 UNL     1     -28.213  -4.370  26.824  1.00  0.00     0.049 C
HETATM   18  C14 UNL     1     -28.483  -4.470  28.320  1.00  0.00     0.039 C
HETATM   19  C15 UNL     1     -28.497  -5.704  26.163  1.00  0.00     0.039 C
HETATM   20  N8  UNL     1     -26.794  -4.114  26.673  1.00  0.00    -0.348 N
HETATM   21  C16 UNL     1     -26.341  -2.808  26.993  1.00  0.00     0.269 C
ATOM     22  H8  UNL     1     -26.151  -4.838  26.351  1.00  0.00     0.163 HD
HETATM   23  O1  UNL     1     -25.151  -2.669  27.367  1.00  0.00    -0.269 OA
ENDBRANCH  10  12
ENDBRANCH   7  10
BRANCH   4  24
HETATM   24  N4  UNL     1     -25.486   3.723  27.876  1.00  0.00    -0.220 N
ATOM     25  H4  UNL     1     -25.560   4.049  28.839  1.00  0.00     0.178 HD
BRANCH  24  26
HETATM   26  C7  UNL     1     -24.430   4.250  27.069  1.00  0.00     0.099 A
HETATM   27  C8  UNL     1     -24.027   5.720  27.287  1.00  0.00     0.028 A
HETATM   28  C9  UNL     1     -24.825   5.340  26.088  1.00  0.00     0.028 A
ENDBRANCH  24  26
ENDBRANCH   4  24
BRANCH   1  29
HETATM   29  N2  UNL     1     -29.766   2.799  26.685  1.00  0.00    -0.220 N
ATOM     30  H2  UNL     1     -30.146   3.482  27.339  1.00  0.00     0.178 HD
BRANCH  29  31
HETATM   31  C4  UNL     1     -30.628   2.334  25.647  1.00  0.00     0.102 C
HETATM   32  C3  UNL     1     -30.134   2.955  24.351  1.00  0.00     0.045 C
HETATM   33  C2  UNL     1     -31.223   3.172  23.355  1.00  0.00     0.118 C
HETATM   34  N1  UNL     1     -32.409   2.431  23.548  1.00  0.00    -0.416 N
HETATM   35  C1  UNL     1     -32.492   1.175  22.886  1.00  0.00     0.143 C
HETATM   36  C18 UNL     1     -32.998   2.494  24.841  1.00  0.00     0.118 C
HETATM   37  C17 UNL     1     -32.040   2.756  25.957  1.00  0.00     0.045 C
ENDBRANCH  29  31
ENDBRANCH   1  29
TORSDOF 6
ENDMDL