MODEL 5
REMARK VINA RESULT: -7.783885109      2.016      2.626
REMARK  6 active torsions:
REMARK  status: ('A' for Active; 'I' for Inactive)
REMARK       I    between atoms: C2_4  and  N3_6
REMARK    1  A    between atoms: C5_9  and  N4_10
REMARK    2  A    between atoms: N4_10  and  C6_12
REMARK    3  A    between atoms: C7_15  and  N6_16
REMARK    4  A    between atoms: N6_16  and  C8_18
REMARK    5  A    between atoms: C11_23  and  N8_24
REMARK    6  A    between atoms: N8_24  and  C12_26
ROOT
HETATM    1  C6  UNL     1     -29.264   2.183  26.704  1.00  0.00     0.707 A
HETATM    2  N5  UNL     1     -28.249   2.903  27.202  1.00  0.00    -0.021 N
ATOM      3  H5  UNL     1     -28.306   3.921  27.166  1.00  0.00     0.203 HD
HETATM    4  C7  UNL     1     -27.155   2.331  27.749  1.00  0.00     0.707 A
HETATM    5  N7  UNL     1     -27.109   0.988  27.781  1.00  0.00    -0.021 N
ATOM      6  H7  UNL     1     -26.297   0.524  28.186  1.00  0.00     0.203 HD
HETATM    7  C11 UNL     1     -28.130   0.238  27.281  1.00  0.00     0.707 A
HETATM    8  N10 UNL     1     -29.198   0.857  26.747  1.00  0.00    -0.021 N
ATOM      9  H10 UNL     1     -29.966   0.301  26.371  1.00  0.00     0.203 HD
ENDROOT
BRANCH   1  10
HETATM   10  N4  UNL     1     -30.303   2.733  26.188  1.00  0.00    -0.220 N
ATOM     11  H4  UNL     1     -30.742   3.505  26.690  1.00  0.00     0.178 HD
BRANCH  10  12
HETATM   12  C5  UNL     1     -30.888   2.311  24.922  1.00  0.00     0.102 C
HETATM   13  C4  UNL     1     -30.148   2.879  23.766  1.00  0.00     0.045 C
HETATM   14  C3  UNL     1     -30.884   3.942  22.992  1.00  0.00     0.127 C
HETATM   15  N3  UNL     1     -32.290   3.638  22.854  1.00  0.00    -0.356 N
HETATM   16  C2  UNL     1     -33.051   4.412  21.941  1.00  0.00     0.185 C
HETATM   17  C17 UNL     1     -32.931   2.594  23.604  1.00  0.00     0.127 C
HETATM   18  N1  UNL     1     -33.400   3.908  20.822  1.00  0.00    -0.369 N
HETATM   19  N2  UNL     1     -33.444   5.754  22.235  1.00  0.00    -0.064 NA
HETATM   20  C1  UNL     1     -33.068   2.577  20.408  1.00  0.00     0.148 C
ATOM     21  H1  UNL     1     -33.947   4.488  20.185  1.00  0.00     0.161 HD
HETATM   22  C16 UNL     1     -32.344   2.628  24.992  1.00  0.00     0.045 C
ENDBRANCH  10  12
ENDBRANCH   1  10
BRANCH   4  23
HETATM   23  N6  UNL     1     -26.158   2.978  28.236  1.00  0.00    -0.221 N
ATOM     24  H6  UNL     1     -26.281   3.507  29.100  1.00  0.00     0.178 HD
BRANCH  23  25
HETATM   25  C8  UNL     1     -24.865   2.974  27.586  1.00  0.00     0.091 C
HETATM   26  C9  UNL     1     -23.832   2.466  28.572  1.00  0.00     0.032 C
HETATM   27  C10 UNL     1     -24.494   4.330  27.038  1.00  0.00     0.032 C
ENDBRANCH  23  25
ENDBRANCH   4  23
BRANCH   7  28
HETATM   28  N8  UNL     1     -28.123  -1.036  27.295  1.00  0.00    -0.219 N
ATOM     29  H8  UNL     1     -28.547  -1.496  28.101  1.00  0.00     0.178 HD
BRANCH  28  30
HETATM   30  C12 UNL     1     -27.569  -1.881  26.271  1.00  0.00     0.126 C
HETATM   31  C13 UNL     1     -26.689  -2.942  26.885  1.00  0.00     0.055 C
HETATM   32  C14 UNL     1     -25.307  -2.348  26.855  1.00  0.00     0.234 C
HETATM   33  N9  UNL     1     -25.295  -1.320  25.860  1.00  0.00    -0.073 N
HETATM   34  C15 UNL     1     -26.625  -1.069  25.423  1.00  0.00     0.257 C
ATOM     35  H92 UNL     1     -24.831  -0.473  26.186  1.00  0.00     0.277 HD
ATOM     36  H91 UNL     1     -24.670  -1.541  25.085  1.00  0.00     0.277 HD
ENDBRANCH  28  30
ENDBRANCH   7  28
TORSDOF 6
ENDMDL