MODEL 5
REMARK VINA RESULT: -6.717937004      2.426      6.287
REMARK  6 active torsions:
REMARK  status: ('A' for Active; 'I' for Inactive)
REMARK    1  A    between atoms: C2_2  and  O1_3
REMARK    2  A    between atoms: O1_3  and  C3_4
REMARK       I    between atoms: C3_4  and  N1_6
REMARK    3  A    between atoms: C6_9  and  N2_10
REMARK       I    between atoms: N2_10  and  C7_11
REMARK    4  A    between atoms: N4_13  and  C8_15
REMARK       I    between atoms: N5_19  and  C12_20
REMARK    5  A    between atoms: C12_20  and  C13_22
REMARK    6  A    between atoms: C13_22  and  N6_23
REMARK       I    between atoms: N6_23  and  C14_25
ROOT
HETATM    1  C3  UNL     1     -29.066  -3.172  25.392  1.00  0.00     0.362 C
HETATM    2  O2  UNL     1     -28.287  -3.931  25.992  1.00  0.00    -0.238 OA
HETATM    3  N1  UNL     1     -29.099  -1.753  25.483  1.00  0.00    -0.326 N
HETATM    4  C4  UNL     1     -30.080  -1.038  24.710  1.00  0.00     0.136 C
HETATM    5  C5  UNL     1     -29.597   0.380  24.478  1.00  0.00     0.112 C
HETATM    6  C6  UNL     1     -29.709   1.202  25.756  1.00  0.00     0.165 C
HETATM    7  N5  UNL     1     -28.919   0.960  26.949  1.00  0.00    -0.293 N
HETATM    8  C12 UNL     1     -28.292   2.061  27.560  1.00  0.00     0.243 C
HETATM    9  O3  UNL     1     -28.313   3.204  27.060  1.00  0.00    -0.271 OA
HETATM   10  C15 UNL     1     -28.715  -0.379  27.507  1.00  0.00     0.154 C
HETATM   11  C16 UNL     1     -28.104  -1.194  26.370  1.00  0.00     0.148 C
ENDROOT
BRANCH   6  12
HETATM   12  N2  UNL     1     -30.542   2.053  25.741  1.00  0.00    -0.360 NA
HETATM   13  C7  UNL     1     -31.481   3.011  25.729  1.00  0.00     0.265 C
HETATM   14  N3  UNL     1     -31.469   4.130  26.621  1.00  0.00    -0.049 NA
HETATM   15  N4  UNL     1     -32.483   2.975  24.881  1.00  0.00    -0.345 N
ATOM     16  H4  UNL     1     -32.530   2.196  24.224  1.00  0.00     0.164 HD
BRANCH  15  17
HETATM   17  C8  UNL     1     -33.492   3.951  24.829  1.00  0.00     0.022 C
HETATM   18  C9  UNL     1     -34.235   4.189  26.133  1.00  0.00     0.037 C
HETATM   19  C10 UNL     1     -34.586   3.530  23.801  1.00  0.00     0.037 C
HETATM   20  C11 UNL     1     -32.941   5.244  24.248  1.00  0.00     0.037 C
ENDBRANCH  15  17
ENDBRANCH   6  12
BRANCH   8  21
HETATM   21  C13 UNL     1     -27.565   1.937  28.839  1.00  0.00     0.225 C
BRANCH  21  22
HETATM   22  N6  UNL     1     -26.300   2.628  28.858  1.00  0.00    -0.356 N
HETATM   23  C14 UNL     1     -25.086   1.916  28.573  1.00  0.00     0.182 C
HETATM   24  N7  UNL     1     -25.007   0.722  28.200  1.00  0.00    -0.374 N
HETATM   25  N8  UNL     1     -23.838   2.639  28.748  1.00  0.00    -0.064 NA
ATOM     26  H72 UNL     1     -25.883   0.214  28.077  1.00  0.00     0.158 HD
ATOM     27  H71 UNL     1     -24.145   0.217  27.998  1.00  0.00     0.158 HD
ATOM     28  H6  UNL     1     -26.267   3.625  29.075  1.00  0.00     0.162 HD
ENDBRANCH  21  22
ENDBRANCH   8  21
BRANCH   1  29
HETATM   29  O1  UNL     1     -30.012  -3.784  24.537  1.00  0.00    -0.304 OA
BRANCH  29  30
HETATM   30  C2  UNL     1     -30.849  -4.782  25.084  1.00  0.00     0.176 C
HETATM   31  C1  UNL     1     -31.881  -4.120  25.971  1.00  0.00     0.034 C
ENDBRANCH  29  30
ENDBRANCH   1  29
TORSDOF 6
ENDMDL