MODEL 2
REMARK VINA RESULT: -6.944692407      2.051      3.884
REMARK  3 active torsions:
REMARK  status: ('A' for Active; 'I' for Inactive)
REMARK       I    between atoms: C1_4  and  N3_6
REMARK       I    between atoms: N5_14  and  C7_15
REMARK    1  A    between atoms: C7_15  and  C8_17
REMARK    2  A    between atoms: C8_17  and  C9_18
REMARK    3  A    between atoms: C9_18  and  C10_19
ROOT
HETATM    1  N1  UNL     1     -33.051   4.148  22.262  1.00  0.00    -0.374 N
ATOM      2  H11 UNL     1     -33.840   3.518  22.411  1.00  0.00     0.158 HD
ATOM      3  H12 UNL     1     -33.179   5.020  21.750  1.00  0.00     0.158 HD
HETATM    4  C1  UNL     1     -31.899   3.819  22.732  1.00  0.00     0.184 C
HETATM    5  N2  UNL     1     -30.806   4.691  22.525  1.00  0.00    -0.064 NA
HETATM    6  N3  UNL     1     -31.721   2.611  23.441  1.00  0.00    -0.354 N
HETATM    7  C2  UNL     1     -31.408   2.606  24.828  1.00  0.00     0.127 C
HETATM    8  C3  UNL     1     -29.922   2.556  25.119  1.00  0.00     0.039 C
HETATM    9  C4  UNL     1     -29.736   2.695  26.591  1.00  0.00     0.115 C
HETATM   10  N4  UNL     1     -29.009   1.648  27.224  1.00  0.00    -0.420 N
ATOM     11  H4  UNL     1     -28.124   1.818  27.702  1.00  0.00     0.153 HD
HETATM   12  C5  UNL     1     -29.594   0.345  27.151  1.00  0.00     0.133 C
HETATM   13  C6  UNL     1     -28.463  -0.664  27.295  1.00  0.00     0.145 C
HETATM   14  N5  UNL     1     -27.923  -1.042  26.005  1.00  0.00    -0.347 N
HETATM   15  C7  UNL     1     -26.515  -0.999  25.846  1.00  0.00     0.220 C
HETATM   16  O1  UNL     1     -26.017  -1.322  24.737  1.00  0.00    -0.273 OA
HETATM   17  C11 UNL     1     -28.780  -1.443  24.932  1.00  0.00     0.153 C
HETATM   18  C12 UNL     1     -28.292  -2.682  24.250  1.00  0.00    -0.011 C
HETATM   19  C13 UNL     1     -28.801  -3.081  23.106  1.00  0.00    -0.029 C
HETATM   20  C14 UNL     1     -29.894  -2.351  22.394  1.00  0.00     0.028 C
HETATM   21  C15 UNL     1     -29.458  -1.851  21.044  1.00  0.00     0.031 C
HETATM   22  C16 UNL     1     -29.514  -0.339  20.950  1.00  0.00     0.232 C
HETATM   23  N7  UNL     1     -30.866   0.143  20.838  1.00  0.00    -0.074 N
ATOM     24  H71 UNL     1     -31.524  -0.541  21.211  1.00  0.00     0.277 HD
ATOM     25  H72 UNL     1     -31.165   0.153  19.863  1.00  0.00     0.277 HD
HETATM   26  C17 UNL     1     -31.074   1.424  21.442  1.00  0.00     0.252 C
HETATM   27  C18 UNL     1     -31.865   1.367  22.725  1.00  0.00     0.152 C
ENDROOT
BRANCH  15  28
HETATM   28  C8  UNL     1     -25.593  -0.590  26.932  1.00  0.00     0.112 C
BRANCH  28  29
HETATM   29  C9  UNL     1     -25.496   0.910  27.053  1.00  0.00     0.109 C
BRANCH  29  30
HETATM   30  C10 UNL     1     -25.290   1.292  28.466  1.00  0.00     0.231 C
HETATM   31  N6  UNL     1     -24.181   2.081  28.860  1.00  0.00    -0.062 NA
HETATM   32  O2  UNL     1     -26.109   0.915  29.335  1.00  0.00    -0.277 OA
ENDBRANCH  29  30
ENDBRANCH  28  29
ENDBRANCH  15  28
TORSDOF 3
ENDMDL