MODEL 3
REMARK VINA RESULT: -6.950603255      2.176      2.812
REMARK  6 active torsions:
REMARK  status: ('A' for Active; 'I' for Inactive)
REMARK    1  A    between atoms: C2_2  and  C5_5
REMARK    2  A    between atoms: C5_5  and  N1_6
REMARK    3  A    between atoms: C5_5  and  C6_10
REMARK       I    between atoms: C6_10  and  N2_12
REMARK    4  A    between atoms: C10_16  and  C11_17
REMARK       I    between atoms: C11_17  and  N3_19
REMARK    5  A    between atoms: N3_19  and  N4_21
REMARK       I    between atoms: N4_21  and  C12_23
REMARK       I    between atoms: N6_25  and  C13_27
REMARK    6  A    between atoms: C13_27  and  C14_29
ROOT
HETATM    1  C11 UNL     1     -30.871   2.635  23.066  1.00  0.00     0.259 C
HETATM    2  O2  UNL     1     -30.170   3.098  24.011  1.00  0.00    -0.269 OA
HETATM    3  N3  UNL     1     -30.232   1.835  22.098  1.00  0.00    -0.266 N
ATOM      4  H3  UNL     1     -30.773   1.449  21.325  1.00  0.00     0.190 HD
ENDROOT
BRANCH   1   5
HETATM    5  C10 UNL     1     -32.324   2.983  23.058  1.00  0.00     0.181 C
HETATM    6  N2  UNL     1     -32.590   4.381  23.061  1.00  0.00    -0.337 N
HETATM    7  C6  UNL     1     -32.896   5.294  24.084  1.00  0.00     0.252 C
HETATM    8  C7  UNL     1     -32.445   4.757  21.614  1.00  0.00     0.127 C
HETATM    9  O1  UNL     1     -33.012   6.510  23.700  1.00  0.00    -0.271 OA
HETATM   10  C8  UNL     1     -33.325   3.726  20.973  1.00  0.00     0.022 C
HETATM   11  C9  UNL     1     -32.960   2.478  21.738  1.00  0.00     0.037 C
BRANCH   7  12
HETATM   12  C5  UNL     1     -33.090   5.014  25.480  1.00  0.00     0.282 C
BRANCH  12  13
HETATM   13  C2  UNL     1     -34.371   4.340  25.885  1.00  0.00    -0.014 C
HETATM   14  C1  UNL     1     -34.282   2.884  26.165  1.00  0.00     0.017 C
HETATM   15  C3  UNL     1     -34.765   4.963  27.275  1.00  0.00     0.017 C
HETATM   16  C4  UNL     1     -35.543   4.653  25.021  1.00  0.00     0.017 C
ENDBRANCH  12  13
BRANCH  12  17
HETATM   17  N1  UNL     1     -32.025   4.279  26.138  1.00  0.00    -0.066 N
ATOM     18  H13 UNL     1     -31.242   4.867  26.427  1.00  0.00     0.275 HD
ATOM     19  H12 UNL     1     -32.276   3.944  27.068  1.00  0.00     0.275 HD
ATOM     20  H11 UNL     1     -31.758   3.534  25.495  1.00  0.00     0.275 HD
ENDBRANCH  12  17
ENDBRANCH   7  12
ENDBRANCH   1   5
BRANCH   3  21
HETATM   21  N4  UNL     1     -28.869   1.565  22.188  1.00  0.00    -0.271 N
HETATM   22  C12 UNL     1     -28.324   0.334  22.670  1.00  0.00     0.209 C
HETATM   23  N5  UNL     1     -28.839  -0.893  22.174  1.00  0.00    -0.062 NA
HETATM   24  N6  UNL     1     -27.379   0.305  23.536  1.00  0.00    -0.298 N
HETATM   25  C13 UNL     1     -26.844  -0.909  24.007  1.00  0.00     0.255 C
ATOM     26  H6  UNL     1     -27.006   1.184  23.894  1.00  0.00     0.171 HD
HETATM   27  O3  UNL     1     -27.211  -2.019  23.548  1.00  0.00    -0.271 OA
ATOM     28  H4  UNL     1     -28.218   2.292  21.891  1.00  0.00     0.189 HD
BRANCH  25  29
HETATM   29  C14 UNL     1     -25.807  -0.826  25.086  1.00  0.00     0.277 C
HETATM   30  C15 UNL     1     -25.959  -2.028  25.973  1.00  0.00     0.044 C
HETATM   31  C16 UNL     1     -25.989  -1.489  27.380  1.00  0.00     0.030 C
HETATM   32  C17 UNL     1     -25.516  -0.076  27.235  1.00  0.00     0.233 C
HETATM   33  N7  UNL     1     -26.037   0.325  25.936  1.00  0.00    -0.062 N
ATOM     34  H72 UNL     1     -25.641   1.194  25.579  1.00  0.00     0.278 HD
ATOM     35  H71 UNL     1     -27.006   0.644  25.955  1.00  0.00     0.278 HD
ENDBRANCH  25  29
ENDBRANCH   3  21
TORSDOF 6
ENDMDL