MODEL 1
REMARK VINA RESULT: -5.915074708      0.000      0.000
REMARK  2 active torsions:
REMARK  status: ('A' for Active; 'I' for Inactive)
REMARK    1  A    between atoms: C2_2  and  C3_3
REMARK    2  A    between atoms: C3_3  and  N1_4
REMARK       I    between atoms: N3_12  and  C9_13
REMARK       I    between atoms: C9_13  and  N4_15
ROOT
HETATM    1  N1  UNL     1     -28.028   0.999  27.088  1.00  0.00    -0.387 N
HETATM    2  C4  UNL     1     -29.388   1.244  27.012  1.00  0.00     0.141 C
HETATM    3  C5  UNL     1     -29.738   2.575  26.318  1.00  0.00     0.133 C
HETATM    4  N2  UNL     1     -29.531   2.369  24.920  1.00  0.00    -0.420 N
ATOM      5  H2  UNL     1     -28.923   1.633  24.561  1.00  0.00     0.153 HD
HETATM    6  C6  UNL     1     -30.239   3.269  24.057  1.00  0.00     0.115 C
HETATM    7  C7  UNL     1     -31.720   3.141  24.090  1.00  0.00     0.039 C
HETATM    8  C8  UNL     1     -32.282   1.990  23.342  1.00  0.00     0.129 C
HETATM    9  N3  UNL     1     -31.888   1.989  21.957  1.00  0.00    -0.334 N
HETATM   10  C9  UNL     1     -32.381   2.856  20.962  1.00  0.00     0.317 C
HETATM   11  O1  UNL     1     -31.916   2.767  19.797  1.00  0.00    -0.247 OA
HETATM   12  N4  UNL     1     -33.375   3.819  21.215  1.00  0.00    -0.347 N
ATOM     13  H4  UNL     1     -33.766   3.901  22.153  1.00  0.00     0.163 HD
HETATM   14  C10 UNL     1     -33.861   4.714  20.144  1.00  0.00     0.151 C
HETATM   15  C11 UNL     1     -30.903   0.958  21.572  1.00  0.00     0.129 C
HETATM   16  C12 UNL     1     -31.620  -0.377  21.377  1.00  0.00     0.047 C
HETATM   17  C13 UNL     1     -30.555  -1.425  21.149  1.00  0.00     0.234 C
HETATM   18  N5  UNL     1     -30.975  -2.674  21.778  1.00  0.00    -0.073 N
ATOM     19  H51 UNL     1     -31.795  -3.077  21.325  1.00  0.00     0.277 HD
ATOM     20  H52 UNL     1     -31.378  -2.524  22.703  1.00  0.00     0.277 HD
HETATM   21  C14 UNL     1     -29.862  -3.596  21.811  1.00  0.00     0.259 C
HETATM   22  C15 UNL     1     -29.492  -3.829  23.258  1.00  0.00     0.259 C
HETATM   23  N6  UNL     1     -28.074  -3.595  23.455  1.00  0.00    -0.072 N
ATOM     24  H61 UNL     1     -27.834  -2.612  23.332  1.00  0.00     0.277 HD
ATOM     25  H62 UNL     1     -27.519  -3.986  22.694  1.00  0.00     0.277 HD
HETATM   26  C16 UNL     1     -27.642  -4.094  24.741  1.00  0.00     0.259 C
HETATM   27  C17 UNL     1     -27.326  -2.933  25.664  1.00  0.00     0.259 C
HETATM   28  N7  UNL     1     -28.593  -2.386  26.120  1.00  0.00    -0.072 N
ATOM     29  H71 UNL     1     -29.240  -3.107  26.442  1.00  0.00     0.277 HD
ATOM     30  H72 UNL     1     -29.161  -2.021  25.356  1.00  0.00     0.277 HD
HETATM   31  C18 UNL     1     -28.317  -1.378  27.147  1.00  0.00     0.252 C
HETATM   32  C19 UNL     1     -27.525  -0.224  26.565  1.00  0.00     0.149 C
ENDROOT
BRANCH   1  33
HETATM   33  C3  UNL     1     -27.127   1.908  27.616  1.00  0.00     0.084 C
BRANCH  33  34
HETATM   34  C2  UNL     1     -25.739   1.440  27.634  1.00  0.00     0.007 C
HETATM   35  C1  UNL     1     -24.776   1.844  28.408  1.00  0.00     0.012 C
ENDBRANCH  33  34
ENDBRANCH   1  33
TORSDOF 2
ENDMDL