MODEL 1
REMARK VINA RESULT: -7.535829812      0.000      0.000
REMARK  4 active torsions:
REMARK  status: ('A' for Active; 'I' for Inactive)
REMARK    1  A    between atoms: C6_10  and  N3_11
REMARK       I    between atoms: N3_11  and  C7_13
REMARK    2  A    between atoms: C7_13  and  C8_15
REMARK    3  A    between atoms: C8_15  and  C9_16
REMARK    4  A    between atoms: C8_15  and  N4_18
ROOT
HETATM    1  C1  UNL     1     -27.838  -1.452  27.443  1.00  0.00     0.018 C
HETATM    2  C2  UNL     1     -27.750  -0.256  27.381  1.00  0.00    -0.072 C
HETATM    3  C3  UNL     1     -27.647   1.173  27.333  1.00  0.00     0.086 A
HETATM    4  C4  UNL     1     -26.522   1.883  27.682  1.00  0.00     0.044 A
HETATM    5  C5  UNL     1     -25.216   1.313  28.168  1.00  0.00     0.071 C
HETATM    6  N1  UNL     1     -26.826   3.179  27.501  1.00  0.00    -0.302 N
ATOM      7  H1  UNL     1     -26.197   3.962  27.674  1.00  0.00     0.186 HD
HETATM    8  N2  UNL     1     -28.085   3.280  27.058  1.00  0.00    -0.284 N
ATOM      9  H2  UNL     1     -28.555   4.161  26.844  1.00  0.00     0.188 HD
HETATM   10  C6  UNL     1     -28.644   2.074  26.934  1.00  0.00     0.143 A
ENDROOT
BRANCH  10  11
HETATM   11  N3  UNL     1     -29.793   1.677  26.559  1.00  0.00    -0.309 N
HETATM   12  C7  UNL     1     -30.175   1.243  25.277  1.00  0.00     0.257 C
HETATM   13  O1  UNL     1     -29.302   0.833  24.483  1.00  0.00    -0.271 OA
ATOM     14  H3  UNL     1     -30.523   1.673  27.271  1.00  0.00     0.170 HD
BRANCH  12  15
HETATM   15  C8  UNL     1     -31.586   1.261  24.848  1.00  0.00     0.314 C
BRANCH  15  16
HETATM   16  C9  UNL     1     -32.528   1.285  26.025  1.00  0.00     0.041 C
HETATM   17  C10 UNL     1     -32.772  -0.126  26.577  1.00  0.00     0.007 C
ENDBRANCH  15  16
BRANCH  15  18
HETATM   18  N4  UNL     1     -31.849   2.291  23.865  1.00  0.00     0.105 N
HETATM   19  C11 UNL     1     -32.960   3.110  24.144  1.00  0.00     0.292 C
HETATM   20  C12 UNL     1     -32.534   4.332  24.929  1.00  0.00     0.144 C
HETATM   21  N5  UNL     1     -32.674   5.555  24.193  1.00  0.00    -0.419 N
HETATM   22  C13 UNL     1     -33.976   6.118  24.182  1.00  0.00     0.115 C
ATOM     23  H5  UNL     1     -31.889   5.992  23.710  1.00  0.00     0.153 HD
HETATM   24  C14 UNL     1     -34.051   7.058  22.969  1.00  0.00     0.046 C
HETATM   25  C15 UNL     1     -34.777   6.393  21.819  1.00  0.00     0.234 C
HETATM   26  N6  UNL     1     -33.931   5.487  21.071  1.00  0.00    -0.073 N
HETATM   27  C16 UNL     1     -34.738   4.411  20.516  1.00  0.00     0.259 C
ATOM     28  H62 UNL     1     -33.389   5.970  20.355  1.00  0.00     0.277 HD
ATOM     29  H61 UNL     1     -33.155   5.136  21.631  1.00  0.00     0.277 HD
HETATM   30  C17 UNL     1     -33.932   3.258  20.030  1.00  0.00     0.259 C
HETATM   31  N7  UNL     1     -32.683   3.051  20.717  1.00  0.00    -0.072 N
HETATM   32  C18 UNL     1     -32.853   1.906  21.602  1.00  0.00     0.262 C
ATOM     33  H72 UNL     1     -31.892   2.947  20.081  1.00  0.00     0.277 HD
ATOM     34  H71 UNL     1     -32.355   3.885  21.204  1.00  0.00     0.277 HD
HETATM   35  C19 UNL     1     -31.758   1.715  22.574  1.00  0.00     0.301 C
ENDBRANCH  15  18
ENDBRANCH  12  15
ENDBRANCH  10  11
TORSDOF 4
ENDMDL