MODEL 3
REMARK VINA RESULT: -6.667165873      1.568      2.571
REMARK  4 active torsions:
REMARK  status: ('A' for Active; 'I' for Inactive)
REMARK    1  A    between atoms: N1_1  and  C1_5
REMARK    2  A    between atoms: C1_5  and  N2_6
REMARK    3  A    between atoms: C1_5  and  C12_26
REMARK       I    between atoms: N2_6  and  C2_8
REMARK       I    between atoms: C2_8  and  N3_10
REMARK       I    between atoms: C12_26  and  N6_28
REMARK    4  A    between atoms: C16_32  and  C17_33
ROOT
HETATM    1  N2  UNL     1     -30.948   2.251  25.449  1.00  0.00    -0.307 N
ATOM      2  H2  UNL     1     -31.285   1.399  25.003  1.00  0.00     0.166 HD
HETATM    3  C2  UNL     1     -29.674   2.235  26.073  1.00  0.00     0.320 C
HETATM    4  O1  UNL     1     -29.280   3.295  26.617  1.00  0.00    -0.247 OA
HETATM    5  N3  UNL     1     -28.825   1.102  26.119  1.00  0.00    -0.334 N
HETATM    6  C3  UNL     1     -27.556   1.151  26.761  1.00  0.00     0.132 C
HETATM    7  C4  UNL     1     -27.039  -0.168  27.273  1.00  0.00     0.089 C
HETATM    8  C5  UNL     1     -27.318  -1.324  26.384  1.00  0.00     0.289 C
HETATM    9  C6  UNL     1     -27.971  -0.869  25.103  1.00  0.00     0.089 C
HETATM   10  C7  UNL     1     -29.261  -0.154  25.492  1.00  0.00     0.132 C
HETATM   11  N4  UNL     1     -26.025  -1.906  25.988  1.00  0.00    -0.040 N
ATOM     12  H41 UNL     1     -25.426  -1.205  25.553  1.00  0.00     0.280 HD
ATOM     13  H42 UNL     1     -26.135  -2.541  25.197  1.00  0.00     0.280 HD
HETATM   14  C8  UNL     1     -25.358  -2.549  27.073  1.00  0.00     0.235 C
HETATM   15  C9  UNL     1     -25.825  -3.974  27.286  1.00  0.00     0.029 C
HETATM   16  C10 UNL     1     -26.849  -4.385  26.248  1.00  0.00     0.029 C
HETATM   17  C11 UNL     1     -28.107  -3.588  26.297  1.00  0.00     0.235 C
HETATM   18  N5  UNL     1     -28.040  -2.376  27.045  1.00  0.00    -0.040 N
ATOM     19  H51 UNL     1     -28.975  -2.062  27.305  1.00  0.00     0.280 HD
ATOM     20  H52 UNL     1     -27.654  -2.547  27.974  1.00  0.00     0.280 HD
ENDROOT
BRANCH   1  21
HETATM   21  C1  UNL     1     -31.786   3.429  25.422  1.00  0.00     0.378 C
BRANCH  21  22
HETATM   22  N1  UNL     1     -31.978   4.042  26.697  1.00  0.00    -0.049 N
ATOM     23  H13 UNL     1     -32.115   3.331  27.417  1.00  0.00     0.277 HD
ATOM     24  H12 UNL     1     -31.108   4.458  27.028  1.00  0.00     0.277 HD
ATOM     25  H11 UNL     1     -32.734   4.726  26.724  1.00  0.00     0.277 HD
ENDBRANCH  21  22
BRANCH  21  26
HETATM   26  C12 UNL     1     -33.097   3.139  24.763  1.00  0.00     0.271 C
HETATM   27  O2  UNL     1     -33.668   2.061  25.037  1.00  0.00    -0.269 OA
HETATM   28  N6  UNL     1     -33.696   4.036  23.854  1.00  0.00    -0.334 N
HETATM   29  C13 UNL     1     -34.950   3.853  23.167  1.00  0.00     0.127 C
HETATM   30  C16 UNL     1     -33.167   5.311  23.434  1.00  0.00     0.188 C
HETATM   31  C14 UNL     1     -34.745   4.550  21.848  1.00  0.00     0.022 C
HETATM   32  C15 UNL     1     -33.434   5.278  21.932  1.00  0.00     0.038 C
BRANCH  30  33
HETATM   33  C17 UNL     1     -33.849   6.449  24.072  1.00  0.00     0.196 C
HETATM   34  O3  UNL     1     -33.730   7.577  23.552  1.00  0.00    -0.646 OA
HETATM   35  O4  UNL     1     -34.600   6.295  25.207  1.00  0.00    -0.646 OA
ENDBRANCH  30  33
ENDBRANCH  21  26
ENDBRANCH   1  21
TORSDOF 4
ENDMDL