MODEL 1
REMARK VINA RESULT: -7.370113046      0.000      0.000
REMARK  6 active torsions:
REMARK  status: ('A' for Active; 'I' for Inactive)
REMARK    1  A    between atoms: N2_5  and  C4_6
REMARK    2  A    between atoms: C4_6  and  N3_8
REMARK    3  A    between atoms: N3_8  and  C5_10
REMARK    4  A    between atoms: C5_10  and  C6_11
REMARK    5  A    between atoms: C6_11  and  N4_12
REMARK       I    between atoms: N4_12  and  C7_14
REMARK       I    between atoms: C7_14  and  N5_16
REMARK    6  A    between atoms: N5_16  and  C8_18
ROOT
HETATM    1  N4  UNL     1     -31.131   2.274  25.397  1.00  0.00    -0.342 N
ATOM      2  H4  UNL     1     -31.796   1.567  25.084  1.00  0.00     0.164 HD
HETATM    3  C7  UNL     1     -29.915   1.854  25.977  1.00  0.00     0.317 C
HETATM    4  O1  UNL     1     -29.109   2.756  26.357  1.00  0.00    -0.247 OA
HETATM    5  N5  UNL     1     -29.603   0.469  26.132  1.00  0.00    -0.315 N
ATOM      6  H5  UNL     1     -30.279  -0.226  25.813  1.00  0.00     0.166 HD
ENDROOT
BRANCH   1   7
HETATM    7  C6  UNL     1     -31.471   3.666  25.231  1.00  0.00     0.144 C
BRANCH   7   8
HETATM    8  C5  UNL     1     -32.476   4.056  26.318  1.00  0.00     0.141 C
BRANCH   8   9
HETATM    9  N3  UNL     1     -33.250   5.154  25.816  1.00  0.00    -0.366 N
ATOM     10  H3  UNL     1     -32.965   6.086  26.118  1.00  0.00     0.161 HD
BRANCH   9  11
HETATM   11  C4  UNL     1     -34.352   5.087  24.959  1.00  0.00     0.169 C
HETATM   12  S1  UNL     1     -35.734   4.333  25.549  1.00  0.00    -0.041 SA
BRANCH  11  13
HETATM   13  N2  UNL     1     -34.405   5.593  23.654  1.00  0.00    -0.355 N
HETATM   14  C3  UNL     1     -35.210   5.126  22.555  1.00  0.00     0.144 C
HETATM   15  C2  UNL     1     -34.722   5.880  21.278  1.00  0.00     0.136 C
HETATM   16  N1  UNL     1     -35.035   7.248  21.513  1.00  0.00    -0.414 N
HETATM   17  C1  UNL     1     -35.174   8.064  20.349  1.00  0.00     0.143 C
HETATM   18  C17 UNL     1     -34.297   7.818  22.580  1.00  0.00     0.136 C
HETATM   19  C16 UNL     1     -33.535   6.751  23.326  1.00  0.00     0.144 C
ENDBRANCH  11  13
ENDBRANCH   9  11
ENDBRANCH   8   9
ENDBRANCH   7   8
ENDBRANCH   1   7
BRANCH   5  20
HETATM   20  C8  UNL     1     -28.363   0.017  26.725  1.00  0.00     0.287 C
HETATM   21  C9  UNL     1     -28.320   0.156  28.198  1.00  0.00     0.057 C
HETATM   22  C10 UNL     1     -27.541   1.331  28.714  1.00  0.00     0.044 C
HETATM   23  C11 UNL     1     -26.271   1.588  27.941  1.00  0.00     0.149 C
HETATM   24  C12 UNL     1     -25.081   1.709  28.827  1.00  0.00     0.042 C
HETATM   25  N6  UNL     1     -26.366   2.883  27.305  1.00  0.00    -0.065 N
HETATM   26  C15 UNL     1     -26.101   0.558  26.842  1.00  0.00     0.273 C
HETATM   27  C13 UNL     1     -24.486   3.091  28.598  1.00  0.00     0.030 C
HETATM   28  C14 UNL     1     -25.071   3.479  27.256  1.00  0.00     0.233 C
ATOM     29  H62 UNL     1     -26.802   2.831  26.384  1.00  0.00     0.278 HD
ATOM     30  H61 UNL     1     -27.053   3.487  27.755  1.00  0.00     0.278 HD
HETATM   31  N7  UNL     1     -27.285   0.663  26.009  1.00  0.00    -0.052 N
ATOM     32  H72 UNL     1     -27.148   0.290  25.070  1.00  0.00     0.279 HD
ATOM     33  H71 UNL     1     -27.502   1.621  25.738  1.00  0.00     0.279 HD
ENDBRANCH   5  20
TORSDOF 6
ENDMDL