MODEL 5
REMARK VINA RESULT: -6.804115794      1.063      1.160
REMARK  4 active torsions:
REMARK  status: ('A' for Active; 'I' for Inactive)
REMARK    1  A    between atoms: C2_2  and  N1_4
REMARK       I    between atoms: N1_4  and  C4_6
REMARK       I    between atoms: C4_6  and  N2_8
REMARK    2  A    between atoms: N2_8  and  C5_10
REMARK    3  A    between atoms: C12_17  and  C13_18
REMARK       I    between atoms: C13_18  and  N3_20
REMARK    4  A    between atoms: N3_20  and  N4_22
ROOT
HETATM    1  C5  UNL     1     -31.484   3.122  24.300  1.00  0.00     0.112 C
HETATM    2  C6  UNL     1     -30.577   4.007  23.498  1.00  0.00     0.049 C
HETATM    3  C7  UNL     1     -31.193   3.175  25.775  1.00  0.00     0.041 C
HETATM    4  C8  UNL     1     -30.410   2.030  26.322  1.00  0.00     0.003 C
HETATM    5  C9  UNL     1     -28.982   2.390  26.647  1.00  0.00     0.000 C
HETATM    6  C10 UNL     1     -28.370   1.275  27.466  1.00  0.00     0.002 C
HETATM    7  C11 UNL     1     -28.452  -0.038  26.766  1.00  0.00     0.035 C
HETATM    8  C12 UNL     1     -27.750  -0.126  25.448  1.00  0.00     0.178 C
HETATM    9  N5  UNL     1     -28.598  -0.813  24.452  1.00  0.00    -0.346 N
ATOM     10  H5  UNL     1     -29.044  -1.687  24.730  1.00  0.00     0.163 HD
HETATM   11  C14 UNL     1     -28.831  -0.344  23.146  1.00  0.00     0.236 C
HETATM   12  O3  UNL     1     -28.606  -1.161  22.186  1.00  0.00    -0.272 OA
HETATM   13  C15 UNL     1     -29.326   1.046  22.831  1.00  0.00     0.228 C
HETATM   14  N6  UNL     1     -30.777   1.078  22.847  1.00  0.00    -0.346 N
HETATM   15  C16 UNL     1     -31.422   0.340  21.769  1.00  0.00     0.153 C
HETATM   16  C17 UNL     1     -31.588   1.734  23.792  1.00  0.00     0.247 C
HETATM   17  O4  UNL     1     -32.563   1.074  24.306  1.00  0.00    -0.271 OA
ENDROOT
BRANCH   1  18
HETATM   18  N2  UNL     1     -32.838   3.695  24.152  1.00  0.00    -0.325 N
HETATM   19  C4  UNL     1     -33.355   4.141  22.916  1.00  0.00     0.317 C
HETATM   20  N1  UNL     1     -34.658   4.681  22.818  1.00  0.00    -0.339 N
HETATM   21  O1  UNL     1     -32.641   4.052  21.893  1.00  0.00    -0.247 OA
ATOM     22  H1  UNL     1     -35.222   4.743  23.666  1.00  0.00     0.164 HD
ATOM     23  H2  UNL     1     -33.426   3.773  24.982  1.00  0.00     0.165 HD
BRANCH  20  24
HETATM   24  C2  UNL     1     -35.229   5.151  21.573  1.00  0.00     0.078 C
HETATM   25  C1  UNL     1     -34.975   6.636  21.447  1.00  0.00     0.032 C
HETATM   26  C3  UNL     1     -36.684   4.806  21.443  1.00  0.00     0.032 C
ENDBRANCH  20  24
ENDBRANCH   1  18
BRANCH   8  27
HETATM   27  C13 UNL     1     -26.556  -1.014  25.622  1.00  0.00     0.258 C
HETATM   28  O2  UNL     1     -26.350  -2.010  24.877  1.00  0.00    -0.269 OA
HETATM   29  N3  UNL     1     -25.599  -0.776  26.633  1.00  0.00    -0.275 N
ATOM     30  H3  UNL     1     -25.737   0.024  27.251  1.00  0.00     0.189 HD
BRANCH  29  31
HETATM   31  N4  UNL     1     -24.474  -1.580  26.829  1.00  0.00    -0.343 N
ATOM     32  H42 UNL     1     -23.726  -1.514  26.139  1.00  0.00     0.176 HD
ATOM     33  H41 UNL     1     -24.372  -2.218  27.619  1.00  0.00     0.176 HD
ENDBRANCH  29  31
ENDBRANCH   8  27
TORSDOF 4
ENDMDL