MODEL 3
REMARK VINA RESULT: -5.710612804      2.157      4.395
REMARK  7 active torsions:
REMARK  status: ('A' for Active; 'I' for Inactive)
REMARK    1  A    between atoms: C2_2  and  C3_3
REMARK    2  A    between atoms: C9_9  and  O1_10
REMARK    3  A    between atoms: C10_12  and  O2_13
REMARK    4  A    between atoms: C11_15  and  C12_16
REMARK    5  A    between atoms: C15_20  and  C17_22
REMARK    6  A    between atoms: C17_22  and  C18_23
REMARK    7  A    between atoms: C18_23  and  C19_24
ROOT
HETATM    1  C3  UNL     1     -21.355 -33.563  -3.516  1.00  0.00    -0.019 C
HETATM    2  C4  UNL     1     -21.718 -34.219  -2.186  1.00  0.00     0.020 C
HETATM    3  C5  UNL     1     -21.508 -32.052  -3.308  1.00  0.00     0.023 C
HETATM    4  C6  UNL     1     -22.535 -31.602  -4.336  1.00  0.00     0.023 C
HETATM    5  C7  UNL     1     -22.309 -30.230  -4.824  1.00  0.00    -0.054 C
HETATM    6  C8  UNL     1     -23.138 -29.220  -4.607  1.00  0.00     0.017 C
HETATM    7  C9  UNL     1     -21.058 -30.054  -5.595  1.00  0.00     0.176 C
HETATM    8  C10 UNL     1     -20.841 -31.074  -6.637  1.00  0.00     0.162 C
HETATM    9  C11 UNL     1     -21.491 -32.406  -6.503  1.00  0.00     0.092 C
HETATM   10  C14 UNL     1     -22.487 -32.622  -5.434  1.00  0.00     0.017 C
HETATM   11  C15 UNL     1     -22.299 -33.895  -4.611  1.00  0.00    -0.028 C
HETATM   12  C16 UNL     1     -23.666 -34.144  -3.946  1.00  0.00     0.016 C
ENDROOT
BRANCH  11  13
HETATM   13  C17 UNL     1     -21.993 -35.078  -5.428  1.00  0.00     0.021 C
BRANCH  13  14
HETATM   14  C18 UNL     1     -23.098 -36.108  -5.561  1.00  0.00     0.114 C
BRANCH  14  15
HETATM   15  C19 UNL     1     -22.459 -37.422  -5.174  1.00  0.00     0.172 C
HETATM   16  O4  UNL     1     -22.359 -37.661  -3.939  1.00  0.00    -0.648 OA
HETATM   17  O5  UNL     1     -21.996 -38.346  -6.073  1.00  0.00    -0.648 OA
ENDBRANCH  14  15
ENDBRANCH  13  14
ENDBRANCH  11  13
BRANCH   1  18
HETATM   18  C2  UNL     1     -19.943 -33.843  -3.775  1.00  0.00    -0.027 C
HETATM   19  C1  UNL     1     -19.099 -32.807  -3.783  1.00  0.00     0.008 C
ENDBRANCH   1  18
BRANCH   9  20
HETATM   20  C12 UNL     1     -22.102 -32.744  -7.812  1.00  0.00     0.130 C
HETATM   21  C13 UNL     1     -23.576 -32.749  -7.961  1.00  0.00     0.091 C
HETATM   22  O3  UNL     1     -21.419 -33.016  -8.761  1.00  0.00    -0.298 OA
ENDBRANCH   9  20
BRANCH   8  23
HETATM   23  O2  UNL     1     -19.430 -31.191  -6.781  1.00  0.00    -0.392 OA
ATOM     24  H2  UNL     1     -19.290 -31.850  -7.452  1.00  0.00     0.210 HD
ENDBRANCH   8  23
BRANCH   7  25
HETATM   25  O1  UNL     1     -21.046 -28.752  -6.096  1.00  0.00    -0.389 OA
ATOM     26  H1  UNL     1     -20.352 -28.696  -6.742  1.00  0.00     0.210 HD
ENDBRANCH   7  25
TORSDOF 7
ENDMDL