MODEL 3
REMARK VINA RESULT: -8.291775805      1.672      5.482
REMARK  8 active torsions:
REMARK  status: ('A' for Active; 'I' for Inactive)
REMARK    1  A    between atoms: C2_2  and  N1_3
REMARK    2  A    between atoms: N1_3  and  C3_5
REMARK    3  A    between atoms: C4_8  and  N3_9
REMARK    4  A    between atoms: N3_9  and  C5_11
REMARK    5  A    between atoms: C5_11  and  C6_12
REMARK    6  A    between atoms: C9_17  and  N5_18
REMARK    7  A    between atoms: N5_18  and  C10_20
REMARK    8  A    between atoms: C12_22  and  C13_23
ROOT
HETATM    1  C3  UNL     1     -22.595 -31.250  -4.058  1.00  0.00     0.707 A
HETATM    2  N2  UNL     1     -22.965 -32.256  -4.879  1.00  0.00    -0.022 N
ATOM      3  H2  UNL     1     -23.460 -32.033  -5.743  1.00  0.00     0.203 HD
HETATM    4  C4  UNL     1     -22.702 -33.542  -4.592  1.00  0.00     0.707 A
HETATM    5  N4  UNL     1     -22.050 -33.794  -3.448  1.00  0.00    -0.021 N
ATOM      6  H4  UNL     1     -21.843 -34.765  -3.214  1.00  0.00     0.203 HD
HETATM    7  C9  UNL     1     -21.655 -32.834  -2.590  1.00  0.00     0.711 A
HETATM    8  N7  UNL     1     -21.943 -31.557  -2.922  1.00  0.00    -0.021 N
ATOM      9  H7  UNL     1     -21.659 -30.806  -2.295  1.00  0.00     0.203 HD
ENDROOT
BRANCH   7  10
HETATM   10  N5  UNL     1     -21.045 -33.190  -1.537  1.00  0.00    -0.189 N
ATOM     11  H5  UNL     1     -20.110 -32.804  -1.408  1.00  0.00     0.184 HD
BRANCH  10  12
HETATM   12  C10 UNL     1     -21.500 -34.043  -0.535  1.00  0.00     0.071 A
HETATM   13  C11 UNL     1     -21.703 -35.381  -0.771  1.00  0.00     0.041 A
HETATM   14  C12 UNL     1     -22.155 -36.246   0.213  1.00  0.00    -0.037 A
HETATM   15  C16 UNL     1     -22.402 -35.727   1.461  1.00  0.00     0.095 A
HETATM   16  N6  UNL     1     -22.202 -34.416   1.692  1.00  0.00    -0.367 N
HETATM   17  C17 UNL     1     -21.757 -33.561   0.725  1.00  0.00     0.032 A
ATOM     18  H6  UNL     1     -22.389 -34.047   2.624  1.00  0.00     0.165 HD
HETATM   19  C18 UNL     1     -21.568 -32.121   1.087  1.00  0.00     0.070 C
BRANCH  14  20
HETATM   20  C13 UNL     1     -22.371 -37.697  -0.060  1.00  0.00     0.012 C
HETATM   21  C14 UNL     1     -23.353 -38.249   0.955  1.00  0.00     0.015 C
HETATM   22  C15 UNL     1     -23.057 -37.789  -1.420  1.00  0.00     0.015 C
ENDBRANCH  14  20
ENDBRANCH  10  12
ENDBRANCH   7  10
BRANCH   4  23
HETATM   23  N3  UNL     1     -23.059 -34.497  -5.381  1.00  0.00    -0.225 N
ATOM     24  H3  UNL     1     -23.234 -34.319  -6.370  1.00  0.00     0.177 HD
BRANCH  23  25
HETATM   25  C5  UNL     1     -23.205 -35.826  -4.834  1.00  0.00     0.142 C
BRANCH  25  26
HETATM   26  C6  UNL     1     -22.454 -36.864  -5.608  1.00  0.00    -0.004 C
HETATM   27  C7  UNL     1     -22.780 -36.850  -7.079  1.00  0.00     0.011 C
HETATM   28  C8  UNL     1     -22.883 -38.225  -5.072  1.00  0.00     0.011 C
ENDBRANCH  25  26
ENDBRANCH  23  25
ENDBRANCH   4  23
BRANCH   1  29
HETATM   29  N1  UNL     1     -22.887 -30.044  -4.409  1.00  0.00    -0.225 N
ATOM     30  H1  UNL     1     -23.819 -29.689  -4.192  1.00  0.00     0.177 HD
BRANCH  29  31
HETATM   31  C2  UNL     1     -21.969 -29.174  -5.090  1.00  0.00     0.133 C
HETATM   32  C1  UNL     1     -21.940 -27.805  -4.429  1.00  0.00     0.027 C
ENDBRANCH  29  31
ENDBRANCH   1  29
TORSDOF 8
ENDMDL