MODEL 3
REMARK VINA RESULT: -7.180981772      4.945      9.007
REMARK  6 active torsions:
REMARK  status: ('A' for Active; 'I' for Inactive)
REMARK    1  A    between atoms: N2_11  and  C8_12
REMARK    2  A    between atoms: C8_12  and  C9_13
REMARK    3  A    between atoms: C9_13  and  O1_14
REMARK    4  A    between atoms: C9_13  and  C10_16
REMARK    5  A    between atoms: C10_16  and  N3_17
REMARK    6  A    between atoms: N3_17  and  C11_19
ROOT
HETATM    1  C9  UNL     1     -20.810 -31.535   0.479  1.00  0.00     0.163 C
ENDROOT
BRANCH   1   2
HETATM    2  C8  UNL     1     -20.693 -32.984   0.648  1.00  0.00     0.306 C
BRANCH   2   3
HETATM    3  N2  UNL     1     -21.928 -33.755   0.401  1.00  0.00     0.101 N
HETATM    4  C2  UNL     1     -22.044 -34.636   1.568  1.00  0.00     0.176 C
HETATM    5  C1  UNL     1     -20.767 -35.281   1.976  1.00  0.00     0.050 C
HETATM    6  C3  UNL     1     -22.440 -33.703   2.727  1.00  0.00     0.050 C
HETATM    7  C4  UNL     1     -23.158 -35.618   1.440  1.00  0.00     0.273 C
HETATM    8  N1  UNL     1     -22.751 -36.905   0.960  1.00  0.00    -0.073 N
HETATM    9  C5  UNL     1     -22.282 -36.917  -0.379  1.00  0.00     0.234 C
ATOM     10  H12 UNL     1     -22.054 -37.312   1.583  1.00  0.00     0.277 HD
ATOM     11  H11 UNL     1     -23.506 -37.581   1.076  1.00  0.00     0.277 HD
HETATM   12  C6  UNL     1     -22.564 -35.625  -1.121  1.00  0.00     0.057 C
HETATM   13  C7  UNL     1     -21.583 -34.571  -0.766  1.00  0.00     0.275 C
ENDBRANCH   2   3
ENDBRANCH   1   2
BRANCH   1  14
HETATM   14  O1  UNL     1     -21.140 -30.735   1.530  1.00  0.00    -0.392 OA
ATOM     15  H1  UNL     1     -20.467 -30.310   2.048  1.00  0.00     0.210 HD
ENDBRANCH   1  14
BRANCH   1  16
HETATM   16  C10 UNL     1     -21.924 -31.247  -0.575  1.00  0.00     0.148 C
BRANCH  16  17
HETATM   17  N3  UNL     1     -21.271 -30.637  -1.672  1.00  0.00    -0.410 N
ATOM     18  H3  UNL     1     -20.678 -29.819  -1.529  1.00  0.00     0.154 HD
BRANCH  17  19
HETATM   19  C11 UNL     1     -21.448 -31.172  -2.971  1.00  0.00     0.026 C
HETATM   20  C12 UNL     1     -21.443 -30.111  -4.055  1.00  0.00     0.035 C
HETATM   21  C13 UNL     1     -21.536 -30.727  -5.409  1.00  0.00    -0.012 C
HETATM   22  C14 UNL     1     -22.828 -31.518  -5.488  1.00  0.00     0.009 C
HETATM   23  C18 UNL     1     -20.393 -31.694  -5.655  1.00  0.00     0.009 C
HETATM   24  C15 UNL     1     -22.830 -32.596  -4.449  1.00  0.00    -0.012 C
HETATM   25  C16 UNL     1     -21.684 -33.554  -4.684  1.00  0.00     0.009 C
HETATM   26  C20 UNL     1     -22.714 -32.013  -3.079  1.00  0.00     0.035 C
HETATM   27  C17 UNL     1     -20.410 -32.763  -4.580  1.00  0.00    -0.012 C
HETATM   28  C19 UNL     1     -20.285 -32.110  -3.238  1.00  0.00     0.035 C
ENDBRANCH  17  19
ENDBRANCH  16  17
ENDBRANCH   1  16
TORSDOF 6
ENDMDL