MODEL 5
REMARK VINA RESULT: -8.255971154      3.958      7.329
REMARK  6 active torsions:
REMARK  status: ('A' for Active; 'I' for Inactive)
REMARK    1  A    between atoms: C2_2  and  O1_3
REMARK    2  A    between atoms: O1_3  and  C3_4
REMARK    3  A    between atoms: C3_4  and  C4_6
REMARK    4  A    between atoms: C7_11  and  C8_12
REMARK    5  A    between atoms: C8_12  and  C9_13
REMARK    6  A    between atoms: C12_18  and  O3_19
ROOT
HETATM    1  C9  UNL     1     -21.502 -34.217  -2.760  1.00  0.00     0.031 C
HETATM    2  C10 UNL     1     -21.847 -33.660  -3.986  1.00  0.00     0.101 C
HETATM    3  N2  UNL     1     -22.182 -32.401  -4.312  1.00  0.00    -0.361 N
ATOM      4  H2  UNL     1     -22.708 -32.292  -5.179  1.00  0.00     0.165 HD
HETATM    5  C11 UNL     1     -21.913 -31.259  -3.640  1.00  0.00     0.093 A
HETATM    6  C12 UNL     1     -21.873 -29.882  -3.751  1.00  0.00     0.099 A
HETATM    7  C14 UNL     1     -21.470 -29.815  -2.460  1.00  0.00     0.071 A
HETATM    8  C15 UNL     1     -21.479 -31.186  -2.249  1.00  0.00     0.067 A
HETATM    9  N3  UNL     1     -21.261 -32.174  -1.368  1.00  0.00    -0.321 N
ATOM     10  H3  UNL     1     -20.975 -31.889  -0.432  1.00  0.00     0.169 HD
HETATM   11  C16 UNL     1     -21.377 -33.521  -1.582  1.00  0.00     0.254 C
HETATM   12  O4  UNL     1     -21.363 -34.173  -0.509  1.00  0.00    -0.268 OA
ENDROOT
BRANCH   1  13
HETATM   13  C8  UNL     1     -21.242 -35.671  -2.693  1.00  0.00     0.103 C
BRANCH  13  14
HETATM   14  C7  UNL     1     -21.912 -36.457  -3.755  1.00  0.00     0.021 A
HETATM   15  N1  UNL     1     -21.793 -36.282  -5.079  1.00  0.00    -0.362 N
HETATM   16  C5  UNL     1     -22.551 -37.162  -5.763  1.00  0.00     0.022 A
ATOM     17  H1  UNL     1     -21.204 -35.572  -5.514  1.00  0.00     0.165 HD
HETATM   18  C4  UNL     1     -23.207 -37.964  -4.856  1.00  0.00     0.069 A
HETATM   19  C6  UNL     1     -22.703 -37.302  -7.249  1.00  0.00     0.069 C
HETATM   20  C17 UNL     1     -22.796 -37.509  -3.609  1.00  0.00    -0.021 A
HETATM   21  C18 UNL     1     -23.274 -38.108  -2.352  1.00  0.00     0.051 C
BRANCH  18  22
HETATM   22  C3  UNL     1     -24.148 -39.069  -5.120  1.00  0.00     0.295 C
HETATM   23  O2  UNL     1     -25.364 -38.844  -5.179  1.00  0.00    -0.259 OA
BRANCH  22  24
HETATM   24  O1  UNL     1     -23.694 -40.365  -5.304  1.00  0.00    -0.318 OA
BRANCH  24  25
HETATM   25  C2  UNL     1     -23.576 -40.942  -6.606  1.00  0.00     0.174 C
HETATM   26  C1  UNL     1     -22.135 -40.997  -7.044  1.00  0.00     0.034 C
ENDBRANCH  24  25
ENDBRANCH  22  24
ENDBRANCH  18  22
ENDBRANCH  13  14
ENDBRANCH   1  13
BRANCH   6  27
HETATM   27  O3  UNL     1     -22.155 -29.042  -4.808  1.00  0.00    -0.353 OA
HETATM   28  C13 UNL     1     -22.016 -27.640  -4.748  1.00  0.00     0.210 C
ENDBRANCH   6  27
TORSDOF 6
ENDMDL