MODEL 5
REMARK VINA RESULT: -7.925430271      1.398      1.916
REMARK  7 active torsions:
REMARK  status: ('A' for Active; 'I' for Inactive)
REMARK    1  A    between atoms: C2_2  and  C3_3
REMARK    2  A    between atoms: C3_3  and  C4_4
REMARK    3  A    between atoms: C6_6  and  C7_7
REMARK    4  A    between atoms: C7_7  and  N1_8
REMARK    5  A    between atoms: N1_8  and  C8_10
REMARK    6  A    between atoms: C8_10  and  N2_12
REMARK    7  A    between atoms: C10_17  and  C11_18
ROOT
HETATM    1  N1  UNL     1     -21.824 -35.934  -3.611  1.00  0.00    -0.363 N
ATOM      2  H1  UNL     1     -20.919 -35.547  -3.345  1.00  0.00     0.162 HD
ENDROOT
BRANCH   1   3
HETATM    3  C7  UNL     1     -22.368 -37.120  -2.900  1.00  0.00     0.166 C
BRANCH   3   4
HETATM    4  C6  UNL     1     -22.367 -36.646  -1.469  1.00  0.00     0.028 A
HETATM    5  C5  UNL     1     -22.018 -35.381  -1.144  1.00  0.00     0.023 A
HETATM    6  C4  UNL     1     -22.019 -34.925   0.162  1.00  0.00    -0.035 A
HETATM    7  C15 UNL     1     -22.409 -35.858   1.145  1.00  0.00     0.015 A
HETATM    8  N5  UNL     1     -22.756 -37.114   0.801  1.00  0.00    -0.327 N
HETATM    9  C16 UNL     1     -22.306 -35.512   2.609  1.00  0.00     0.068 C
HETATM   10  C14 UNL     1     -22.736 -37.514  -0.485  1.00  0.00     0.253 A
ATOM     11  H5  UNL     1     -23.038 -37.773   1.527  1.00  0.00     0.169 HD
HETATM   12  O2  UNL     1     -23.049 -38.727  -0.818  1.00  0.00    -0.268 OA
BRANCH   6  13
HETATM   13  C3  UNL     1     -21.672 -33.552   0.550  1.00  0.00     0.040 C
BRANCH  13  14
HETATM   14  C2  UNL     1     -21.300 -32.629  -0.532  1.00  0.00     0.000 C
HETATM   15  C1  UNL     1     -20.949 -31.233  -0.289  1.00  0.00     0.005 C
ENDBRANCH  13  14
ENDBRANCH   6  13
ENDBRANCH   3   4
ENDBRANCH   1   3
BRANCH   1  16
HETATM   16  C8  UNL     1     -22.563 -35.352  -4.652  1.00  0.00     0.174 C
HETATM   17  S1  UNL     1     -22.808 -36.067  -6.114  1.00  0.00    -0.041 SA
BRANCH  16  18
HETATM   18  N2  UNL     1     -23.246 -34.120  -4.343  1.00  0.00    -0.303 N
HETATM   19  C9  UNL     1     -22.737 -33.007  -4.712  1.00  0.00     0.208 A
HETATM   20  N3  UNL     1     -21.588 -32.889  -5.383  1.00  0.00    -0.308 N
HETATM   21  N4  UNL     1     -23.186 -31.683  -4.543  1.00  0.00    -0.228 N
HETATM   22  C10 UNL     1     -21.269 -31.673  -5.648  1.00  0.00     0.153 A
ATOM     23  H3  UNL     1     -21.018 -33.689  -5.660  1.00  0.00     0.170 HD
HETATM   24  O1  UNL     1     -22.293 -30.975  -5.101  1.00  0.00    -0.221 OA
ATOM     25  H4  UNL     1     -24.036 -31.366  -4.078  1.00  0.00     0.198 HD
ATOM     26  H2  UNL     1     -24.129 -34.137  -3.833  1.00  0.00     0.171 HD
BRANCH  22  27
HETATM   27  C11 UNL     1     -20.109 -31.081  -6.363  1.00  0.00     0.055 C
HETATM   28  C12 UNL     1     -20.125 -31.801  -7.723  1.00  0.00     0.018 C
HETATM   29  C13 UNL     1     -20.499 -29.623  -6.630  1.00  0.00     0.018 C
ENDBRANCH  22  27
ENDBRANCH  16  18
ENDBRANCH   1  16
TORSDOF 7
ENDMDL