MODEL 3
REMARK VINA RESULT: -7.010231534      4.067      5.621
REMARK  8 active torsions:
REMARK  status: ('A' for Active; 'I' for Inactive)
REMARK    1  A    between atoms: C2_2  and  O1_4
REMARK    2  A    between atoms: O1_4  and  C4_5
REMARK       I    between atoms: C4_5  and  N1_7
REMARK    3  A    between atoms: C7_10  and  C8_11
REMARK    4  A    between atoms: C7_10  and  C9_14
REMARK    5  A    between atoms: C8_11  and  O3_12
REMARK    6  A    between atoms: C9_14  and  C10_15
REMARK    7  A    between atoms: C10_15  and  N2_16
REMARK       I    between atoms: N2_16  and  C11_18
REMARK       I    between atoms: C11_18  and  N3_20
REMARK    8  A    between atoms: N3_20  and  C12_22
ROOT
HETATM    1  C4  UNL     1     -21.277 -32.500  -0.082  1.00  0.00     0.363 C
HETATM    2  O2  UNL     1     -21.407 -31.660   0.845  1.00  0.00    -0.238 OA
HETATM    3  N1  UNL     1     -21.188 -32.018  -1.410  1.00  0.00    -0.328 N
HETATM    4  C5  UNL     1     -21.240 -30.614  -1.751  1.00  0.00     0.129 C
HETATM    5  C6  UNL     1     -22.220 -30.372  -2.877  1.00  0.00     0.032 C
HETATM    6  C7  UNL     1     -21.962 -31.299  -4.047  1.00  0.00    -0.015 C
HETATM    7  C16 UNL     1     -22.080 -32.712  -3.543  1.00  0.00     0.032 C
HETATM    8  C17 UNL     1     -21.038 -32.978  -2.479  1.00  0.00     0.129 C
ENDROOT
BRANCH   6   9
HETATM    9  C8  UNL     1     -23.036 -31.057  -5.057  1.00  0.00     0.173 C
BRANCH   9  10
HETATM   10  O3  UNL     1     -23.475 -32.216  -5.687  1.00  0.00    -0.400 OA
ATOM     11  H3  UNL     1     -23.919 -32.820  -5.103  1.00  0.00     0.209 HD
ENDBRANCH   9  10
ENDBRANCH   6   9
BRANCH   6  12
HETATM   12  C9  UNL     1     -20.627 -30.996  -4.644  1.00  0.00     0.031 C
BRANCH  12  13
HETATM   13  C10 UNL     1     -20.420 -31.722  -5.953  1.00  0.00     0.125 C
BRANCH  13  14
HETATM   14  N2  UNL     1     -20.700 -30.840  -7.087  1.00  0.00    -0.343 N
HETATM   15  C11 UNL     1     -21.449 -31.302  -8.197  1.00  0.00     0.316 C
HETATM   16  O4  UNL     1     -21.898 -32.500  -8.235  1.00  0.00    -0.247 OA
HETATM   17  N3  UNL     1     -21.694 -30.405  -9.274  1.00  0.00    -0.335 N
ATOM     18  H3  UNL     1     -21.338 -29.450  -9.244  1.00  0.00     0.165 HD
ATOM     19  H2  UNL     1     -20.352 -29.882  -7.077  1.00  0.00     0.164 HD
BRANCH  17  20
HETATM   20  C12 UNL     1     -22.451 -30.865 -10.403  1.00  0.00     0.023 C
HETATM   21  C13 UNL     1     -21.635 -31.748 -11.327  1.00  0.00     0.037 C
HETATM   22  C14 UNL     1     -23.664 -31.600  -9.918  1.00  0.00     0.037 C
HETATM   23  C15 UNL     1     -22.872 -29.650 -11.226  1.00  0.00     0.037 C
ENDBRANCH  17  20
ENDBRANCH  13  14
ENDBRANCH  12  13
ENDBRANCH   6  12
BRANCH   1  24
HETATM   24  O1  UNL     1     -21.223 -33.855   0.199  1.00  0.00    -0.299 OA
BRANCH  24  25
HETATM   25  C2  UNL     1     -22.389 -34.577   0.535  1.00  0.00     0.125 C
HETATM   26  C1  UNL     1     -22.355 -34.931   2.009  1.00  0.00     0.040 C
HETATM   27  C3  UNL     1     -22.465 -35.869  -0.283  1.00  0.00     0.040 C
ENDBRANCH  24  25
ENDBRANCH   1  24
TORSDOF 8
ENDMDL