MODEL 5
REMARK VINA RESULT: -6.854428008      2.954      3.731
REMARK  7 active torsions:
REMARK  status: ('A' for Active; 'I' for Inactive)
REMARK    1  A    between atoms: C2_2  and  C3_3
REMARK    2  A    between atoms: C3_3  and  C5_5
REMARK    3  A    between atoms: C5_5  and  N1_6
REMARK    4  A    between atoms: C5_5  and  C6_10
REMARK       I    between atoms: C6_10  and  N2_12
REMARK    5  A    between atoms: N2_12  and  C7_14
REMARK    6  A    between atoms: C11_24  and  C12_25
REMARK    7  A    between atoms: C11_24  and  C14_27
ROOT
HETATM    1  C7  UNL     1     -22.733 -36.190  -2.984  1.00  0.00     0.153 A
HETATM    2  N3  UNL     1     -23.066 -37.468  -3.090  1.00  0.00    -0.337 N
ATOM      3  H3  UNL     1     -23.504 -37.958  -2.310  1.00  0.00     0.168 HD
HETATM    4  C8  UNL     1     -22.824 -38.091  -4.213  1.00  0.00     0.046 A
HETATM    5  C9  UNL     1     -22.238 -37.395  -5.226  1.00  0.00     0.102 A
HETATM    6  S1  UNL     1     -22.052 -35.833  -4.507  1.00  0.00    -0.034 SA
HETATM    7  N4  UNL     1     -21.943 -37.935  -6.520  1.00  0.00    -0.319 N
ATOM      8  H4  UNL     1     -21.498 -37.351  -7.228  1.00  0.00     0.169 HD
HETATM    9  C10 UNL     1     -22.276 -39.310  -6.820  1.00  0.00     0.231 C
HETATM   10  O2  UNL     1     -21.703 -39.961  -7.676  1.00  0.00    -0.272 OA
HETATM   11  C11 UNL     1     -23.406 -39.797  -5.939  1.00  0.00     0.046 C
HETATM   12  C16 UNL     1     -23.116 -39.551  -4.504  1.00  0.00     0.079 C
ENDROOT
BRANCH   1  13
HETATM   13  N2  UNL     1     -22.900 -35.398  -1.941  1.00  0.00    -0.305 N
HETATM   14  C6  UNL     1     -21.756 -34.991  -1.192  1.00  0.00     0.254 C
HETATM   15  O1  UNL     1     -21.028 -34.132  -1.741  1.00  0.00    -0.271 OA
ATOM     16  H2  UNL     1     -23.832 -35.083  -1.675  1.00  0.00     0.171 HD
BRANCH  14  17
HETATM   17  C5  UNL     1     -21.416 -35.512   0.131  1.00  0.00     0.278 C
BRANCH  17  18
HETATM   18  C3  UNL     1     -21.612 -34.612   1.295  1.00  0.00     0.021 C
HETATM   19  C4  UNL     1     -22.528 -35.187   2.362  1.00  0.00     0.012 C
BRANCH  18  20
HETATM   20  C2  UNL     1     -21.875 -33.174   1.046  1.00  0.00     0.002 C
HETATM   21  C1  UNL     1     -20.730 -32.239   1.201  1.00  0.00     0.005 C
ENDBRANCH  18  20
ENDBRANCH  17  18
BRANCH  17  22
HETATM   22  N1  UNL     1     -22.375 -36.636   0.353  1.00  0.00    -0.066 N
ATOM     23  H13 UNL     1     -22.148 -37.221   1.158  1.00  0.00     0.275 HD
ATOM     24  H12 UNL     1     -23.294 -36.339   0.681  1.00  0.00     0.275 HD
ATOM     25  H11 UNL     1     -22.394 -37.141  -0.533  1.00  0.00     0.275 HD
ENDBRANCH  17  22
ENDBRANCH  14  17
ENDBRANCH   1  13
BRANCH  11  26
HETATM   26  C12 UNL     1     -24.697 -39.123  -6.309  1.00  0.00     0.015 C
HETATM   27  C13 UNL     1     -25.120 -39.436  -7.729  1.00  0.00     0.006 C
ENDBRANCH  11  26
BRANCH  11  28
HETATM   28  C14 UNL     1     -23.498 -41.274  -6.171  1.00  0.00     0.015 C
HETATM   29  C15 UNL     1     -23.152 -42.089  -4.958  1.00  0.00     0.006 C
ENDBRANCH  11  28
TORSDOF 7
ENDMDL