MODEL 5
REMARK VINA RESULT: -7.405301829      2.301      2.613
REMARK  7 active torsions:
REMARK  status: ('A' for Active; 'I' for Inactive)
REMARK    1  A    between atoms: N1_2  and  C2_4
REMARK    2  A    between atoms: C2_4  and  C4_6
REMARK    3  A    between atoms: C4_6  and  C5_7
REMARK    4  A    between atoms: C5_7  and  O1_8
REMARK    5  A    between atoms: C5_7  and  C6_10
REMARK    6  A    between atoms: C6_10  and  C7_11
REMARK    7  A    between atoms: C7_11  and  C8_15
REMARK       I    between atoms: N3_23  and  C16_25
REMARK       I    between atoms: C16_25  and  N4_27
REMARK       I    between atoms: N4_27  and  C17_29
ROOT
HETATM    1  C8  UNL     1     -22.317 -33.391  -5.964  1.00  0.00     0.076 C
HETATM    2  C9  UNL     1     -21.078 -32.807  -6.570  1.00  0.00     0.017 C
HETATM    3  C10 UNL     1     -20.905 -33.065  -8.019  1.00  0.00     0.010 C
HETATM    4  C11 UNL     1     -21.973 -33.904  -8.644  1.00  0.00    -0.043 C
HETATM    5  C12 UNL     1     -23.177 -33.075  -9.098  1.00  0.00     0.015 C
HETATM    6  C13 UNL     1     -21.369 -34.473  -9.938  1.00  0.00     0.015 C
HETATM    7  C14 UNL     1     -22.390 -35.078  -7.828  1.00  0.00     0.062 C
HETATM    8  C15 UNL     1     -22.467 -34.780  -6.378  1.00  0.00     0.001 C
HETATM    9  N3  UNL     1     -22.666 -35.773  -5.583  1.00  0.00    -0.315 N
ATOM     10  H3  UNL     1     -22.727 -35.599  -4.579  1.00  0.00     0.170 HD
HETATM   11  C16 UNL     1     -22.806 -37.127  -6.069  1.00  0.00     0.326 C
HETATM   12  O2  UNL     1     -21.841 -37.903  -6.101  1.00  0.00    -0.247 OA
HETATM   13  N4  UNL     1     -24.098 -37.501  -6.497  1.00  0.00    -0.279 N
ATOM     14  H4  UNL     1     -24.858 -36.823  -6.449  1.00  0.00     0.173 HD
HETATM   15  C17 UNL     1     -24.355 -38.782  -6.985  1.00  0.00     0.221 C
HETATM   16  C18 UNL     1     -23.298 -39.808  -7.078  1.00  0.00     0.117 C
HETATM   17  O3  UNL     1     -25.526 -39.075  -7.359  1.00  0.00    -0.274 OA
ENDROOT
BRANCH   1  18
HETATM   18  C7  UNL     1     -22.361 -33.148  -4.503  1.00  0.00    -0.008 C
HETATM   19  N2  UNL     1     -23.380 -32.561  -4.029  1.00  0.00    -0.405 N
ATOM     20  H22 UNL     1     -23.411 -32.393  -3.024  1.00  0.00     0.155 HD
ATOM     21  H21 UNL     1     -24.153 -32.318  -4.651  1.00  0.00     0.155 HD
BRANCH  18  22
HETATM   22  C6  UNL     1     -21.244 -33.498  -3.605  1.00  0.00     0.084 C
BRANCH  22  23
HETATM   23  C5  UNL     1     -21.538 -34.484  -2.534  1.00  0.00     0.125 C
BRANCH  23  24
HETATM   24  C4  UNL     1     -21.429 -34.006  -1.129  1.00  0.00     0.056 C
BRANCH  24  25
HETATM   25  C2  UNL     1     -22.215 -35.008  -0.268  1.00  0.00     0.078 C
HETATM   26  C3  UNL     1     -22.175 -34.581   1.165  1.00  0.00     0.032 C
BRANCH  25  27
HETATM   27  N1  UNL     1     -21.689 -36.330  -0.448  1.00  0.00    -0.404 N
HETATM   28  C1  UNL     1     -22.379 -37.350  -0.113  1.00  0.00     0.112 C
ATOM     29  H1  UNL     1     -20.759 -36.455  -0.847  1.00  0.00     0.158 HD
ENDBRANCH  25  27
ENDBRANCH  24  25
ENDBRANCH  23  24
BRANCH  23  30
HETATM   30  O1  UNL     1     -22.835 -34.998  -2.703  1.00  0.00    -0.395 OA
ATOM     31  H1  UNL     1     -22.867 -35.411  -3.558  1.00  0.00     0.210 HD
ENDBRANCH  23  30
ENDBRANCH  22  23
ENDBRANCH  18  22
ENDBRANCH   1  18
TORSDOF 7
ENDMDL