MODEL 3
REMARK VINA RESULT: -6.476547520      2.099      3.296
REMARK  8 active torsions:
REMARK  status: ('A' for Active; 'I' for Inactive)
REMARK    1  A    between atoms: C2_2  and  C3_3
REMARK    2  A    between atoms: C3_3  and  C4_4
REMARK    3  A    between atoms: C4_4  and  C5_5
REMARK    4  A    between atoms: C5_5  and  N1_6
REMARK    5  A    between atoms: N1_6  and  C6_8
REMARK    6  A    between atoms: C6_8  and  O1_9
REMARK    7  A    between atoms: C6_8  and  C7_11
REMARK    8  A    between atoms: C16_21  and  O3_22
ROOT
HETATM    1  C7  UNL     1     -22.409 -31.690  -5.562  1.00  0.00     0.100 C
HETATM    2  C8  UNL     1     -22.038 -30.252  -6.013  1.00  0.00     0.041 C
HETATM    3  C9  UNL     1     -20.854 -30.404  -6.936  1.00  0.00     0.016 C
HETATM    4  C10 UNL     1     -20.984 -31.858  -7.356  1.00  0.00     0.001 C
HETATM    5  C11 UNL     1     -19.679 -32.256  -7.968  1.00  0.00     0.019 C
HETATM    6  C12 UNL     1     -22.074 -31.958  -8.357  1.00  0.00     0.112 C
HETATM    7  C13 UNL     1     -22.004 -33.140  -9.263  1.00  0.00     0.045 C
HETATM    8  C14 UNL     1     -22.366 -32.571 -10.622  1.00  0.00     0.029 C
HETATM    9  C15 UNL     1     -21.968 -31.149 -10.465  1.00  0.00     0.169 C
HETATM   10  O2  UNL     1     -21.940 -30.800  -9.164  1.00  0.00    -0.375 OA
HETATM   11  C16 UNL     1     -23.457 -31.878  -7.767  1.00  0.00     0.250 C
HETATM   12  N2  UNL     1     -23.543 -32.112  -6.385  1.00  0.00    -0.378 N
ATOM     13  H2  UNL     1     -24.362 -32.558  -5.973  1.00  0.00     0.157 HD
HETATM   14  C17 UNL     1     -21.259 -32.479  -6.000  1.00  0.00    -0.005 C
HETATM   15  C18 UNL     1     -21.479 -33.965  -6.040  1.00  0.00     0.019 C
HETATM   16  C19 UNL     1     -20.038 -32.241  -5.151  1.00  0.00     0.019 C
ENDROOT
BRANCH   1  17
HETATM   17  C6  UNL     1     -22.834 -31.574  -4.198  1.00  0.00     0.141 C
BRANCH  17  18
HETATM   18  N1  UNL     1     -22.729 -30.614  -3.200  1.00  0.00    -0.372 N
ATOM     19  H1  UNL     1     -23.549 -30.033  -3.024  1.00  0.00     0.161 HD
BRANCH  18  20
HETATM   20  C5  UNL     1     -21.544 -30.366  -2.380  1.00  0.00     0.121 C
BRANCH  20  21
HETATM   21  C4  UNL     1     -21.160 -31.481  -1.477  1.00  0.00     0.020 C
BRANCH  21  22
HETATM   22  C3  UNL     1     -20.764 -30.991  -0.099  1.00  0.00     0.001 C
BRANCH  22  23
HETATM   23  C2  UNL     1     -20.751 -32.077   0.942  1.00  0.00    -0.004 C
HETATM   24  C1  UNL     1     -21.495 -33.304   0.492  1.00  0.00     0.005 C
ENDBRANCH  22  23
ENDBRANCH  21  22
ENDBRANCH  20  21
ENDBRANCH  18  20
ENDBRANCH  17  18
BRANCH  17  25
HETATM   25  O1  UNL     1     -23.478 -32.638  -3.794  1.00  0.00    -0.348 OA
ATOM     26  H1  UNL     1     -23.006 -33.107  -3.116  1.00  0.00     0.219 HD
ENDBRANCH  17  25
ENDBRANCH   1  17
BRANCH  11  27
HETATM   27  O3  UNL     1     -24.308 -32.830  -8.392  1.00  0.00    -0.374 OA
ATOM     28  H3  UNL     1     -24.777 -32.423  -9.111  1.00  0.00     0.212 HD
ENDBRANCH  11  27
TORSDOF 8
ENDMDL