MODEL 3
REMARK VINA RESULT: -5.873213673      2.719      5.427
REMARK  6 active torsions:
REMARK  status: ('A' for Active; 'I' for Inactive)
REMARK    1  A    between atoms: C2_2  and  C4_4
REMARK    2  A    between atoms: C4_4  and  N1_5
REMARK    3  A    between atoms: C4_4  and  C6_10
REMARK       I    between atoms: N1_5  and  C5_7
REMARK    4  A    between atoms: C6_10  and  N4_15
REMARK    5  A    between atoms: N3_11  and  C7_13
REMARK    6  A    between atoms: N4_15  and  C8_17
ROOT
HETATM    1  C6  UNL     1     -22.032 -35.118  -4.635  1.00  0.00     0.103 C
HETATM    2  N3  UNL     1     -20.945 -34.976  -4.013  1.00  0.00    -0.322 N
ATOM      3  H3  UNL     1     -20.611 -35.833  -3.574  1.00  0.00     0.169 HD
ENDROOT
BRANCH   1   4
HETATM    4  C4  UNL     1     -22.625 -36.497  -4.616  1.00  0.00     0.156 C
BRANCH   4   5
HETATM    5  C2  UNL     1     -22.433 -37.222  -3.331  1.00  0.00     0.008 C
HETATM    6  C1  UNL     1     -22.851 -36.437  -2.112  1.00  0.00     0.012 C
HETATM    7  C3  UNL     1     -23.331 -38.462  -3.389  1.00  0.00     0.012 C
ENDBRANCH   4   5
BRANCH   4   8
HETATM    8  N1  UNL     1     -21.970 -37.241  -5.682  1.00  0.00    -0.334 N
HETATM    9  C5  UNL     1     -22.635 -37.675  -6.844  1.00  0.00     0.329 C
HETATM   10  N2  UNL     1     -21.935 -38.390  -7.831  1.00  0.00    -0.040 NA
HETATM   11  O1  UNL     1     -23.850 -37.418  -6.984  1.00  0.00    -0.251 OA
ATOM     12  H1  UNL     1     -20.978 -37.459  -5.582  1.00  0.00     0.164 HD
ENDBRANCH   4   8
ENDBRANCH   1   4
BRANCH   1  13
HETATM   13  N4  UNL     1     -22.681 -34.058  -5.309  1.00  0.00    -0.372 N
ATOM     14  H4  UNL     1     -23.514 -33.688  -4.851  1.00  0.00     0.161 HD
BRANCH  13  15
HETATM   15  C8  UNL     1     -22.331 -33.439  -6.541  1.00  0.00     0.098 C
HETATM   16  C9  UNL     1     -22.995 -34.075  -7.736  1.00  0.00     0.046 C
HETATM   17  C10 UNL     1     -22.297 -33.843  -9.038  1.00  0.00     0.013 C
HETATM   18  C11 UNL     1     -23.254 -33.022  -9.913  1.00  0.00     0.027 C
HETATM   19  C12 UNL     1     -21.999 -35.099  -9.789  1.00  0.00     0.027 C
HETATM   20  S1  UNL     1     -20.809 -32.790  -8.846  1.00  0.00    -0.088 SA
HETATM   21  S2  UNL     1     -21.496 -31.150  -7.621  1.00  0.00    -0.090 SA
HETATM   22  C13 UNL     1     -22.736 -31.948  -6.549  1.00  0.00     0.077 C
HETATM   23  C14 UNL     1     -22.757 -31.348  -5.181  1.00  0.00     0.024 C
ENDBRANCH  13  15
ENDBRANCH   1  13
BRANCH   2  24
HETATM   24  C7  UNL     1     -20.113 -33.886  -3.806  1.00  0.00     0.354 C
HETATM   25  O2  UNL     1     -20.573 -32.883  -3.170  1.00  0.00    -0.283 OA
ENDBRANCH   2  24
TORSDOF 6
ENDMDL