MODEL 1
REMARK VINA RESULT: -7.501781794      0.000      0.000
REMARK  5 active torsions:
REMARK  status: ('A' for Active; 'I' for Inactive)
REMARK    1  A    between atoms: C6_6  and  S1_7
REMARK    2  A    between atoms: S1_7  and  C7_10
REMARK    3  A    between atoms: C9_12  and  N1_13
REMARK    4  A    between atoms: N1_13  and  S2_15
REMARK    5  A    between atoms: S2_15  and  C10_18
ROOT
HETATM    1  C7  UNL     1     -21.578 -35.182  -4.551  1.00  0.00     0.147 A
HETATM    2  C8  UNL     1     -22.258 -36.304  -4.125  1.00  0.00     0.093 A
HETATM    3  C9  UNL     1     -22.433 -37.131  -5.203  1.00  0.00     0.132 A
HETATM    4  N2  UNL     1     -21.874 -36.525  -6.253  1.00  0.00    -0.284 N
ATOM      5  H2  UNL     1     -21.843 -36.894  -7.202  1.00  0.00     0.188 HD
HETATM    6  N3  UNL     1     -21.371 -35.374  -5.862  1.00  0.00    -0.288 N
ATOM      7  H3  UNL     1     -20.887 -34.717  -6.474  1.00  0.00     0.188 HD
ENDROOT
BRANCH   1   8
HETATM    8  S1  UNL     1     -21.090 -33.813  -3.588  1.00  0.00     0.200 S
HETATM    9  O1  UNL     1     -19.664 -33.461  -3.894  1.00  0.00    -0.220 OA
HETATM   10  O2  UNL     1     -21.152 -34.163  -2.102  1.00  0.00    -0.220 OA
BRANCH   8  11
HETATM   11  C6  UNL     1     -22.111 -32.403  -3.796  1.00  0.00     0.143 C
HETATM   12  C2  UNL     1     -21.792 -31.245  -2.976  1.00  0.00    -0.069 C
HETATM   13  C1  UNL     1     -21.132 -31.156  -1.643  1.00  0.00     0.044 C
HETATM   14  C3  UNL     1     -22.215 -30.141  -3.624  1.00  0.00    -0.023 C
HETATM   15  C4  UNL     1     -22.836 -30.531  -4.934  1.00  0.00     0.029 C
HETATM   16  C5  UNL     1     -22.140 -31.878  -5.193  1.00  0.00     0.029 C
ENDBRANCH   8  11
ENDBRANCH   1   8
BRANCH   3  17
HETATM   17  N1  UNL     1     -23.019 -38.289  -5.258  1.00  0.00    -0.268 N
ATOM     18  H1  UNL     1     -22.519 -39.127  -4.959  1.00  0.00     0.180 HD
BRANCH  17  19
HETATM   19  S2  UNL     1     -24.638 -38.415  -5.836  1.00  0.00     0.235 S
HETATM   20  O3  UNL     1     -25.599 -38.364  -4.683  1.00  0.00    -0.205 OA
HETATM   21  O4  UNL     1     -24.885 -37.324  -6.827  1.00  0.00    -0.205 OA
BRANCH  19  22
HETATM   22  C10 UNL     1     -24.855 -39.971  -6.658  1.00  0.00     0.121 C
HETATM   23  C11 UNL     1     -25.267 -39.670  -8.092  1.00  0.00     0.027 C
HETATM   24  C12 UNL     1     -23.605 -40.791  -6.686  1.00  0.00     0.027 C
ENDBRANCH  19  22
ENDBRANCH  17  19
ENDBRANCH   3  17
TORSDOF 5
ENDMDL