MODEL 4
REMARK VINA RESULT: -7.009167887      2.788      6.166
REMARK  5 active torsions:
REMARK  status: ('A' for Active; 'I' for Inactive)
REMARK    1  A    between atoms: C5_5  and  N1_6
REMARK    2  A    between atoms: C7_11  and  N2_12
REMARK       I    between atoms: N2_12  and  C8_14
REMARK    3  A    between atoms: C8_14  and  C9_16
REMARK    4  A    between atoms: N3_21  and  C13_22
REMARK    5  A    between atoms: C13_22  and  C14_23
ROOT
HETATM    1  N2  UNL     1     -22.891 -34.991  -5.322  1.00  0.00    -0.354 N
ATOM      2  H2  UNL     1     -22.062 -34.990  -5.916  1.00  0.00     0.162 HD
HETATM    3  C8  UNL     1     -23.316 -33.789  -4.726  1.00  0.00     0.241 C
HETATM    4  O1  UNL     1     -24.339 -33.810  -3.997  1.00  0.00    -0.271 OA
ENDROOT
BRANCH   3   5
HETATM    5  C9  UNL     1     -22.585 -32.505  -4.939  1.00  0.00     0.179 C
HETATM    6  C10 UNL     1     -22.325 -31.857  -3.588  1.00  0.00     0.044 C
HETATM    7  C11 UNL     1     -21.233 -32.746  -3.031  1.00  0.00     0.105 C
HETATM    8  C12 UNL     1     -20.526 -33.220  -4.256  1.00  0.00     0.220 C
HETATM    9  O2  UNL     1     -19.460 -33.913  -4.279  1.00  0.00    -0.273 OA
HETATM   10  N3  UNL     1     -21.249 -32.765  -5.401  1.00  0.00    -0.338 N
BRANCH  10  11
HETATM   11  C13 UNL     1     -20.668 -32.627  -6.711  1.00  0.00     0.131 C
BRANCH  11  12
HETATM   12  C14 UNL     1     -21.151 -31.375  -7.425  1.00  0.00     0.008 C
HETATM   13  C15 UNL     1     -22.142 -31.821  -8.470  1.00  0.00     0.032 C
HETATM   14  C16 UNL     1     -22.337 -30.813  -9.565  1.00  0.00     0.168 C
HETATM   15  O3  UNL     1     -21.165 -30.258 -10.018  1.00  0.00    -0.391 OA
HETATM   16  C17 UNL     1     -20.573 -29.558  -8.967  1.00  0.00     0.168 C
HETATM   17  C18 UNL     1     -19.998 -30.609  -8.021  1.00  0.00     0.032 C
ENDBRANCH  11  12
ENDBRANCH  10  11
ENDBRANCH   3   5
BRANCH   1  18
HETATM   18  C7  UNL     1     -23.598 -36.210  -5.110  1.00  0.00     0.090 C
HETATM   19  C2  UNL     1     -22.892 -37.169  -4.213  1.00  0.00     0.004 C
HETATM   20  C1  UNL     1     -22.285 -36.515  -2.997  1.00  0.00     0.012 C
HETATM   21  C3  UNL     1     -23.900 -38.208  -3.766  1.00  0.00     0.008 C
HETATM   22  C4  UNL     1     -24.916 -38.528  -4.807  1.00  0.00     0.033 C
HETATM   23  C5  UNL     1     -24.468 -38.284  -6.214  1.00  0.00     0.185 C
HETATM   24  C6  UNL     1     -23.836 -36.949  -6.434  1.00  0.00     0.058 C
BRANCH  23  25
HETATM   25  N1  UNL     1     -23.648 -39.391  -6.682  1.00  0.00    -0.075 N
ATOM     26  H13 UNL     1     -23.915 -40.274  -6.246  1.00  0.00     0.274 HD
ATOM     27  H12 UNL     1     -23.853 -39.634  -7.651  1.00  0.00     0.274 HD
ATOM     28  H11 UNL     1     -22.659 -39.183  -6.545  1.00  0.00     0.274 HD
ENDBRANCH  23  25
ENDBRANCH   1  18
TORSDOF 5
ENDMDL