MODEL 5
REMARK VINA RESULT: -7.375019264      2.870      4.311
REMARK  4 active torsions:
REMARK  status: ('A' for Active; 'I' for Inactive)
REMARK       I    between atoms: N1_4  and  C4_5
REMARK    1  A    between atoms: C4_5  and  C5_7
REMARK    2  A    between atoms: C5_7  and  C6_8
REMARK    3  A    between atoms: C6_8  and  C7_9
REMARK       I    between atoms: C7_9  and  N2_11
REMARK    4  A    between atoms: N2_11  and  C8_13
ROOT
HETATM    1  C7  UNL     1     -21.146 -34.479  -4.917  1.00  0.00     0.218 C
HETATM    2  O2  UNL     1     -21.571 -35.492  -5.538  1.00  0.00    -0.274 OA
HETATM    3  N2  UNL     1     -21.212 -33.226  -5.587  1.00  0.00    -0.356 N
ATOM      4  H2  UNL     1     -20.876 -32.391  -5.107  1.00  0.00     0.162 HD
ENDROOT
BRANCH   1   5
HETATM    5  C6  UNL     1     -20.607 -34.593  -3.559  1.00  0.00     0.112 C
BRANCH   5   6
HETATM    6  C5  UNL     1     -21.504 -34.072  -2.478  1.00  0.00     0.112 C
BRANCH   6   7
HETATM    7  C4  UNL     1     -22.035 -35.226  -1.707  1.00  0.00     0.220 C
HETATM    8  N1  UNL     1     -21.916 -35.189  -0.297  1.00  0.00    -0.349 N
HETATM    9  C3  UNL     1     -21.302 -34.074   0.366  1.00  0.00     0.158 C
HETATM   10  C18 UNL     1     -22.421 -36.293   0.477  1.00  0.00     0.153 C
HETATM   11  C2  UNL     1     -22.275 -33.640   1.471  1.00  0.00     0.199 C
HETATM   12  C1  UNL     1     -21.814 -32.378   2.150  1.00  0.00     0.041 C
HETATM   13  N3  UNL     1     -22.357 -34.758   2.387  1.00  0.00    -0.068 N
HETATM   14  C19 UNL     1     -23.071 -35.830   1.764  1.00  0.00     0.252 C
ATOM     15  H32 UNL     1     -21.439 -35.049   2.723  1.00  0.00     0.277 HD
ATOM     16  H31 UNL     1     -22.764 -34.493   3.283  1.00  0.00     0.277 HD
HETATM   17  O1  UNL     1     -22.577 -36.207  -2.298  1.00  0.00    -0.273 OA
ENDBRANCH   6   7
ENDBRANCH   5   6
ENDBRANCH   1   5
BRANCH   3  18
HETATM   18  C8  UNL     1     -21.743 -33.101  -6.929  1.00  0.00     0.092 C
HETATM   19  C9  UNL     1     -20.641 -32.846  -7.913  1.00  0.00     0.009 C
HETATM   20  C10 UNL     1     -19.931 -31.552  -7.611  1.00  0.00     0.011 C
HETATM   21  C14 UNL     1     -21.232 -32.717  -9.305  1.00  0.00     0.011 C
HETATM   22  C11 UNL     1     -20.945 -30.443  -7.643  1.00  0.00    -0.013 C
HETATM   23  C12 UNL     1     -21.530 -30.319  -9.018  1.00  0.00     0.009 C
HETATM   24  C17 UNL     1     -22.061 -30.639  -6.659  1.00  0.00     0.011 C
HETATM   25  C13 UNL     1     -22.270 -31.612  -9.323  1.00  0.00    -0.013 C
HETATM   26  C15 UNL     1     -23.355 -31.880  -8.325  1.00  0.00     0.011 C
HETATM   27  C16 UNL     1     -22.727 -31.967  -6.950  1.00  0.00     0.009 C
ENDBRANCH   3  18
TORSDOF 4
ENDMDL