MODEL 3
REMARK VINA RESULT: -7.368073750      1.514      4.621
REMARK  6 active torsions:
REMARK  status: ('A' for Active; 'I' for Inactive)
REMARK    1  A    between atoms: C2_2  and  C3_3
REMARK       I    between atoms: C3_3  and  N1_5
REMARK    2  A    between atoms: N1_5  and  C4_7
REMARK    3  A    between atoms: C7_12  and  N3_13
REMARK    4  A    between atoms: N3_13  and  C8_15
REMARK    5  A    between atoms: C8_15  and  C9_16
REMARK    6  A    between atoms: C9_16  and  O2_17
ROOT
HETATM    1  C4  UNL     1     -22.316 -35.421  -0.591  1.00  0.00     0.686 A
HETATM    2  N2  UNL     1     -22.552 -36.351  -1.510  1.00  0.00    -0.194 N
ATOM      3  H2  UNL     1     -22.999 -37.229  -1.246  1.00  0.00     0.184 HD
HETATM    4  C5  UNL     1     -22.198 -36.130  -2.798  1.00  0.00     0.041 A
HETATM    5  C6  UNL     1     -21.590 -34.946  -3.189  1.00  0.00     0.042 A
HETATM    6  C7  UNL     1     -21.368 -34.022  -2.219  1.00  0.00     0.127 A
HETATM    7  N4  UNL     1     -21.724 -34.253  -0.944  1.00  0.00    -0.176 N
ATOM      8  H4  UNL     1     -21.547 -33.542  -0.234  1.00  0.00     0.186 HD
HETATM    9  C11 UNL     1     -21.277 -34.863  -4.606  1.00  0.00     0.258 C
HETATM   10  C12 UNL     1     -20.613 -33.662  -5.119  1.00  0.00     0.048 C
HETATM   11  N5  UNL     1     -22.528 -35.180  -5.286  1.00  0.00     0.102 N
HETATM   12  C13 UNL     1     -22.609 -34.635  -6.594  1.00  0.00     0.311 C
HETATM   13  C14 UNL     1     -22.770 -36.583  -5.197  1.00  0.00     0.158 C
HETATM   14  C15 UNL     1     -21.957 -37.367  -6.233  1.00  0.00     0.049 C
HETATM   15  C16 UNL     1     -24.224 -36.940  -5.491  1.00  0.00     0.049 C
HETATM   16  C17 UNL     1     -22.437 -37.142  -3.859  1.00  0.00     0.099 C
ENDROOT
BRANCH   1  17
HETATM   17  N1  UNL     1     -22.621 -35.549   0.656  1.00  0.00    -0.159 N
HETATM   18  C3  UNL     1     -21.966 -34.921   1.718  1.00  0.00     0.235 C
HETATM   19  O1  UNL     1     -20.744 -35.076   1.934  1.00  0.00    -0.273 OA
ATOM     20  H1  UNL     1     -23.406 -36.159   0.886  1.00  0.00     0.187 HD
BRANCH  18  21
HETATM   21  C2  UNL     1     -22.744 -34.041   2.620  1.00  0.00     0.099 C
HETATM   22  C1  UNL     1     -22.242 -32.620   2.570  1.00  0.00     0.014 C
ENDBRANCH  18  21
ENDBRANCH   1  17
BRANCH   6  23
HETATM   23  N3  UNL     1     -20.811 -32.923  -2.547  1.00  0.00    -0.373 N
ATOM     24  H3  UNL     1     -20.153 -32.902  -3.326  1.00  0.00     0.161 HD
BRANCH  23  25
HETATM   25  C8  UNL     1     -21.105 -31.703  -1.823  1.00  0.00     0.147 C
BRANCH  25  26
HETATM   26  C9  UNL     1     -21.659 -30.641  -2.744  1.00  0.00     0.186 C
BRANCH  26  27
HETATM   27  O2  UNL     1     -22.661 -31.198  -3.522  1.00  0.00    -0.394 OA
HETATM   28  C10 UNL     1     -22.742 -30.507  -4.731  1.00  0.00     0.201 C
ENDBRANCH  26  27
ENDBRANCH  25  26
ENDBRANCH  23  25
ENDBRANCH   6  23
TORSDOF 6
ENDMDL