MODEL 4
REMARK VINA RESULT: -7.743693284      2.244      5.560
REMARK  5 active torsions:
REMARK  status: ('A' for Active; 'I' for Inactive)
REMARK    1  A    between atoms: C2_2  and  N1_3
REMARK       I    between atoms: N1_3  and  C3_5
REMARK       I    between atoms: C3_5  and  N2_7
REMARK    2  A    between atoms: C8_15  and  N5_16
REMARK       I    between atoms: N5_16  and  C9_18
REMARK    3  A    between atoms: C9_18  and  C10_20
REMARK    4  A    between atoms: C10_20  and  C11_21
REMARK    5  A    between atoms: C14_24  and  C15_25
ROOT
HETATM    1  C15 UNL     1     -21.917 -30.823  -6.244  1.00  0.00     0.136 C
HETATM    2  C16 UNL     1     -22.112 -30.829  -7.671  1.00  0.00     0.059 C
HETATM    3  N6  UNL     1     -22.275 -30.820  -8.799  1.00  0.00    -0.197 NA
ENDROOT
BRANCH   1   4
HETATM    4  C14 UNL     1     -22.518 -32.077  -5.646  1.00  0.00     0.069 C
HETATM    5  C6  UNL     1     -22.058 -32.247  -4.227  1.00  0.00     0.044 A
HETATM    6  C5  UNL     1     -21.928 -33.472  -3.661  1.00  0.00     0.030 A
HETATM    7  N3  UNL     1     -21.712 -31.355  -3.316  1.00  0.00    -0.300 N
HETATM    8  C4  UNL     1     -22.228 -34.708  -4.368  1.00  0.00     0.172 C
HETATM    9  C8  UNL     1     -21.474 -33.246  -2.333  1.00  0.00     0.134 A
HETATM   10  N2  UNL     1     -22.185 -34.532  -5.795  1.00  0.00    -0.329 N
HETATM   11  C3  UNL     1     -22.190 -35.700  -6.596  1.00  0.00     0.318 C
HETATM   12  C17 UNL     1     -22.140 -33.276  -6.465  1.00  0.00     0.139 C
HETATM   13  N1  UNL     1     -22.241 -36.982  -5.991  1.00  0.00    -0.343 N
HETATM   14  O1  UNL     1     -22.151 -35.609  -7.840  1.00  0.00    -0.247 OA
ATOM     15  H1  UNL     1     -22.274 -37.042  -4.973  1.00  0.00     0.164 HD
HETATM   16  N4  UNL     1     -21.353 -31.929  -2.156  1.00  0.00    -0.280 N
HETATM   17  C7  UNL     1     -20.920 -31.194  -0.962  1.00  0.00     0.179 C
ATOM     18  H3  UNL     1     -21.716 -30.348  -3.475  1.00  0.00     0.187 HD
BRANCH  13  19
HETATM   19  C2  UNL     1     -22.249 -38.207  -6.756  1.00  0.00     0.120 C
HETATM   20  C1  UNL     1     -23.109 -39.226  -6.072  1.00  0.00     0.026 C
ENDBRANCH  13  19
BRANCH   9  21
HETATM   21  N5  UNL     1     -21.245 -34.198  -1.512  1.00  0.00    -0.311 N
HETATM   22  C9  UNL     1     -21.916 -34.660  -0.404  1.00  0.00     0.223 C
HETATM   23  O2  UNL     1     -21.596 -34.195   0.740  1.00  0.00    -0.273 OA
ATOM     24  H5  UNL     1     -20.393 -34.720  -1.720  1.00  0.00     0.170 HD
BRANCH  22  25
HETATM   25  C10 UNL     1     -22.988 -35.676  -0.540  1.00  0.00     0.107 C
BRANCH  25  26
HETATM   26  C11 UNL     1     -22.473 -37.017  -0.946  1.00  0.00    -0.014 C
HETATM   27  C12 UNL     1     -22.621 -38.059   0.132  1.00  0.00     0.010 C
HETATM   28  C13 UNL     1     -23.051 -37.514  -2.243  1.00  0.00     0.010 C
ENDBRANCH  25  26
ENDBRANCH  22  25
ENDBRANCH   9  21
ENDBRANCH   1   4
TORSDOF 5
ENDMDL