MODEL 5
REMARK VINA RESULT: -8.344202098      3.193      4.505
REMARK  4 active torsions:
REMARK  status: ('A' for Active; 'I' for Inactive)
REMARK    1  A    between atoms: C1_2  and  C2_4
REMARK    2  A    between atoms: C7_9  and  N2_10
REMARK       I    between atoms: N2_10  and  C8_12
REMARK    3  A    between atoms: C8_12  and  C9_14
REMARK    4  A    between atoms: N3_18  and  C13_19
ROOT
HETATM    1  N2  UNL     1     -22.212 -34.846  -3.631  1.00  0.00    -0.355 N
ATOM      2  H2  UNL     1     -21.193 -34.817  -3.648  1.00  0.00     0.162 HD
HETATM    3  C8  UNL     1     -22.929 -33.834  -4.338  1.00  0.00     0.223 C
HETATM    4  O2  UNL     1     -24.175 -33.881  -4.309  1.00  0.00    -0.273 OA
ENDROOT
BRANCH   3   5
HETATM    5  C9  UNL     1     -22.254 -32.757  -5.088  1.00  0.00     0.096 C
HETATM    6  C10 UNL     1     -22.845 -31.404  -4.815  1.00  0.00     0.021 C
HETATM    7  C11 UNL     1     -22.406 -30.300  -5.693  1.00  0.00     0.045 C
HETATM    8  C12 UNL     1     -21.659 -30.821  -6.901  1.00  0.00     0.058 C
HETATM    9  N3  UNL     1     -22.268 -31.961  -7.395  1.00  0.00    -0.388 N
HETATM   10  C18 UNL     1     -22.267 -33.109  -6.558  1.00  0.00     0.136 C
BRANCH   9  11
HETATM   11  C13 UNL     1     -22.965 -32.020  -8.596  1.00  0.00     0.087 C
HETATM   12  C14 UNL     1     -22.889 -33.406  -9.182  1.00  0.00     0.051 C
HETATM   13  C15 UNL     1     -22.965 -33.292 -10.707  1.00  0.00     0.169 C
HETATM   14  O3  UNL     1     -21.806 -32.639 -11.070  1.00  0.00    -0.391 OA
HETATM   15  C16 UNL     1     -21.836 -31.313 -10.741  1.00  0.00     0.169 C
HETATM   16  C17 UNL     1     -22.674 -30.934  -9.588  1.00  0.00     0.051 C
ENDBRANCH   9  11
ENDBRANCH   3   5
BRANCH   1  17
HETATM   17  C7  UNL     1     -22.849 -35.901  -2.896  1.00  0.00     0.097 C
HETATM   18  C2  UNL     1     -22.601 -37.239  -3.513  1.00  0.00     0.097 C
HETATM   19  C3  UNL     1     -23.324 -38.354  -2.801  1.00  0.00     0.015 C
HETATM   20  C4  UNL     1     -23.398 -38.184  -1.321  1.00  0.00     0.001 C
HETATM   21  C5  UNL     1     -22.375 -37.210  -0.790  1.00  0.00     0.002 C
HETATM   22  C6  UNL     1     -22.486 -35.863  -1.426  1.00  0.00     0.026 C
BRANCH  18  23
HETATM   23  C1  UNL     1     -23.077 -37.251  -4.912  1.00  0.00     0.237 C
HETATM   24  N1  UNL     1     -22.144 -37.114  -5.959  1.00  0.00    -0.062 NA
HETATM   25  O1  UNL     1     -24.289 -37.380  -5.184  1.00  0.00    -0.276 OA
ENDBRANCH  18  23
ENDBRANCH   1  17
TORSDOF 4
ENDMDL