MODEL 2
REMARK VINA RESULT: -8.058153471      2.767      8.455
REMARK  4 active torsions:
REMARK  status: ('A' for Active; 'I' for Inactive)
REMARK    1  A    between atoms: C3_3  and  C4_4
REMARK    2  A    between atoms: C4_4  and  N1_5
REMARK       I    between atoms: N1_5  and  C5_7
REMARK    3  A    between atoms: C5_7  and  C6_9
REMARK       I    between atoms: N2_14  and  C11_15
REMARK    4  A    between atoms: C11_15  and  C12_17
ROOT
HETATM    1  C1  UNL     1     -22.265 -33.829   1.892  1.00  0.00     0.012 C
HETATM    2  C2  UNL     1     -22.269 -34.833   1.227  1.00  0.00    -0.116 C
HETATM    3  C3  UNL     1     -22.253 -36.068   0.403  1.00  0.00     0.112 C
ENDROOT
BRANCH   3   4
HETATM    4  C4  UNL     1     -22.621 -35.725  -1.036  1.00  0.00     0.134 C
BRANCH   4   5
HETATM    5  N1  UNL     1     -21.804 -34.658  -1.548  1.00  0.00    -0.358 N
HETATM    6  C5  UNL     1     -21.963 -33.986  -2.764  1.00  0.00     0.240 C
HETATM    7  O1  UNL     1     -22.917 -34.324  -3.526  1.00  0.00    -0.271 OA
ATOM      8  H1  UNL     1     -21.025 -34.360  -0.962  1.00  0.00     0.162 HD
BRANCH   6   9
HETATM    9  C6  UNL     1     -21.087 -32.895  -3.233  1.00  0.00     0.179 C
HETATM   10  C7  UNL     1     -20.604 -31.986  -2.132  1.00  0.00     0.035 C
HETATM   11  C8  UNL     1     -21.680 -31.061  -1.680  1.00  0.00     0.004 C
HETATM   12  C9  UNL     1     -22.101 -30.191  -2.836  1.00  0.00     0.020 C
HETATM   13  C10 UNL     1     -22.590 -31.020  -4.012  1.00  0.00     0.127 C
HETATM   14  N2  UNL     1     -21.727 -32.120  -4.296  1.00  0.00    -0.338 N
HETATM   15  C11 UNL     1     -21.442 -32.499  -5.628  1.00  0.00     0.224 C
HETATM   16  O2  UNL     1     -20.643 -33.476  -5.865  1.00  0.00    -0.273 OA
BRANCH  15  17
HETATM   17  C12 UNL     1     -22.037 -31.807  -6.791  1.00  0.00     0.078 C
HETATM   18  C13 UNL     1     -20.982 -30.843  -7.319  1.00  0.00     0.016 C
HETATM   19  C14 UNL     1     -21.242 -30.346  -8.697  1.00  0.00     0.034 C
HETATM   20  C15 UNL     1     -21.452 -31.530  -9.648  1.00  0.00     0.190 C
HETATM   21  N3  UNL     1     -21.522 -31.092 -11.025  1.00  0.00    -0.070 N
HETATM   22  C19 UNL     1     -22.700 -32.199  -9.179  1.00  0.00     0.017 C
HETATM   23  C16 UNL     1     -21.788 -32.257 -11.834  1.00  0.00     0.232 C
ATOM     24  H32 UNL     1     -22.199 -30.343 -11.171  1.00  0.00     0.277 HD
ATOM     25  H31 UNL     1     -20.692 -30.580 -11.323  1.00  0.00     0.277 HD
HETATM   26  C17 UNL     1     -23.221 -32.687 -11.545  1.00  0.00     0.028 C
HETATM   27  C18 UNL     1     -23.257 -33.204 -10.121  1.00  0.00     0.008 C
HETATM   28  C20 UNL     1     -22.370 -32.852  -7.831  1.00  0.00     0.020 C
ENDBRANCH  15  17
ENDBRANCH   6   9
ENDBRANCH   4   5
ENDBRANCH   3   4
TORSDOF 4
ENDMDL