MODEL 4
REMARK VINA RESULT: -7.001509688      1.292      2.403
REMARK  6 active torsions:
REMARK  status: ('A' for Active; 'I' for Inactive)
REMARK    1  A    between atoms: C2_2  and  N1_3
REMARK    2  A    between atoms: N1_3  and  C3_4
REMARK    3  A    between atoms: N1_3  and  S1_13
REMARK    4  A    between atoms: C3_4  and  C4_5
REMARK       I    between atoms: C4_5  and  N2_7
REMARK    5  A    between atoms: N2_7  and  C5_9
REMARK    6  A    between atoms: S1_13  and  C9_16
ROOT
HETATM    1  S1  UNL     1     -21.243 -33.790  -2.819  1.00  0.00     0.246 S
HETATM    2  O2  UNL     1     -20.391 -32.542  -2.966  1.00  0.00    -0.206 OA
HETATM    3  O3  UNL     1     -20.373 -34.969  -3.243  1.00  0.00    -0.206 OA
ENDROOT
BRANCH   1   4
HETATM    4  N1  UNL     1     -22.538 -33.637  -3.916  1.00  0.00    -0.198 NA
BRANCH   4   5
HETATM    5  C2  UNL     1     -22.896 -32.300  -4.279  1.00  0.00     0.103 C
HETATM    6  C1  UNL     1     -22.984 -32.040  -5.739  1.00  0.00     0.021 C
ENDBRANCH   4   5
BRANCH   4   7
HETATM    7  C3  UNL     1     -22.225 -34.460  -5.068  1.00  0.00     0.210 C
BRANCH   7   8
HETATM    8  C4  UNL     1     -23.016 -35.682  -5.194  1.00  0.00     0.232 C
HETATM    9  O1  UNL     1     -24.128 -35.798  -4.648  1.00  0.00    -0.272 OA
HETATM   10  N2  UNL     1     -22.520 -36.763  -5.948  1.00  0.00    -0.352 N
ATOM     11  H2  UNL     1     -21.608 -36.661  -6.393  1.00  0.00     0.163 HD
BRANCH  10  12
HETATM   12  C5  UNL     1     -23.233 -38.010  -6.126  1.00  0.00     0.022 C
HETATM   13  C6  UNL     1     -23.346 -38.788  -4.844  1.00  0.00     0.037 C
HETATM   14  C7  UNL     1     -24.568 -37.838  -6.767  1.00  0.00     0.037 C
HETATM   15  C8  UNL     1     -22.374 -38.855  -7.077  1.00  0.00     0.037 C
ENDBRANCH  10  12
ENDBRANCH   7   8
ENDBRANCH   4   7
ENDBRANCH   1   4
BRANCH   1  16
HETATM   16  C9  UNL     1     -21.662 -34.007  -1.169  1.00  0.00     0.103 A
HETATM   17  C10 UNL     1     -22.128 -35.250  -0.755  1.00  0.00    -0.032 A
HETATM   18  C11 UNL     1     -22.315 -36.405  -1.667  1.00  0.00     0.050 C
HETATM   19  C12 UNL     1     -22.437 -35.416   0.578  1.00  0.00     0.082 A
HETATM   20  C13 UNL     1     -22.297 -34.392   1.492  1.00  0.00     0.246 A
HETATM   21  O4  UNL     1     -22.600 -34.618   2.695  1.00  0.00    -0.268 OA
HETATM   22  N3  UNL     1     -21.847 -33.221   1.051  1.00  0.00    -0.326 N
HETATM   23  C14 UNL     1     -21.520 -32.979  -0.254  1.00  0.00     0.032 A
ATOM     24  H3  UNL     1     -21.741 -32.460   1.722  1.00  0.00     0.169 HD
HETATM   25  C15 UNL     1     -21.004 -31.630  -0.588  1.00  0.00     0.070 C
ENDBRANCH   1  16
TORSDOF 6
ENDMDL