MODEL 5
REMARK VINA RESULT: -5.884551639      1.639      1.819
REMARK  6 active torsions:
REMARK  status: ('A' for Active; 'I' for Inactive)
REMARK    1  A    between atoms: N1_2  and  C2_4
REMARK    2  A    between atoms: C2_4  and  C3_6
REMARK    3  A    between atoms: C3_6  and  C4_7
REMARK    4  A    between atoms: C4_7  and  N2_8
REMARK    5  A    between atoms: N2_8  and  S2_10
REMARK    6  A    between atoms: C14_21  and  O3_22
ROOT
HETATM    1  C3  UNL     1     -21.764 -34.034  -5.385  1.00  0.00     0.060 C
HETATM    2  C7  UNL     1     -20.434 -33.973  -4.643  1.00  0.00     0.006 C
HETATM    3  C8  UNL     1     -20.369 -35.109  -3.665  1.00  0.00     0.010 C
HETATM    4  C9  UNL     1     -21.487 -35.054  -2.647  1.00  0.00    -0.011 C
HETATM    5  C10 UNL     1     -21.282 -33.739  -1.881  1.00  0.00     0.009 C
HETATM    6  C11 UNL     1     -21.381 -32.588  -2.837  1.00  0.00    -0.011 C
HETATM    7  C12 UNL     1     -20.277 -32.709  -3.847  1.00  0.00     0.010 C
HETATM    8  C13 UNL     1     -22.687 -32.599  -3.585  1.00  0.00     0.043 C
HETATM    9  C14 UNL     1     -22.844 -33.916  -4.364  1.00  0.00     0.074 C
HETATM   10  C15 UNL     1     -22.840 -34.960  -3.287  1.00  0.00     0.043 C
ENDROOT
BRANCH   1  11
HETATM   11  C2  UNL     1     -21.846 -32.903  -6.339  1.00  0.00     0.086 C
HETATM   12  S1  UNL     1     -20.502 -32.091  -6.747  1.00  0.00    -0.065 SA
BRANCH  11  13
HETATM   13  N1  UNL     1     -23.064 -32.474  -6.936  1.00  0.00    -0.388 N
HETATM   14  C1  UNL     1     -23.091 -31.561  -8.061  1.00  0.00     0.147 C
ATOM     15  H1  UNL     1     -23.947 -32.820  -6.560  1.00  0.00     0.159 HD
ENDBRANCH  11  13
ENDBRANCH   1  11
BRANCH   1  16
HETATM   16  C4  UNL     1     -21.763 -35.336  -6.105  1.00  0.00     0.127 C
BRANCH  16  17
HETATM   17  N2  UNL     1     -22.715 -35.577  -7.111  1.00  0.00    -0.214 NA
HETATM   18  C5  UNL     1     -23.420 -36.856  -6.933  1.00  0.00     0.129 C
BRANCH  17  19
HETATM   19  S2  UNL     1     -22.189 -35.537  -8.733  1.00  0.00     0.207 S
HETATM   20  C6  UNL     1     -22.107 -37.047  -9.584  1.00  0.00     0.180 C
HETATM   21  O1  UNL     1     -20.831 -34.848  -8.802  1.00  0.00    -0.212 OA
HETATM   22  O2  UNL     1     -23.185 -34.659  -9.506  1.00  0.00    -0.212 OA
ENDBRANCH  17  19
ENDBRANCH  16  17
ENDBRANCH   1  16
BRANCH   9  23
HETATM   23  O3  UNL     1     -24.128 -33.900  -4.902  1.00  0.00    -0.389 OA
ATOM     24  H3  UNL     1     -24.777 -33.496  -4.338  1.00  0.00     0.210 HD
ENDBRANCH   9  23
TORSDOF 6
ENDMDL