MODEL 3
REMARK VINA RESULT: -6.667321756      2.389      5.610
REMARK  4 active torsions:
REMARK  status: ('A' for Active; 'I' for Inactive)
REMARK    1  A    between atoms: C1_2  and  C2_3
REMARK    2  A    between atoms: C4_10  and  C5_11
REMARK    3  A    between atoms: C5_11  and  N4_12
REMARK    4  A    between atoms: N4_12  and  C6_14
ROOT
HETATM    1  C5  UNL     1      -1.483 -28.584  35.871  1.00  0.00     0.122 C
ENDROOT
BRANCH   1   2
HETATM    2  C4  UNL     1      -0.490 -27.989  36.459  1.00  0.00     0.079 A
HETATM    3  C2  UNL     1       0.407 -27.071  35.964  1.00  0.00     0.077 A
HETATM    4  N2  UNL     1       1.230 -26.790  37.018  1.00  0.00    -0.306 N
HETATM    5  C3  UNL     1       0.887 -27.478  38.107  1.00  0.00     0.325 A
ATOM      6  H2  UNL     1       2.010 -26.136  36.976  1.00  0.00     0.171 HD
HETATM    7  O1  UNL     1       1.430 -27.462  39.258  1.00  0.00    -0.247 OA
HETATM    8  N3  UNL     1      -0.171 -28.216  37.769  1.00  0.00    -0.305 N
ATOM      9  H3  UNL     1      -0.666 -28.854  38.392  1.00  0.00     0.171 HD
BRANCH   3  10
HETATM   10  C1  UNL     1       0.496 -26.544  34.750  1.00  0.00     0.132 C
HETATM   11  N1  UNL     1       0.805 -27.202  33.564  1.00  0.00    -0.113 NA
ENDBRANCH   3  10
ENDBRANCH   1   2
BRANCH   1  12
HETATM   12  N4  UNL     1      -1.531 -30.021  35.799  1.00  0.00    -0.345 N
ATOM     13  H4  UNL     1      -2.266 -30.546  36.273  1.00  0.00     0.167 HD
BRANCH  12  14
HETATM   14  C6  UNL     1      -0.606 -30.633  35.107  1.00  0.00     0.174 A
HETATM   15  N5  UNL     1      -0.296 -30.242  33.852  1.00  0.00    -0.346 N
HETATM   16  C7  UNL     1       0.665 -30.885  33.148  1.00  0.00     0.107 A
ATOM     17  H5  UNL     1      -0.790 -29.455  33.430  1.00  0.00     0.167 HD
HETATM   18  C8  UNL     1       1.325 -31.942  33.718  1.00  0.00     0.108 A
HETATM   19  N6  UNL     1       1.046 -32.351  34.945  1.00  0.00    -0.329 N
HETATM   20  C9  UNL     1       0.077 -31.685  35.629  1.00  0.00     0.289 A
ATOM     21  H6  UNL     1       1.540 -33.139  35.365  1.00  0.00     0.168 HD
HETATM   22  O2  UNL     1      -0.170 -32.092  36.791  1.00  0.00    -0.264 OA
ENDBRANCH  12  14
ENDBRANCH   1  12
TORSDOF 4
ENDMDL