MODEL 1
REMARK VINA RESULT: -8.086926165      0.000      0.000
REMARK  2 active torsions:
REMARK  status: ('A' for Active; 'I' for Inactive)
REMARK       I    between atoms: N1_1  and  C1_4
REMARK       I    between atoms: C1_4  and  N3_6
REMARK    1  A    between atoms: N3_6  and  C2_8
REMARK    2  A    between atoms: N7_21  and  O3_22
ROOT
HETATM    1  C2  UNL     1       0.401 -28.012  37.205  1.00  0.00     0.703 A
HETATM    2  N4  UNL     1       0.397 -29.357  37.137  1.00  0.00    -0.171 N
ATOM      3  H4  UNL     1       0.154 -29.906  37.961  1.00  0.00     0.186 HD
HETATM    4  C3  UNL     1       0.714 -29.980  35.984  1.00  0.00     0.172 A
HETATM    5  N5  UNL     1       0.712 -31.325  35.904  1.00  0.00    -0.301 N
ATOM      6  H5  UNL     1       0.469 -31.882  36.723  1.00  0.00     0.171 HD
HETATM    7  C4  UNL     1       1.029 -31.932  34.751  1.00  0.00     0.315 A
HETATM    8  O1  UNL     1       1.036 -33.199  34.649  1.00  0.00    -0.262 OA
HETATM    9  C5  UNL     1       1.362 -31.206  33.619  1.00  0.00     0.315 A
HETATM   10  O2  UNL     1       1.651 -31.799  32.559  1.00  0.00    -0.262 OA
HETATM   11  N6  UNL     1       1.367 -29.861  33.683  1.00  0.00    -0.299 N
ATOM     12  H6  UNL     1       1.609 -29.303  32.864  1.00  0.00     0.171 HD
HETATM   13  C6  UNL     1       1.048 -29.265  34.845  1.00  0.00     0.200 A
HETATM   14  N7  UNL     1       1.043 -27.924  34.945  1.00  0.00    -0.128 N
HETATM   15  N8  UNL     1       0.732 -27.330  36.079  1.00  0.00    -0.103 N
ATOM     16  H8  UNL     1       0.740 -26.310  36.113  1.00  0.00     0.208 HD
ENDROOT
BRANCH   1  17
HETATM   17  N3  UNL     1       0.118 -27.343  38.245  1.00  0.00    -0.162 N
HETATM   18  C1  UNL     1       0.993 -27.014  39.286  1.00  0.00     0.200 C
HETATM   19  N1  UNL     1       1.593 -27.901  40.027  1.00  0.00    -0.373 N
HETATM   20  N2  UNL     1       1.257 -25.657  39.571  1.00  0.00    -0.063 NA
ATOM     21  H12 UNL     1       2.231 -27.661  40.786  1.00  0.00     0.158 HD
ATOM     22  H11 UNL     1       1.402 -28.881  39.821  1.00  0.00     0.158 HD
ATOM     23  H3  UNL     1      -0.843 -27.012  38.331  1.00  0.00     0.187 HD
ENDBRANCH   1  17
BRANCH  14  24
HETATM   24  O3  UNL     1       1.347 -27.272  33.910  1.00  0.00    -0.266 OA
ATOM     25  H3  UNL     1       0.957 -26.411  33.813  1.00  0.00     0.247 HD
ENDBRANCH  14  24
TORSDOF 2
ENDMDL