MODEL 4
REMARK VINA RESULT: -7.574046234      0.350      1.966
REMARK  3 active torsions:
REMARK  status: ('A' for Active; 'I' for Inactive)
REMARK    1  A    between atoms: C4_7  and  C5_8
REMARK    2  A    between atoms: C5_8  and  C6_9
REMARK    3  A    between atoms: C7_10  and  O2_11
ROOT
HETATM    1  C6  UNL     1      -0.185 -29.402  35.341  1.00  0.00     0.085 A
HETATM    2  C7  UNL     1       0.729 -29.192  34.360  1.00  0.00     0.160 A
HETATM    3  N2  UNL     1       1.287 -30.216  33.700  1.00  0.00    -0.288 N
ATOM      4  H2  UNL     1       1.972 -30.042  32.965  1.00  0.00     0.172 HD
HETATM    5  C8  UNL     1       0.935 -31.480  34.019  1.00  0.00     0.329 A
HETATM    6  O3  UNL     1       1.468 -32.415  33.391  1.00  0.00    -0.247 OA
HETATM    7  N3  UNL     1       0.025 -31.709  34.996  1.00  0.00    -0.275 N
ATOM      8  H3  UNL     1      -0.231 -32.669  35.224  1.00  0.00     0.173 HD
HETATM    9  C9  UNL     1      -0.547 -30.703  35.668  1.00  0.00     0.264 A
HETATM   10  O4  UNL     1      -1.401 -30.897  36.587  1.00  0.00    -0.267 OA
ENDROOT
BRANCH   1  11
HETATM   11  C5  UNL     1      -0.819 -28.313  36.089  1.00  0.00     0.056 C
BRANCH  11  12
HETATM   12  C4  UNL     1      -0.116 -27.622  36.960  1.00  0.00     0.103 A
HETATM   13  C3  UNL     1       0.267 -26.299  36.913  1.00  0.00     0.273 A
HETATM   14  N1  UNL     1       0.971 -26.032  38.020  1.00  0.00    -0.308 N
HETATM   15  O1  UNL     1      -0.018 -25.498  35.960  1.00  0.00    -0.266 OA
HETATM   16  C2  UNL     1       1.052 -27.136  38.778  1.00  0.00     0.098 A
ATOM     17  H1  UNL     1       1.382 -25.129  38.252  1.00  0.00     0.170 HD
HETATM   18  C1  UNL     1       1.678 -27.253  39.958  1.00  0.00     0.063 C
HETATM   19  N4  UNL     1       0.391 -28.095  38.128  1.00  0.00    -0.339 N
ATOM     20  H4  UNL     1       0.282 -29.052  38.462  1.00  0.00     0.167 HD
ENDBRANCH  11  12
ENDBRANCH   1  11
BRANCH   2  21
HETATM   21  O2  UNL     1       1.065 -27.866  34.063  1.00  0.00    -0.345 OA
ATOM     22  H2  UNL     1       1.823 -27.497  34.500  1.00  0.00     0.219 HD
ENDBRANCH   2  21
TORSDOF 3
ENDMDL