MODEL 1
REMARK VINA RESULT: -6.370900023      0.000      0.000
REMARK  7 active torsions:
REMARK  status: ('A' for Active; 'I' for Inactive)
REMARK    1  A    between atoms: N1_1  and  N2_4
REMARK    2  A    between atoms: N2_4  and  C1_6
REMARK    3  A    between atoms: N5_10  and  O1_11
REMARK    4  A    between atoms: C2_13  and  C3_14
REMARK    5  A    between atoms: C4_15  and  C5_16
REMARK    6  A    between atoms: C5_16  and  S1_17
REMARK    7  A    between atoms: S1_17  and  N6_18
ROOT
HETATM    1  C1  UNL     1       2.459 -31.612  34.901  1.00  0.00     0.172 A
HETATM    2  N3  UNL     1       2.465 -32.814  35.502  1.00  0.00    -0.264 N
ATOM      3  H3  UNL     1       3.138 -33.560  35.324  1.00  0.00     0.186 HD
HETATM    4  N4  UNL     1       1.461 -32.877  36.359  1.00  0.00     0.009 NA
HETATM    5  N5  UNL     1       0.779 -31.737  36.346  1.00  0.00    -0.135 N
HETATM    6  C2  UNL     1       1.386 -30.938  35.444  1.00  0.00     0.178 A
ENDROOT
BRANCH   6   7
HETATM    7  C3  UNL     1       1.020 -29.601  35.072  1.00  0.00    -0.040 C
HETATM    8  C4  UNL     1       0.715 -28.475  34.778  1.00  0.00    -0.083 C
BRANCH   8   9
HETATM    9  C5  UNL     1       0.357 -27.101  34.439  1.00  0.00     0.256 C
BRANCH   9  10
HETATM   10  S1  UNL     1       0.488 -26.093  35.884  1.00  0.00     0.234 S
HETATM   11  O2  UNL     1      -0.526 -26.578  36.883  1.00  0.00    -0.205 OA
HETATM   12  O3  UNL     1       0.171 -24.667  35.469  1.00  0.00    -0.205 OA
BRANCH  10  13
HETATM   13  N6  UNL     1       2.056 -26.097  36.560  1.00  0.00    -0.328 N
ATOM     14  H62 UNL     1       2.519 -26.951  36.872  1.00  0.00     0.168 HD
ATOM     15  H61 UNL     1       2.468 -25.165  36.615  1.00  0.00     0.168 HD
ENDBRANCH  10  13
ENDBRANCH   9  10
ENDBRANCH   8   9
ENDBRANCH   6   7
BRANCH   1  16
HETATM   16  N2  UNL     1       3.294 -31.170  33.991  1.00  0.00    -0.289 N
ATOM     17  H2  UNL     1       4.245 -30.919  34.264  1.00  0.00     0.188 HD
BRANCH  16  18
HETATM   18  N1  UNL     1       2.911 -31.037  32.676  1.00  0.00    -0.344 N
ATOM     19  H12 UNL     1       2.006 -30.611  32.475  1.00  0.00     0.176 HD
ATOM     20  H11 UNL     1       3.513 -31.355  31.916  1.00  0.00     0.176 HD
ENDBRANCH  16  18
ENDBRANCH   1  16
BRANCH   5  21
HETATM   21  O1  UNL     1      -0.333 -31.412  37.096  1.00  0.00    -0.268 OA
ATOM     22  H1  UNL     1      -0.366 -31.193  38.020  1.00  0.00     0.246 HD
ENDBRANCH   5  21
TORSDOF 7
ENDMDL