MODEL 3
REMARK VINA RESULT: -6.939134329      1.980      2.104
REMARK  4 active torsions:
REMARK  status: ('A' for Active; 'I' for Inactive)
REMARK    1  A    between atoms: N1_1  and  C1_4
REMARK    2  A    between atoms: C3_10  and  N4_11
REMARK    3  A    between atoms: N4_11  and  C4_13
REMARK    4  A    between atoms: C4_13  and  C5_14
ROOT
HETATM    1  C5  UNL     1       0.350 -25.843  37.121  1.00  0.00    -0.056 C
HETATM    2  C6  UNL     1      -0.480 -25.020  37.413  1.00  0.00     0.053 C
HETATM    3  O1  UNL     1      -1.436 -24.102  37.746  1.00  0.00    -0.314 OA
ATOM      4  H1  UNL     1      -2.091 -23.453  37.977  1.00  0.00     0.230 HD
ENDROOT
BRANCH   1   5
HETATM    5  C4  UNL     1       1.365 -26.846  36.743  1.00  0.00     0.235 C
BRANCH   5   6
HETATM    6  N4  UNL     1       1.055 -28.149  37.214  1.00  0.00    -0.215 N
ATOM      7  H4  UNL     1       0.927 -28.251  38.221  1.00  0.00     0.178 HD
BRANCH   6   8
HETATM    8  C3  UNL     1       0.920 -29.204  36.515  1.00  0.00     0.683 A
HETATM    9  N3  UNL     1       1.434 -29.231  35.267  1.00  0.00    -0.174 N
HETATM   10  C2  UNL     1       1.324 -30.316  34.478  1.00  0.00     0.169 A
ATOM     11  H3  UNL     1       1.918 -28.407  34.911  1.00  0.00     0.186 HD
HETATM   12  N2  UNL     1       1.736 -30.592  33.232  1.00  0.00    -0.174 N
HETATM   13  C8  UNL     1       0.673 -31.445  34.937  1.00  0.00     0.162 A
HETATM   14  C1  UNL     1       1.369 -31.827  32.912  1.00  0.00     0.678 A
ATOM     15  H2  UNL     1       2.251 -29.953  32.625  1.00  0.00     0.186 HD
HETATM   16  N6  UNL     1       0.717 -32.353  33.955  1.00  0.00    -0.183 N
ATOM     17  H6  UNL     1       0.318 -33.291  33.995  1.00  0.00     0.184 HD
HETATM   18  C7  UNL     1       0.149 -31.419  36.211  1.00  0.00     0.290 A
HETATM   19  N5  UNL     1       0.286 -30.304  36.962  1.00  0.00    -0.154 N
HETATM   20  O2  UNL     1      -0.449 -32.441  36.643  1.00  0.00    -0.265 OA
ATOM     21  H5  UNL     1      -0.105 -30.295  37.904  1.00  0.00     0.187 HD
BRANCH  14  22
HETATM   22  N1  UNL     1       1.581 -32.445  31.809  1.00  0.00    -0.234 N
ATOM     23  H12 UNL     1       1.689 -31.985  30.905  1.00  0.00     0.174 HD
ATOM     24  H11 UNL     1       1.671 -33.451  31.666  1.00  0.00     0.174 HD
ENDBRANCH  14  22
ENDBRANCH   6   8
ENDBRANCH   5   6
ENDBRANCH   1   5
TORSDOF 4
ENDMDL