MODEL 4
REMARK VINA RESULT: -6.544659318      1.111      1.657
REMARK  4 active torsions:
REMARK  status: ('A' for Active; 'I' for Inactive)
REMARK    1  A    between atoms: N1_1  and  N2_4
REMARK    2  A    between atoms: C1_5  and  C2_6
REMARK    3  A    between atoms: N3_7  and  C3_9
REMARK    4  A    between atoms: N8_22  and  O2_23
ROOT
HETATM    1  C2  UNL     1      -0.113 -28.499  36.120  1.00  0.00     0.122 C
HETATM    2  N3  UNL     1       0.751 -27.581  36.295  1.00  0.00    -0.369 N
ATOM      3  H3  UNL     1       1.644 -27.635  35.806  1.00  0.00     0.164 HD
ENDROOT
BRANCH   1   4
HETATM    4  C1  UNL     1       0.148 -29.632  35.227  1.00  0.00     0.110 A
HETATM    5  N2  UNL     1       0.224 -30.941  35.543  1.00  0.00    -0.159 N
HETATM    6  N8  UNL     1       0.480 -31.635  34.421  1.00  0.00    -0.073 N
HETATM    7  N7  UNL     1       0.570 -30.801  33.399  1.00  0.00    -0.266 N
HETATM    8  C6  UNL     1       0.370 -29.555  33.860  1.00  0.00     0.146 A
ATOM      9  H7  UNL     1       0.758 -31.059  32.430  1.00  0.00     0.190 HD
BRANCH   5  10
HETATM   10  N1  UNL     1       0.061 -31.475  36.823  1.00  0.00    -0.320 N
ATOM     11  H12 UNL     1       0.334 -32.410  37.126  1.00  0.00     0.179 HD
ATOM     12  H11 UNL     1      -0.355 -30.988  37.617  1.00  0.00     0.179 HD
ENDBRANCH   5  10
BRANCH   6  13
HETATM   13  O2  UNL     1       0.616 -33.012  34.416  1.00  0.00    -0.252 OA
ATOM     14  H2  UNL     1       1.063 -33.476  33.718  1.00  0.00     0.248 HD
ENDBRANCH   6  13
ENDBRANCH   1   4
BRANCH   2  15
HETATM   15  C3  UNL     1       0.496 -26.495  37.153  1.00  0.00     0.138 C
HETATM   16  C4  UNL     1       0.793 -26.538  38.463  1.00  0.00     0.139 A
HETATM   17  N4  UNL     1       1.379 -27.617  39.172  1.00  0.00    -0.280 N
HETATM   18  N6  UNL     1       0.577 -25.500  39.411  1.00  0.00    -0.291 N
HETATM   19  N5  UNL     1       1.507 -27.235  40.501  1.00  0.00    -0.250 N
ATOM     20  H4  UNL     1       1.656 -28.515  38.776  1.00  0.00     0.188 HD
HETATM   21  C5  UNL     1       1.018 -25.914  40.699  1.00  0.00     0.340 A
ATOM     22  H5  UNL     1       1.900 -27.823  41.236  1.00  0.00     0.192 HD
HETATM   23  O1  UNL     1       0.970 -25.234  41.764  1.00  0.00    -0.245 OA
ATOM     24  H6  UNL     1       0.165 -24.592  39.199  1.00  0.00     0.172 HD
ENDBRANCH   2  15
TORSDOF 4
ENDMDL