MODEL 4
REMARK VINA RESULT: -6.278427391      2.716      3.790
REMARK  2 active torsions:
REMARK  status: ('A' for Active; 'I' for Inactive)
REMARK    1  A    between atoms: C4_9  and  C5_10
REMARK    2  A    between atoms: C7_12  and  O2_13
ROOT
HETATM    1  C5  UNL     1       1.051 -29.126  36.279  1.00  0.00     0.041 C
HETATM    2  C6  UNL     1       0.848 -27.697  36.220  1.00  0.00     0.084 A
HETATM    3  C7  UNL     1       0.706 -26.946  37.363  1.00  0.00     0.160 A
HETATM    4  N3  UNL     1       0.517 -25.617  37.332  1.00  0.00    -0.288 N
ATOM      5  H3  UNL     1       0.417 -25.101  38.205  1.00  0.00     0.172 HD
HETATM    6  C8  UNL     1       0.459 -24.965  36.167  1.00  0.00     0.329 A
HETATM    7  O3  UNL     1       0.278 -23.698  36.142  1.00  0.00    -0.247 OA
HETATM    8  N4  UNL     1       0.592 -25.653  35.030  1.00  0.00    -0.275 N
ATOM      9  H4  UNL     1       0.550 -25.162  34.137  1.00  0.00     0.173 HD
HETATM   10  C9  UNL     1       0.781 -26.980  35.049  1.00  0.00     0.263 A
HETATM   11  O4  UNL     1       0.911 -27.660  33.979  1.00  0.00    -0.267 OA
ENDROOT
BRANCH   1  12
HETATM   12  C4  UNL     1       0.081 -30.016  36.185  1.00  0.00     0.062 A
HETATM   13  C2  UNL     1       0.289 -31.376  36.248  1.00  0.00     0.054 A
HETATM   14  C1  UNL     1       1.438 -32.020  36.406  1.00  0.00     0.045 C
HETATM   15  N1  UNL     1      -0.914 -31.968  36.118  1.00  0.00    -0.298 N
HETATM   16  N2  UNL     1      -1.835 -31.061  35.980  1.00  0.00    -0.265 N
ATOM     17  H1  UNL     1      -1.077 -32.974  36.126  1.00  0.00     0.187 HD
HETATM   18  C3  UNL     1      -1.270 -29.827  36.015  1.00  0.00     0.272 A
ATOM     19  H2  UNL     1      -2.831 -31.248  35.864  1.00  0.00     0.190 HD
HETATM   20  O1  UNL     1      -1.843 -28.713  35.914  1.00  0.00    -0.266 OA
ENDBRANCH   1  12
BRANCH   3  21
HETATM   21  O2  UNL     1       0.763 -27.606  38.593  1.00  0.00    -0.345 OA
ATOM     22  H2  UNL     1       1.217 -28.440  38.630  1.00  0.00     0.219 HD
ENDBRANCH   3  21
TORSDOF 2
ENDMDL