MODEL 5
REMARK VINA RESULT: -6.829578059      2.460      3.905
REMARK  2 active torsions:
REMARK  status: ('A' for Active; 'I' for Inactive)
REMARK    1  A    between atoms: C4_8  and  C5_9
REMARK    2  A    between atoms: C6_10  and  O1_11
ROOT
HETATM    1  C5  UNL     1       0.061 -28.837  34.911  1.00  0.00     0.085 A
HETATM    2  C6  UNL     1       0.796 -29.952  34.559  1.00  0.00     0.160 A
HETATM    3  N3  UNL     1       0.631 -31.131  35.219  1.00  0.00    -0.288 N
ATOM      4  H3  UNL     1       1.183 -31.943  34.944  1.00  0.00     0.172 HD
HETATM    5  C7  UNL     1      -0.253 -31.238  36.231  1.00  0.00     0.329 A
HETATM    6  O2  UNL     1      -0.428 -32.325  36.865  1.00  0.00    -0.247 OA
HETATM    7  N4  UNL     1      -0.982 -30.163  36.594  1.00  0.00    -0.275 N
ATOM      8  H4  UNL     1      -1.650 -30.241  37.360  1.00  0.00     0.173 HD
HETATM    9  C8  UNL     1      -0.834 -28.981  35.951  1.00  0.00     0.264 A
HETATM   10  O3  UNL     1      -1.518 -27.970  36.289  1.00  0.00    -0.267 OA
ENDROOT
BRANCH   1  11
HETATM   11  C4  UNL     1       0.210 -27.544  34.222  1.00  0.00     0.056 C
HETATM   12  C3  UNL     1       1.024 -26.608  34.664  1.00  0.00     0.101 A
HETATM   13  N2  UNL     1       1.211 -25.407  34.092  1.00  0.00    -0.296 N
HETATM   14  C9  UNL     1       1.848 -26.620  35.767  1.00  0.00     0.227 A
HETATM   15  N1  UNL     1       2.105 -24.707  34.800  1.00  0.00    -0.297 N
ATOM     16  H2  UNL     1       0.743 -25.079  33.248  1.00  0.00     0.187 HD
HETATM   17  C2  UNL     1       2.529 -25.422  35.853  1.00  0.00     0.091 A
ATOM     18  H1  UNL     1       2.419 -23.764  34.572  1.00  0.00     0.187 HD
HETATM   19  C1  UNL     1       3.409 -25.032  36.756  1.00  0.00     0.049 C
HETATM   20  O4  UNL     1       1.967 -27.576  36.581  1.00  0.00    -0.283 OA
ENDBRANCH   1  11
BRANCH   2  21
HETATM   21  O1  UNL     1       1.708 -29.840  33.514  1.00  0.00    -0.345 OA
ATOM     22  H1  UNL     1       1.712 -30.513  32.844  1.00  0.00     0.219 HD
ENDBRANCH   2  21
TORSDOF 2
ENDMDL