MODEL 4
REMARK VINA RESULT: -7.131957895      1.921      5.976
REMARK  2 active torsions:
REMARK  status: ('A' for Active; 'I' for Inactive)
REMARK    1  A    between atoms: C4_6  and  C5_7
REMARK    2  A    between atoms: C7_14  and  O2_15
ROOT
HETATM    1  C1  UNL     1       1.793 -32.309  36.677  1.00  0.00     0.047 C
HETATM    2  C2  UNL     1       1.352 -31.448  35.772  1.00  0.00     0.080 A
HETATM    3  N1  UNL     1       1.282 -30.130  36.002  1.00  0.00    -0.340 N
ATOM      4  H1  UNL     1       1.581 -29.781  36.913  1.00  0.00     0.167 HD
HETATM    5  C3  UNL     1       0.835 -29.236  35.088  1.00  0.00     0.110 A
HETATM    6  C4  UNL     1       0.783 -27.939  35.362  1.00  0.00     0.082 C
HETATM    7  N4  UNL     1       0.438 -29.687  33.884  1.00  0.00    -0.306 N
ATOM      8  H4  UNL     1       0.101 -29.016  33.194  1.00  0.00     0.170 HD
HETATM    9  C8  UNL     1       0.470 -30.991  33.557  1.00  0.00     0.299 A
HETATM   10  O3  UNL     1       0.087 -31.384  32.408  1.00  0.00    -0.264 OA
HETATM   11  C9  UNL     1       0.932 -31.871  34.512  1.00  0.00     0.265 A
HETATM   12  O4  UNL     1       0.958 -33.088  34.198  1.00  0.00    -0.280 OA
ENDROOT
BRANCH   6  13
HETATM   13  C5  UNL     1       1.207 -27.427  36.659  1.00  0.00     0.091 A
HETATM   14  N2  UNL     1       0.543 -27.561  37.818  1.00  0.00    -0.305 N
HETATM   15  C6  UNL     1       1.235 -26.962  38.804  1.00  0.00     0.326 A
ATOM     16  H2  UNL     1      -0.349 -28.042  37.933  1.00  0.00     0.171 HD
HETATM   17  O1  UNL     1       0.944 -26.869  40.035  1.00  0.00    -0.247 OA
HETATM   18  N3  UNL     1       2.356 -26.439  38.279  1.00  0.00    -0.287 N
HETATM   19  C7  UNL     1       2.347 -26.721  36.954  1.00  0.00     0.171 A
ATOM     20  H3  UNL     1       3.078 -25.925  38.784  1.00  0.00     0.172 HD
BRANCH  19  21
HETATM   21  O2  UNL     1       3.343 -26.350  36.037  1.00  0.00    -0.344 OA
ATOM     22  H2  UNL     1       3.980 -25.656  36.159  1.00  0.00     0.219 HD
ENDBRANCH  19  21
ENDBRANCH   6  13
TORSDOF 2
ENDMDL