MODEL 4
REMARK VINA RESULT: -6.082387113      1.773      2.258
REMARK  2 active torsions:
REMARK  status: ('A' for Active; 'I' for Inactive)
REMARK    1  A    between atoms: N1_1  and  C1_5
REMARK    2  A    between atoms: C7_17  and  C8_18
ROOT
HETATM    1  C1  UNL     1      -0.358 -31.243  36.951  1.00  0.00     0.243 A
HETATM    2  C2  UNL     1      -0.020 -32.357  36.046  1.00  0.00     0.041 A
HETATM    3  C3  UNL     1       0.577 -31.896  34.938  1.00  0.00     0.051 A
HETATM    4  N2  UNL     1       1.044 -32.555  33.863  1.00  0.00    -0.308 N
ATOM      5  H2  UNL     1       0.972 -33.570  33.804  1.00  0.00     0.170 HD
HETATM    6  C4  UNL     1       1.606 -31.854  32.877  1.00  0.00     0.327 A
HETATM    7  O1  UNL     1       2.066 -32.426  31.834  1.00  0.00    -0.247 OA
HETATM    8  N3  UNL     1       1.689 -30.513  32.979  1.00  0.00    -0.275 N
ATOM      9  H3  UNL     1       2.121 -29.993  32.216  1.00  0.00     0.173 HD
HETATM   10  C5  UNL     1       1.234 -29.836  34.031  1.00  0.00     0.262 A
HETATM   11  O2  UNL     1       1.319 -28.568  34.117  1.00  0.00    -0.267 OA
HETATM   12  C6  UNL     1       0.648 -30.539  35.068  1.00  0.00     0.068 A
HETATM   13  C7  UNL     1       0.140 -30.079  36.184  1.00  0.00     0.005 A
ENDROOT
BRANCH  13  14
HETATM   14  C8  UNL     1       0.042 -28.700  36.659  1.00  0.00    -0.010 A
HETATM   15  C9  UNL     1       1.016 -28.088  37.420  1.00  0.00     0.030 A
HETATM   16  C10 UNL     1       0.597 -26.808  37.685  1.00  0.00     0.088 A
HETATM   17  N4  UNL     1      -0.585 -26.644  37.108  1.00  0.00    -0.374 N
HETATM   18  C11 UNL     1      -0.950 -27.778  36.476  1.00  0.00     0.099 A
ATOM     19  H4  UNL     1      -1.137 -25.787  37.138  1.00  0.00     0.164 HD
ENDBRANCH  13  14
BRANCH   1  20
HETATM   20  N1  UNL     1      -1.784 -31.142  37.182  1.00  0.00    -0.068 N
ATOM     21  H13 UNL     1      -2.310 -31.650  36.471  1.00  0.00     0.275 HD
ATOM     22  H12 UNL     1      -2.064 -31.677  38.004  1.00  0.00     0.275 HD
ATOM     23  H11 UNL     1      -2.094 -30.172  37.249  1.00  0.00     0.275 HD
ENDBRANCH   1  20
TORSDOF 2
ENDMDL