MODEL 2
REMARK VINA RESULT: -7.957905422      0.767      1.458
REMARK  3 active torsions:
REMARK  status: ('A' for Active; 'I' for Inactive)
REMARK    1  A    between atoms: O1_2  and  C2_3
REMARK    2  A    between atoms: N1_11  and  C10_12
REMARK    3  A    between atoms: C10_12  and  C11_13
ROOT
HETATM    1  C2  UNL     1      19.345  -6.506   3.638  1.00  0.00     0.120 C
HETATM    2  C3  UNL     1      19.934  -6.135   4.951  1.00  0.00     0.034 C
HETATM    3  C4  UNL     1      19.333  -4.810   5.366  1.00  0.00     0.033 C
HETATM    4  C5  UNL     1      17.936  -5.128   5.877  1.00  0.00     0.034 C
HETATM    5  C6  UNL     1      17.205  -6.030   4.906  1.00  0.00     0.033 C
HETATM    6  C7  UNL     1      17.911  -6.129   3.579  1.00  0.00     0.034 C
HETATM    7  C8  UNL     1      17.174  -3.858   6.141  1.00  0.00     0.051 C
HETATM    8  C9  UNL     1      15.963  -4.126   7.025  1.00  0.00     0.128 C
HETATM    9  N1  UNL     1      16.321  -4.816   8.217  1.00  0.00    -0.355 N
HETATM   10  C18 UNL     1      17.426  -5.753   8.159  1.00  0.00     0.186 C
HETATM   11  N2  UNL     1      17.760  -6.566   9.278  1.00  0.00    -0.064 NA
HETATM   12  N3  UNL     1      18.094  -5.844   7.108  1.00  0.00    -0.355 N
ATOM     13  H3  UNL     1      18.857  -6.521   7.130  1.00  0.00     0.163 HD
ENDROOT
BRANCH   9  14
HETATM   14  C10 UNL     1      15.702  -4.657   9.473  1.00  0.00     0.130 C
BRANCH  14  15
HETATM   15  C11 UNL     1      14.456  -3.883   9.568  1.00  0.00     0.004 C
HETATM   16  C12 UNL     1      13.795  -3.948  10.891  1.00  0.00     0.006 C
HETATM   17  C13 UNL     1      12.683  -2.911  11.030  1.00  0.00     0.000 C
HETATM   18  C14 UNL     1      13.169  -1.562  11.431  1.00  0.00     0.000 C
HETATM   19  C15 UNL     1      14.647  -1.441  11.548  1.00  0.00     0.000 C
HETATM   20  C16 UNL     1      15.392  -1.705  10.279  1.00  0.00     0.000 C
HETATM   21  C17 UNL     1      14.635  -2.413   9.221  1.00  0.00     0.006 C
ENDBRANCH  14  15
ENDBRANCH   9  14
BRANCH   1  22
HETATM   22  O1  UNL     1      19.591  -7.823   3.271  1.00  0.00    -0.391 OA
HETATM   23  C1  UNL     1      20.902  -8.212   3.393  1.00  0.00     0.202 C
ENDBRANCH   1  22
TORSDOF 3
ENDMDL