MODEL 2
REMARK VINA RESULT: -6.564273345      1.965      2.398
REMARK  3 active torsions:
REMARK  status: ('A' for Active; 'I' for Inactive)
REMARK    1  A    between atoms: C5_5  and  C6_6
REMARK    2  A    between atoms: C6_6  and  C9_10
REMARK    3  A    between atoms: C10_13  and  C11_14
ROOT
HETATM    1  C6  UNL     1      14.640  -4.145   4.339  1.00  0.00     0.033 C
HETATM    2  C7  UNL     1      14.225  -4.706   3.242  1.00  0.00     0.108 C
HETATM    3  C8  UNL     1      14.074  -4.025   1.972  1.00  0.00     0.088 C
HETATM    4  N1  UNL     1      13.942  -3.496   0.930  1.00  0.00    -0.192 NA
ENDROOT
BRANCH   1   5
HETATM    5  C5  UNL     1      14.764  -4.928   5.593  1.00  0.00     0.030 C
HETATM    6  C4  UNL     1      15.178  -6.309   5.153  1.00  0.00     0.010 C
HETATM    7  C3  UNL     1      16.636  -6.597   5.128  1.00  0.00     0.005 C
HETATM    8  C2  UNL     1      17.480  -6.008   6.180  1.00  0.00    -0.018 C
HETATM    9  C1  UNL     1      18.897  -5.881   5.594  1.00  0.00     0.010 C
HETATM   10  C18 UNL     1      17.072  -4.668   6.658  1.00  0.00     0.010 C
HETATM   11  C10 UNL     1      15.641  -4.342   6.621  1.00  0.00    -0.001 C
BRANCH  11  12
HETATM   12  C11 UNL     1      14.950  -4.568   7.976  1.00  0.00     0.001 C
HETATM   13  C12 UNL     1      15.082  -5.937   8.516  1.00  0.00     0.083 C
HETATM   14  C13 UNL     1      14.864  -5.968  10.016  1.00  0.00     0.127 C
HETATM   15  O3  UNL     1      15.399  -6.783  10.729  1.00  0.00    -0.298 OA
HETATM   16  C14 UNL     1      13.960  -4.950  10.568  1.00  0.00     0.079 C
HETATM   17  C15 UNL     1      14.284  -3.578  10.099  1.00  0.00     0.012 C
HETATM   18  C16 UNL     1      15.350  -3.559   8.996  1.00  0.00    -0.013 C
HETATM   19  C17 UNL     1      15.331  -2.143   8.461  1.00  0.00     0.010 C
ENDBRANCH  11  12
ENDBRANCH   1   5
BRANCH   1  20
HETATM   20  C9  UNL     1      15.043  -2.751   4.323  1.00  0.00     0.206 C
HETATM   21  O1  UNL     1      14.245  -1.847   4.665  1.00  0.00    -0.644 OA
HETATM   22  O2  UNL     1      16.312  -2.397   3.923  1.00  0.00    -0.644 OA
ENDBRANCH   1  20
TORSDOF 3
ENDMDL