MODEL 2
REMARK VINA RESULT: -7.213779766      0.378      1.029
REMARK  4 active torsions:
REMARK  status: ('A' for Active; 'I' for Inactive)
REMARK    1  A    between atoms: C2_2  and  C3_3
REMARK    2  A    between atoms: C3_3  and  C4_4
REMARK    3  A    between atoms: C4_4  and  N1_5
REMARK    4  A    between atoms: C10_14  and  C11_15
ROOT
HETATM    1  C4  UNL     1      17.557  -6.048   4.879  1.00  0.00     0.136 C
HETATM    2  C5  UNL     1      18.098  -5.712   6.225  1.00  0.00     0.041 C
HETATM    3  C6  UNL     1      17.075  -5.716   7.334  1.00  0.00     0.028 C
HETATM    4  C7  UNL     1      16.013  -4.678   7.217  1.00  0.00     0.064 C
HETATM    5  C8  UNL     1      16.521  -3.273   7.421  1.00  0.00     0.026 C
HETATM    6  C9  UNL     1      15.409  -2.431   8.053  1.00  0.00     0.007 C
HETATM    7  C10 UNL     1      15.372  -2.837   9.521  1.00  0.00    -0.007 C
HETATM    8  C15 UNL     1      15.238  -4.317   9.580  1.00  0.00     0.007 C
HETATM    9  C16 UNL     1      14.957  -4.961   8.256  1.00  0.00     0.026 C
HETATM   10  S1  UNL     1      15.290  -4.718   5.571  1.00  0.00     0.155 S
HETATM   11  O1  UNL     1      14.620  -3.413   5.250  1.00  0.00    -0.227 OA
HETATM   12  O2  UNL     1      14.271  -5.811   5.466  1.00  0.00    -0.227 OA
HETATM   13  C17 UNL     1      16.625  -4.931   4.444  1.00  0.00     0.179 C
ENDROOT
BRANCH   1  14
HETATM   14  C3  UNL     1      18.678  -6.055   3.868  1.00  0.00     0.039 C
BRANCH  14  15
HETATM   15  C2  UNL     1      18.958  -7.452   3.396  1.00  0.00    -0.002 C
HETATM   16  C1  UNL     1      20.424  -7.827   3.675  1.00  0.00     0.005 C
ENDBRANCH  14  15
ENDBRANCH   1  14
BRANCH   1  17
HETATM   17  N1  UNL     1      16.905  -7.338   4.801  1.00  0.00    -0.070 N
ATOM     18  H13 UNL     1      16.426  -7.492   3.914  1.00  0.00     0.275 HD
ATOM     19  H12 UNL     1      17.562  -8.115   4.730  1.00  0.00     0.275 HD
ATOM     20  H11 UNL     1      16.285  -7.411   5.608  1.00  0.00     0.275 HD
ENDBRANCH   1  17
BRANCH   7  21
HETATM   21  C11 UNL     1      14.330  -2.084  10.289  1.00  0.00    -0.048 C
HETATM   22  C12 UNL     1      13.519  -3.113  11.075  1.00  0.00     0.015 C
HETATM   23  C13 UNL     1      14.855  -1.083  11.246  1.00  0.00     0.015 C
HETATM   24  C14 UNL     1      13.385  -1.451   9.302  1.00  0.00     0.015 C
ENDBRANCH   7  21
TORSDOF 4
ENDMDL