MODEL 5
REMARK VINA RESULT: -5.923337056      2.953      4.592
REMARK  3 active torsions:
REMARK  status: ('A' for Active; 'I' for Inactive)
REMARK    1  A    between atoms: C2_2  and  C3_3
REMARK    2  A    between atoms: C3_3  and  O1_4
REMARK    3  A    between atoms: C15_19  and  C17_21
ROOT
HETATM    1  C3  UNL     1      14.408   0.027   5.129  1.00  0.00     0.079 C
HETATM    2  C4  UNL     1      14.206  -0.733   6.386  1.00  0.00     0.052 C
HETATM    3  C5  UNL     1      15.213  -1.727   6.786  1.00  0.00    -0.029 A
HETATM    4  C6  UNL     1      15.154  -2.008   8.307  1.00  0.00     0.016 C
HETATM    5  C7  UNL     1      16.580  -1.804   6.247  1.00  0.00     0.023 A
HETATM    6  C8  UNL     1      15.508  -2.865   5.962  1.00  0.00     0.004 A
HETATM    7  C9  UNL     1      15.098  -2.951   4.566  1.00  0.00     0.170 C
HETATM    8  C10 UNL     1      13.901  -2.161   4.140  1.00  0.00     0.043 C
HETATM    9  C11 UNL     1      14.370  -0.752   3.873  1.00  0.00     0.022 C
HETATM   10  C12 UNL     1      13.541  -0.095   2.775  1.00  0.00     0.013 C
HETATM   11  O2  UNL     1      14.860  -4.279   4.135  1.00  0.00    -0.234 OA
HETATM   12  O3  UNL     1      13.950  -4.731   5.006  1.00  0.00    -0.235 OA
HETATM   13  C13 UNL     1      14.721  -5.209   6.082  1.00  0.00     0.166 C
HETATM   14  C14 UNL     1      15.883  -6.000   5.512  1.00  0.00     0.045 C
HETATM   15  C15 UNL     1      16.805  -5.073   6.289  1.00  0.00    -0.035 C
HETATM   16  C16 UNL     1      17.345  -5.865   7.494  1.00  0.00     0.016 C
HETATM   17  C19 UNL     1      15.684  -4.207   6.614  1.00  0.00     0.038 C
ENDROOT
BRANCH   1  18
HETATM   18  C2  UNL     1      13.260   1.011   5.048  1.00  0.00     0.001 C
HETATM   19  C1  UNL     1      13.364   2.244   5.471  1.00  0.00     0.010 C
ENDBRANCH   1  18
BRANCH   1  20
HETATM   20  O1  UNL     1      15.550   0.813   5.266  1.00  0.00    -0.385 OA
ATOM     21  H1  UNL     1      15.850   0.969   4.377  1.00  0.00     0.211 HD
ENDBRANCH   1  20
BRANCH  15  22
HETATM   22  C17 UNL     1      17.935  -4.628   5.451  1.00  0.00     0.005 C
HETATM   23  C18 UNL     1      19.182  -5.475   5.750  1.00  0.00     0.006 C
ENDBRANCH  15  22
TORSDOF 3
ENDMDL