MODEL 2
REMARK VINA RESULT: -8.014972610      0.973      1.127
REMARK  3 active torsions:
REMARK  status: ('A' for Active; 'I' for Inactive)
REMARK    1  A    between atoms: C10_10  and  C11_11
REMARK    2  A    between atoms: C11_11  and  C12_13
REMARK    3  A    between atoms: C12_13  and  C13_14
ROOT
HETATM    1  C11 UNL     1      16.074  -4.959   8.034  1.00  0.00     0.138 C
HETATM    2  O1  UNL     1      16.949  -5.247   8.815  1.00  0.00    -0.297 OA
ENDROOT
BRANCH   1   3
HETATM    3  C10 UNL     1      16.247  -5.237   6.594  1.00  0.00     0.025 C
HETATM    4  C2  UNL     1      17.118  -4.214   5.906  1.00  0.00     0.001 C
HETATM    5  C1  UNL     1      16.658  -2.803   6.155  1.00  0.00     0.011 C
HETATM    6  C3  UNL     1      17.183  -4.536   4.451  1.00  0.00    -0.009 C
HETATM    7  C4  UNL     1      17.881  -5.854   4.243  1.00  0.00     0.010 C
HETATM    8  C8  UNL     1      15.802  -4.520   3.858  1.00  0.00     0.010 C
HETATM    9  C5  UNL     1      17.066  -6.910   4.970  1.00  0.00    -0.013 C
HETATM   10  C6  UNL     1      15.717  -6.965   4.291  1.00  0.00     0.009 C
HETATM   11  C19 UNL     1      16.969  -6.582   6.423  1.00  0.00     0.022 C
HETATM   12  C7  UNL     1      15.009  -5.635   4.479  1.00  0.00    -0.013 C
HETATM   13  C9  UNL     1      14.906  -5.388   5.958  1.00  0.00     0.022 C
ENDBRANCH   1   3
BRANCH   1  14
HETATM   14  C12 UNL     1      14.829  -4.333   8.493  1.00  0.00     0.119 C
BRANCH  14  15
HETATM   15  C13 UNL     1      14.792  -4.097   9.986  1.00  0.00     0.199 C
HETATM   16  O2  UNL     1      13.908  -2.993  10.169  1.00  0.00    -0.291 OA
HETATM   17  N1  UNL     1      13.175  -3.320  11.204  1.00  0.00    -0.186 NA
HETATM   18  C14 UNL     1      11.916  -2.723  11.414  1.00  0.00     0.121 C
HETATM   19  C17 UNL     1      12.744  -4.690  10.831  1.00  0.00     0.134 C
HETATM   20  C15 UNL     1      11.265  -3.762  12.348  1.00  0.00     0.019 C
HETATM   21  C16 UNL     1      12.046  -5.064  12.085  1.00  0.00     0.029 C
HETATM   22  C18 UNL     1      14.069  -5.241  10.592  1.00  0.00     0.032 C
HETATM   23  N2  UNL     1      14.486  -6.396  10.840  1.00  0.00    -0.402 N
ATOM     24  H22 UNL     1      15.414  -6.782  10.673  1.00  0.00     0.155 HD
ATOM     25  H21 UNL     1      13.989  -7.184  11.257  1.00  0.00     0.155 HD
ENDBRANCH  14  15
ENDBRANCH   1  14
TORSDOF 3
ENDMDL