MODEL 1
REMARK VINA RESULT: -5.909805639      0.000      0.000
REMARK  3 active torsions:
REMARK  status: ('A' for Active; 'I' for Inactive)
REMARK    1  A    between atoms: C2_2  and  C4_4
REMARK    2  A    between atoms: C14_14  and  C15_15
REMARK    3  A    between atoms: C16_18  and  C17_19
ROOT
HETATM    1  C4  UNL     1      16.668  -4.741   3.701  1.00  0.00    -0.065 C
HETATM    2  C5  UNL     1      16.566  -3.257   3.463  1.00  0.00     0.036 C
HETATM    3  C6  UNL     1      15.833  -2.425   4.410  1.00  0.00     0.009 C
HETATM    4  C7  UNL     1      16.225  -2.668   5.866  1.00  0.00    -0.006 C
HETATM    5  C8  UNL     1      17.688  -2.934   5.901  1.00  0.00     0.006 C
HETATM    6  C9  UNL     1      18.126  -4.282   5.485  1.00  0.00     0.015 C
HETATM    7  C10 UNL     1      16.934  -5.205   5.056  1.00  0.00    -0.006 C
HETATM    8  C11 UNL     1      17.630  -6.568   4.976  1.00  0.00     0.021 C
HETATM    9  C12 UNL     1      15.940  -5.171   6.132  1.00  0.00     0.026 C
HETATM   10  C13 UNL     1      14.692  -6.010   5.936  1.00  0.00     0.024 C
HETATM   11  C14 UNL     1      16.368  -5.379   7.529  1.00  0.00     0.095 C
HETATM   12  O2  UNL     1      16.494  -4.097   8.145  1.00  0.00    -0.335 OA
HETATM   13  C16 UNL     1      15.187  -3.667   7.807  1.00  0.00     0.234 C
HETATM   14  C18 UNL     1      15.345  -3.760   6.292  1.00  0.00     0.045 C
ENDROOT
BRANCH   1  15
HETATM   15  C2  UNL     1      15.989  -5.544   2.671  1.00  0.00    -0.068 C
HETATM   16  C1  UNL     1      14.739  -5.879   2.516  1.00  0.00     0.018 C
HETATM   17  C3  UNL     1      16.853  -6.113   1.540  1.00  0.00     0.047 C
ENDBRANCH   1  15
BRANCH  11  18
HETATM   18  C15 UNL     1      17.398  -6.287   7.920  1.00  0.00     0.291 C
HETATM   19  O1  UNL     1      17.692  -6.393   9.125  1.00  0.00    -0.300 OA
ENDBRANCH  11  18
BRANCH  13  20
HETATM   20  C17 UNL     1      14.916  -2.310   8.259  1.00  0.00     0.204 C
HETATM   21  O3  UNL     1      15.615  -1.735   9.121  1.00  0.00    -0.646 OA
HETATM   22  O4  UNL     1      13.843  -1.623   7.718  1.00  0.00    -0.646 OA
ENDBRANCH  13  20
TORSDOF 3
ENDMDL