MODEL 1
REMARK VINA RESULT: -7.625408188      0.000      0.000
REMARK  4 active torsions:
REMARK  status: ('A' for Active; 'I' for Inactive)
REMARK    1  A    between atoms: C4_4  and  C5_5
REMARK    2  A    between atoms: C5_5  and  O2_7
REMARK    3  A    between atoms: O2_7  and  C6_8
REMARK       I    between atoms: C6_8  and  N1_10
REMARK    4  A    between atoms: N1_10  and  C7_12
ROOT
HETATM    1  C5  UNL     1      16.375  -5.302   6.449  1.00  0.00     0.277 C
HETATM    2  O1  UNL     1      15.260  -5.801   6.605  1.00  0.00    -0.264 OA
ENDROOT
BRANCH   1   3
HETATM    3  C4  UNL     1      17.227  -5.279   5.266  1.00  0.00     0.060 C
HETATM    4  C3  UNL     1      17.983  -3.931   5.346  1.00  0.00     0.054 C
HETATM    5  C2  UNL     1      16.677  -3.413   4.796  1.00  0.00    -0.083 C
HETATM    6  C1  UNL     1      15.938  -2.359   5.000  1.00  0.00     0.015 C
HETATM    7  C19 UNL     1      16.723  -4.633   4.002  1.00  0.00     0.033 C
HETATM    8  C18 UNL     1      15.557  -5.256   3.401  1.00  0.00     0.015 C
HETATM    9  C16 UNL     1      15.871  -6.606   2.849  1.00  0.00    -0.013 C
HETATM   10  C15 UNL     1      16.016  -7.685   3.914  1.00  0.00     0.009 C
HETATM   11  C17 UNL     1      17.295  -6.887   2.522  1.00  0.00     0.009 C
HETATM   12  C14 UNL     1      17.468  -7.408   3.919  1.00  0.00    -0.013 C
HETATM   13  C13 UNL     1      18.000  -6.461   4.914  1.00  0.00     0.025 C
ENDBRANCH   1   3
BRANCH   1  14
HETATM   14  O2  UNL     1      16.896  -4.658   7.595  1.00  0.00    -0.227 OA
BRANCH  14  15
HETATM   15  C6  UNL     1      16.325  -4.834   8.848  1.00  0.00     0.368 C
HETATM   16  O3  UNL     1      16.782  -5.688   9.653  1.00  0.00    -0.238 OA
HETATM   17  N1  UNL     1      15.204  -4.066   9.284  1.00  0.00    -0.332 N
ATOM     18  H1  UNL     1      14.823  -3.371   8.642  1.00  0.00     0.165 HD
BRANCH  17  19
HETATM   19  C7  UNL     1      14.585  -4.209  10.557  1.00  0.00     0.086 C
HETATM   20  C8  UNL     1      14.037  -2.935  11.120  1.00  0.00     0.025 C
HETATM   21  C9  UNL     1      12.528  -2.859  11.092  1.00  0.00     0.002 C
HETATM   22  C10 UNL     1      11.889  -4.019  11.822  1.00  0.00     0.000 C
HETATM   23  C11 UNL     1      12.810  -5.217  11.889  1.00  0.00     0.002 C
HETATM   24  C12 UNL     1      13.552  -5.331  10.574  1.00  0.00     0.025 C
ENDBRANCH  17  19
ENDBRANCH  14  15
ENDBRANCH   1  14
TORSDOF 4
ENDMDL