MODEL 1
REMARK VINA RESULT: -6.751957662      0.000      0.000
REMARK  7 active torsions:
REMARK  status: ('A' for Active; 'I' for Inactive)
REMARK    1  A    between atoms: C2_2  and  C5_5
REMARK    2  A    between atoms: C5_5  and  C6_6
REMARK    3  A    between atoms: C6_6  and  N1_8
REMARK    4  A    between atoms: N1_8  and  C7_10
REMARK    5  A    between atoms: C10_13  and  O1_14
REMARK    6  A    between atoms: O1_14  and  C11_15
REMARK    7  A    between atoms: C11_15  and  C12_17
ROOT
HETATM    1  C7  UNL     1      15.568  -4.827   8.262  1.00  0.00     0.082 C
HETATM    2  C8  UNL     1      16.451  -5.939   8.767  1.00  0.00     0.028 C
HETATM    3  C9  UNL     1      17.710  -6.112   7.999  1.00  0.00     0.034 C
HETATM    4  C10 UNL     1      17.531  -5.758   6.561  1.00  0.00     0.132 C
HETATM    5  C16 UNL     1      16.095  -6.050   6.184  1.00  0.00     0.034 C
HETATM    6  C17 UNL     1      15.274  -4.911   6.809  1.00  0.00     0.028 C
ENDROOT
BRANCH   1   7
HETATM    7  N1  UNL     1      14.309  -4.781   8.994  1.00  0.00    -0.380 N
ATOM      8  H1  UNL     1      13.448  -5.059   8.523  1.00  0.00     0.160 HD
BRANCH   7   9
HETATM    9  C6  UNL     1      14.256  -4.359  10.343  1.00  0.00     0.074 C
HETATM   10  S1  UNL     1      13.413  -5.247  11.437  1.00  0.00    -0.066 SA
BRANCH   9  11
HETATM   11  C5  UNL     1      14.939  -3.136  10.780  1.00  0.00     0.077 C
BRANCH  11  12
HETATM   12  C2  UNL     1      14.200  -1.859  10.545  1.00  0.00    -0.045 C
HETATM   13  C1  UNL     1      12.800  -1.889  11.145  1.00  0.00     0.015 C
HETATM   14  C3  UNL     1      14.956  -0.780  11.347  1.00  0.00     0.015 C
HETATM   15  C4  UNL     1      14.192  -1.384   9.117  1.00  0.00     0.015 C
ENDBRANCH  11  12
ENDBRANCH   9  11
ENDBRANCH   7   9
ENDBRANCH   1   7
BRANCH   4  16
HETATM   16  O1  UNL     1      18.428  -6.435   5.706  1.00  0.00    -0.315 OA
BRANCH  16  17
HETATM   17  C11 UNL     1      19.457  -5.785   5.041  1.00  0.00     0.267 C
HETATM   18  O2  UNL     1      19.710  -4.611   5.393  1.00  0.00    -0.264 OA
BRANCH  17  19
HETATM   19  C12 UNL     1      20.249  -6.403   3.958  1.00  0.00     0.037 C
HETATM   20  C13 UNL     1      20.853  -5.349   3.043  1.00  0.00     0.025 C
HETATM   21  C14 UNL     1      19.340  -7.313   3.166  1.00  0.00     0.025 C
HETATM   22  C15 UNL     1      21.349  -7.284   4.537  1.00  0.00     0.025 C
ENDBRANCH  17  19
ENDBRANCH  16  17
ENDBRANCH   4  16
TORSDOF 7
ENDMDL