MODEL 3
REMARK VINA RESULT: -6.406244633      2.260      6.186
REMARK  3 active torsions:
REMARK  status: ('A' for Active; 'I' for Inactive)
REMARK    1  A    between atoms: C2_2  and  C4_4
REMARK    2  A    between atoms: C4_4  and  O1_5
REMARK    3  A    between atoms: C19_22  and  O3_23
ROOT
HETATM    1  C4  UNL     1       0.141  -0.432  -7.226  1.00  0.00     0.087 C
HETATM    2  C5  UNL     1       1.445  -0.096  -6.528  1.00  0.00     0.048 C
HETATM    3  C6  UNL     1       2.107   0.927  -7.398  1.00  0.00     0.022 C
HETATM    4  C7  UNL     1       2.642   0.173  -8.626  1.00  0.00    -0.005 C
HETATM    5  C8  UNL     1       3.015   1.241  -9.635  1.00  0.00     0.006 C
HETATM    6  C9  UNL     1       3.966   2.254  -9.081  1.00  0.00     0.012 C
HETATM    7  C10 UNL     1       3.518   2.817  -7.797  1.00  0.00    -0.011 C
HETATM    8  C11 UNL     1       2.221   3.593  -8.043  1.00  0.00     0.018 C
HETATM    9  C12 UNL     1       4.413   3.643  -7.011  1.00  0.00     0.025 C
HETATM   10  C13 UNL     1       5.852   3.635  -7.303  1.00  0.00     0.008 C
HETATM   11  C14 UNL     1       6.474   3.593  -5.899  1.00  0.00     0.003 C
HETATM   12  C15 UNL     1       5.550   2.540  -5.267  1.00  0.00     0.032 C
HETATM   13  C16 UNL     1       4.216   3.119  -5.586  1.00  0.00     0.127 C
HETATM   14  O2  UNL     1       3.185   2.203  -5.630  1.00  0.00    -0.379 OA
HETATM   15  C17 UNL     1       3.254   1.639  -6.845  1.00  0.00     0.135 C
HETATM   16  C18 UNL     1       1.730  -0.846  -9.138  1.00  0.00     0.039 C
HETATM   17  C19 UNL     1       0.340  -0.857  -8.635  1.00  0.00     0.153 C
ENDROOT
BRANCH   1  18
HETATM   18  C2  UNL     1      -0.696  -1.394  -6.417  1.00  0.00     0.014 C
HETATM   19  C1  UNL     1      -0.114  -1.630  -5.042  1.00  0.00     0.012 C
HETATM   20  C3  UNL     1      -2.105  -0.881  -6.219  1.00  0.00     0.012 C
ENDBRANCH   1  18
BRANCH   1  21
HETATM   21  O1  UNL     1      -0.589   0.777  -7.250  1.00  0.00    -0.387 OA
ATOM     22  H1  UNL     1      -0.130   1.340  -7.862  1.00  0.00     0.210 HD
ENDBRANCH   1  21
BRANCH  17  23
HETATM   23  O3  UNL     1      -0.162  -2.176  -8.750  1.00  0.00    -0.393 OA
ATOM     24  H3  UNL     1       0.465  -2.672  -9.263  1.00  0.00     0.210 HD
ENDBRANCH  17  23
TORSDOF 3
ENDMDL