MODEL 1
REMARK VINA RESULT: -7.286720872      0.000      0.000
REMARK  3 active torsions:
REMARK  status: ('A' for Active; 'I' for Inactive)
REMARK    1  A    between atoms: C2_2  and  C3_3
REMARK    2  A    between atoms: C12_13  and  O2_14
REMARK    3  A    between atoms: C15_18  and  O3_19
ROOT
HETATM    1  C3  UNL     1       1.141  -0.236  -4.281  1.00  0.00     0.078 C
HETATM    2  C4  UNL     1       0.459   0.329  -3.024  1.00  0.00     0.051 C
HETATM    3  O1  UNL     1       2.431   0.185  -4.244  1.00  0.00    -0.376 OA
HETATM    4  C5  UNL     1       2.779   0.834  -5.379  1.00  0.00     0.174 C
HETATM    5  C6  UNL     1       1.660   0.795  -6.350  1.00  0.00     0.022 C
HETATM    6  C7  UNL     1       0.489   0.268  -5.542  1.00  0.00     0.030 C
HETATM    7  C8  UNL     1      -0.447  -0.635  -6.185  1.00  0.00     0.009 C
HETATM    8  C9  UNL     1      -0.221  -1.120  -7.589  1.00  0.00     0.011 C
HETATM    9  C10 UNL     1       0.662  -0.168  -8.292  1.00  0.00    -0.027 C
HETATM   10  C11 UNL     1      -0.069   1.107  -8.457  1.00  0.00     0.046 C
HETATM   11  C12 UNL     1      -0.961   1.016  -9.670  1.00  0.00     0.149 C
HETATM   12  C13 UNL     1      -0.893  -0.206 -10.463  1.00  0.00    -0.032 C
HETATM   13  C14 UNL     1      -1.903  -0.472 -11.268  1.00  0.00     0.019 C
HETATM   14  C15 UNL     1       0.243  -1.189 -10.435  1.00  0.00     0.153 C
HETATM   15  C16 UNL     1       1.236  -0.517  -9.608  1.00  0.00     0.028 C
HETATM   16  C17 UNL     1       2.588  -1.096  -9.374  1.00  0.00     0.009 C
HETATM   17  C18 UNL     1       3.053  -0.012  -8.354  1.00  0.00     0.006 C
HETATM   18  C19 UNL     1       1.897  -0.143  -7.424  1.00  0.00     0.001 C
ENDROOT
BRANCH   1  19
HETATM   19  C2  UNL     1       1.108  -1.699  -4.135  1.00  0.00     0.001 C
HETATM   20  C1  UNL     1       1.668  -2.355  -3.123  1.00  0.00     0.010 C
ENDBRANCH   1  19
BRANCH  11  21
HETATM   21  O2  UNL     1      -2.316   1.197  -9.297  1.00  0.00    -0.391 OA
ATOM     22  H2  UNL     1      -2.755   0.357  -9.230  1.00  0.00     0.210 HD
ENDBRANCH  11  21
BRANCH  14  23
HETATM   23  O3  UNL     1      -0.155  -2.445 -10.036  1.00  0.00    -0.391 OA
ATOM     24  H3  UNL     1      -0.398  -2.477  -9.118  1.00  0.00     0.210 HD
ENDBRANCH  14  23
TORSDOF 3
ENDMDL