MODEL 2
REMARK VINA RESULT: -6.550847413      1.646      3.110
REMARK  3 active torsions:
REMARK  status: ('A' for Active; 'I' for Inactive)
REMARK    1  A    between atoms: C9_9  and  O1_10
REMARK    2  A    between atoms: C18_20  and  O2_21
REMARK    3  A    between atoms: C18_20  and  C19_23
ROOT
HETATM    1  C1  UNL     1      -2.070  -0.531 -12.214  1.00  0.00     0.019 C
HETATM    2  C2  UNL     1      -0.811   0.163 -11.881  1.00  0.00    -0.002 C
HETATM    3  C3  UNL     1      -0.945   1.375 -11.027  1.00  0.00     0.013 C
HETATM    4  C4  UNL     1      -1.449   1.042  -9.680  1.00  0.00     0.006 C
HETATM    5  C5  UNL     1      -1.277  -0.336  -9.197  1.00  0.00    -0.006 C
HETATM    6  C6  UNL     1      -1.155  -0.280  -7.665  1.00  0.00    -0.006 C
HETATM    7  C7  UNL     1      -1.500  -1.623  -7.150  1.00  0.00     0.008 C
HETATM    8  C8  UNL     1      -0.947  -1.976  -5.815  1.00  0.00     0.032 C
HETATM    9  C9  UNL     1      -0.467  -0.752  -5.047  1.00  0.00     0.118 C
HETATM   10  C10 UNL     1       0.619  -0.131  -5.892  1.00  0.00     0.036 C
HETATM   11  C11 UNL     1       0.130   0.302  -7.239  1.00  0.00    -0.008 C
HETATM   12  C12 UNL     1       1.268   0.069  -8.225  1.00  0.00     0.005 C
HETATM   13  C13 UNL     1       1.067  -1.227  -8.964  1.00  0.00     0.006 C
HETATM   14  C14 UNL     1      -0.202  -1.155  -9.829  1.00  0.00    -0.005 C
HETATM   15  C15 UNL     1       0.209  -0.725 -11.177  1.00  0.00     0.002 C
HETATM   16  C16 UNL     1       0.458  -1.773 -12.187  1.00  0.00     0.009 C
HETATM   17  C17 UNL     1       0.339  -1.025 -13.523  1.00  0.00     0.046 C
HETATM   18  C18 UNL     1      -0.022   0.410 -13.155  1.00  0.00     0.118 C
ENDROOT
BRANCH  18  19
HETATM   19  O2  UNL     1       1.206   1.031 -12.847  1.00  0.00    -0.382 OA
ATOM     20  H2  UNL     1       1.074   1.963 -12.720  1.00  0.00     0.211 HD
ENDBRANCH  18  19
BRANCH  18  21
HETATM   21  C19 UNL     1      -0.761   1.116 -14.191  1.00  0.00     0.269 C
HETATM   22  O3  UNL     1      -0.407   1.025 -15.349  1.00  0.00    -0.304 OA
ENDBRANCH  18  21
BRANCH   9  23
HETATM   23  O1  UNL     1       0.074  -1.115  -3.840  1.00  0.00    -0.396 OA
ATOM     24  H1  UNL     1       0.630  -1.878  -3.936  1.00  0.00     0.210 HD
ENDBRANCH   9  23
TORSDOF 3
ENDMDL