MODEL 4
REMARK VINA RESULT: -7.010066633      1.602      6.329
REMARK  3 active torsions:
REMARK  status: ('A' for Active; 'I' for Inactive)
REMARK    1  A    between atoms: C2_2  and  C3_3
REMARK    2  A    between atoms: C11_12  and  O2_13
REMARK    3  A    between atoms: C16_19  and  O3_20
ROOT
HETATM    1  C3  UNL     1       0.104  -0.862 -11.069  1.00  0.00     0.061 C
HETATM    2  C4  UNL     1      -1.004  -0.743 -12.112  1.00  0.00     0.046 C
HETATM    3  O1  UNL     1       1.185  -0.241 -11.641  1.00  0.00    -0.375 OA
HETATM    4  C5  UNL     1       1.732   0.789 -10.929  1.00  0.00     0.118 C
HETATM    5  C6  UNL     1       2.943   1.324 -11.613  1.00  0.00     0.039 C
HETATM    6  C7  UNL     1       2.030   0.257  -9.544  1.00  0.00     0.037 C
HETATM    7  C8  UNL     1       0.673   0.253  -8.862  1.00  0.00     0.002 C
HETATM    8  C9  UNL     1       0.842  -0.403  -7.536  1.00  0.00     0.027 C
HETATM    9  C10 UNL     1       1.355   0.589  -6.495  1.00  0.00     0.040 C
HETATM   10  C11 UNL     1       1.701  -0.058  -5.199  1.00  0.00     0.127 C
HETATM   11  C12 UNL     1       0.616  -0.977  -4.685  1.00  0.00    -0.012 A
HETATM   12  C13 UNL     1      -0.207  -0.594  -3.518  1.00  0.00     0.013 A
HETATM   13  C14 UNL     1       0.905  -1.586  -3.349  1.00  0.00     0.013 A
HETATM   14  C15 UNL     1       0.040  -1.850  -5.747  1.00  0.00     0.050 C
HETATM   15  C16 UNL     1      -0.369  -1.044  -6.960  1.00  0.00     0.063 C
HETATM   16  C17 UNL     1      -0.881  -2.008  -8.022  1.00  0.00     0.038 C
HETATM   17  C18 UNL     1      -1.398  -1.155  -9.128  1.00  0.00     0.011 C
HETATM   18  C19 UNL     1      -0.359  -0.266  -9.768  1.00  0.00     0.024 C
ENDROOT
BRANCH   1  19
HETATM   19  C2  UNL     1       0.413  -2.339 -10.987  1.00  0.00     0.033 C
HETATM   20  C1  UNL     1       1.469  -2.730 -12.029  1.00  0.00     0.008 C
ENDBRANCH   1  19
BRANCH  15  21
HETATM   21  O3  UNL     1      -1.307  -0.102  -6.605  1.00  0.00    -0.389 OA
ATOM     22  H3  UNL     1      -1.912   0.064  -7.318  1.00  0.00     0.210 HD
ENDBRANCH  15  21
BRANCH  10  23
HETATM   23  O2  UNL     1       1.836   0.963  -4.243  1.00  0.00    -0.395 OA
ATOM     24  H2  UNL     1       2.757   1.196  -4.205  1.00  0.00     0.210 HD
ENDBRANCH  10  23
TORSDOF 3
ENDMDL