MODEL 2
REMARK VINA RESULT: -7.825493400      1.270      1.789
REMARK  2 active torsions:
REMARK  status: ('A' for Active; 'I' for Inactive)
REMARK    1  A    between atoms: O1_1  and  C1_3
REMARK    2  A    between atoms: C1_3  and  C2_4
ROOT
HETATM    1  C1  UNL     1       1.208   0.206  -7.244  1.00  0.00     0.091 C
HETATM    2  C7  UNL     1       2.530  -0.294  -7.590  1.00  0.00     0.041 C
HETATM    3  C8  UNL     1       2.926  -0.332  -9.060  1.00  0.00     0.010 C
HETATM    4  C9  UNL     1       1.606  -0.562  -9.824  1.00  0.00     0.008 C
HETATM    5  C10 UNL     1       1.744  -1.169 -11.172  1.00  0.00     0.119 C
HETATM    6  N1  UNL     1       1.012  -2.426 -11.399  1.00  0.00    -0.417 N
ATOM      7  H1  UNL     1       1.431  -3.341 -11.232  1.00  0.00     0.153 HD
HETATM    8  C11 UNL     1      -0.379  -2.266 -11.888  1.00  0.00     0.148 C
HETATM    9  C12 UNL     1      -0.913  -1.171 -11.040  1.00  0.00    -0.063 C
HETATM   10  C13 UNL     1      -2.046  -0.248 -11.339  1.00  0.00     0.036 C
HETATM   11  C14 UNL     1      -1.654   0.947 -10.417  1.00  0.00     0.005 C
HETATM   12  C15 UNL     1      -0.195   1.279 -10.394  1.00  0.00     0.006 C
HETATM   13  C16 UNL     1       0.784   0.615  -9.551  1.00  0.00     0.002 C
HETATM   14  C17 UNL     1       0.082   0.174  -8.250  1.00  0.00     0.049 C
HETATM   15  C18 UNL     1      -0.664  -1.086  -8.436  1.00  0.00    -0.018 C
HETATM   16  C19 UNL     1      -1.120  -1.617  -9.714  1.00  0.00     0.001 C
ENDROOT
BRANCH   1  17
HETATM   17  O1  UNL     1       1.420   1.649  -7.210  1.00  0.00    -0.387 OA
ATOM     18  H1  UNL     1       2.249   1.710  -6.749  1.00  0.00     0.210 HD
ENDBRANCH   1  17
BRANCH   1  19
HETATM   19  C2  UNL     1       0.826  -0.076  -5.827  1.00  0.00     0.156 C
HETATM   20  C3  UNL     1       1.540   0.558  -4.724  1.00  0.00     0.035 C
HETATM   21  C4  UNL     1       2.167  -0.435  -3.732  1.00  0.00     0.005 C
HETATM   22  C5  UNL     1       1.189  -1.498  -3.324  1.00  0.00     0.026 C
HETATM   23  C6  UNL     1       0.074  -1.659  -4.340  1.00  0.00     0.168 C
HETATM   24  O2  UNL     1       0.662  -1.444  -5.584  1.00  0.00    -0.383 OA
ENDBRANCH   1  19
TORSDOF 2
ENDMDL