MODEL 1
REMARK VINA RESULT: -7.867391842      0.000      0.000
REMARK  2 active torsions:
REMARK  status: ('A' for Active; 'I' for Inactive)
REMARK    1  A    between atoms: N1_2  and  C2_4
REMARK    2  A    between atoms: C19_22  and  N2_23
ROOT
HETATM    1  C2  UNL     1      -1.324  -0.039 -10.902  1.00  0.00     0.106 C
HETATM    2  C3  UNL     1      -1.627   1.176 -10.091  1.00  0.00     0.027 C
HETATM    3  C4  UNL     1      -0.829   1.286  -8.813  1.00  0.00     0.007 C
HETATM    4  C5  UNL     1      -1.003  -0.023  -8.094  1.00  0.00    -0.004 C
HETATM    5  C6  UNL     1      -0.298  -1.080  -8.867  1.00  0.00     0.022 C
HETATM    6  C7  UNL     1      -0.158  -2.330  -8.079  1.00  0.00     0.008 C
HETATM    7  C8  UNL     1      -1.039  -2.437  -6.884  1.00  0.00     0.010 C
HETATM    8  C9  UNL     1      -1.095  -1.215  -6.012  1.00  0.00    -0.034 C
HETATM    9  C10 UNL     1      -2.599  -0.964  -5.761  1.00  0.00     0.016 C
HETATM   10  C11 UNL     1      -0.588   0.033  -6.640  1.00  0.00    -0.001 C
HETATM   11  C12 UNL     1       0.851   0.310  -6.519  1.00  0.00     0.006 C
HETATM   12  C13 UNL     1       1.590  -0.439  -5.469  1.00  0.00     0.012 C
HETATM   13  C14 UNL     1       0.776  -0.929  -4.340  1.00  0.00    -0.016 C
HETATM   14  C15 UNL     1       1.604  -1.962  -3.572  1.00  0.00     0.018 C
HETATM   15  C16 UNL     1       0.435   0.156  -3.327  1.00  0.00     0.177 C
HETATM   16  O1  UNL     1      -0.500  -0.532  -2.533  1.00  0.00    -0.390 OA
HETATM   17  C17 UNL     1      -1.415  -0.954  -3.526  1.00  0.00     0.173 C
HETATM   18  C18 UNL     1      -0.535  -1.511  -4.650  1.00  0.00     0.028 C
HETATM   19  C19 UNL     1      -1.072  -1.287 -10.152  1.00  0.00     0.210 C
ENDROOT
BRANCH  19  20
HETATM   20  N2  UNL     1      -0.240  -2.160 -10.992  1.00  0.00    -0.073 N
ATOM     21  H23 UNL     1      -0.775  -2.905 -11.439  1.00  0.00     0.274 HD
ATOM     22  H22 UNL     1       0.086  -1.698 -11.842  1.00  0.00     0.274 HD
ATOM     23  H21 UNL     1       0.525  -2.513 -10.417  1.00  0.00     0.274 HD
ENDBRANCH  19  20
BRANCH   1  24
HETATM   24  N1  UNL     1      -2.336  -0.244 -11.890  1.00  0.00    -0.419 N
HETATM   25  C1  UNL     1      -2.512   0.797 -12.845  1.00  0.00     0.140 C
ATOM     26  H1  UNL     1      -2.901  -1.092 -11.911  1.00  0.00     0.153 HD
ENDBRANCH   1  24
TORSDOF 2
ENDMDL