MODEL 4
REMARK VINA RESULT: -5.867724599      1.356      4.625
REMARK  4 active torsions:
REMARK  status: ('A' for Active; 'I' for Inactive)
REMARK    1  A    between atoms: C2_2  and  C3_3
REMARK    2  A    between atoms: C3_3  and  C4_4
REMARK    3  A    between atoms: C11_11  and  O1_12
REMARK    4  A    between atoms: C14_16  and  O2_17
ROOT
HETATM    1  C4  UNL     1      -0.086  -0.715  -9.568  1.00  0.00    -0.003 C
HETATM    2  C5  UNL     1      -0.586  -2.058 -10.038  1.00  0.00     0.013 C
HETATM    3  C6  UNL     1       0.102  -2.620 -11.225  1.00  0.00     0.008 C
HETATM    4  C7  UNL     1      -0.082  -1.923 -12.494  1.00  0.00     0.021 C
HETATM    5  C8  UNL     1       1.259  -1.390 -13.046  1.00  0.00     0.009 C
HETATM    6  C9  UNL     1       1.188   0.134 -12.883  1.00  0.00     0.019 C
HETATM    7  C10 UNL     1      -0.029   0.329 -11.931  1.00  0.00     0.049 C
HETATM    8  C11 UNL     1      -0.828   1.513 -12.306  1.00  0.00     0.132 C
HETATM    9  C12 UNL     1      -2.189   1.029 -12.839  1.00  0.00     0.036 C
HETATM   10  C13 UNL     1      -2.222  -0.450 -12.364  1.00  0.00     0.042 C
HETATM   11  C14 UNL     1      -0.853  -0.731 -12.594  1.00  0.00     0.074 C
HETATM   12  C15 UNL     1       0.488   0.150 -10.588  1.00  0.00     0.082 C
HETATM   13  C16 UNL     1       0.906   1.480  -9.999  1.00  0.00     0.042 C
HETATM   14  C17 UNL     1       2.062   1.148  -9.041  1.00  0.00     0.035 C
HETATM   15  C18 UNL     1       2.226  -0.321  -9.339  1.00  0.00     0.123 C
HETATM   16  C19 UNL     1       1.080  -1.004  -8.636  1.00  0.00     0.044 C
HETATM   17  O3  UNL     1       1.814  -0.404 -10.643  1.00  0.00    -0.373 OA
ENDROOT
BRANCH   1  18
HETATM   18  C3  UNL     1      -1.169  -0.119  -8.682  1.00  0.00     0.039 C
BRANCH  18  19
HETATM   19  C2  UNL     1      -0.897  -0.463  -7.243  1.00  0.00    -0.036 C
HETATM   20  C1  UNL     1      -1.810  -1.016  -6.471  1.00  0.00     0.007 C
ENDBRANCH  18  19
ENDBRANCH   1  18
BRANCH   8  21
HETATM   21  O1  UNL     1      -1.089   2.489 -11.424  1.00  0.00    -0.395 OA
ATOM     22  H1  UNL     1      -1.926   2.938 -11.414  1.00  0.00     0.210 HD
ENDBRANCH   8  21
BRANCH  11  23
HETATM   23  O2  UNL     1      -0.740  -0.420 -14.008  1.00  0.00    -0.388 OA
ATOM     24  H2  UNL     1      -1.571   0.008 -14.181  1.00  0.00     0.210 HD
ENDBRANCH  11  23
TORSDOF 4
ENDMDL