MODEL 4
REMARK VINA RESULT: -6.785264873      1.688      2.152
REMARK  3 active torsions:
REMARK  status: ('A' for Active; 'I' for Inactive)
REMARK    1  A    between atoms: C3_3  and  O1_4
REMARK    2  A    between atoms: C4_6  and  O2_7
REMARK    3  A    between atoms: C13_18  and  C14_19
ROOT
HETATM    1  C1  UNL     1      -0.022  -1.878  -8.336  1.00  0.00     0.019 C
HETATM    2  C2  UNL     1       0.420  -0.497  -7.895  1.00  0.00    -0.006 C
HETATM    3  C3  UNL     1      -0.677   0.492  -7.966  1.00  0.00     0.155 C
HETATM    4  C4  UNL     1      -1.055   0.845  -9.393  1.00  0.00     0.148 C
HETATM    5  C5  UNL     1      -0.178   1.933  -9.897  1.00  0.00     0.041 C
HETATM    6  C6  UNL     1       0.880   1.265 -10.722  1.00  0.00     0.019 C
HETATM    7  C7  UNL     1       1.967   2.267 -11.002  1.00  0.00     0.033 C
HETATM    8  C8  UNL     1       3.202   1.432 -10.906  1.00  0.00     0.168 C
HETATM    9  O3  UNL     1       2.904   0.146 -10.599  1.00  0.00    -0.385 OA
HETATM   10  C9  UNL     1       1.569   0.134 -10.110  1.00  0.00     0.130 C
HETATM   11  C10 UNL     1       1.641  -0.088  -8.698  1.00  0.00     0.026 C
HETATM   12  C11 UNL     1       2.278   0.957  -7.836  1.00  0.00     0.008 C
HETATM   13  C12 UNL     1       1.713   0.744  -6.417  1.00  0.00     0.006 C
HETATM   14  C13 UNL     1       1.122  -0.626  -6.582  1.00  0.00     0.001 C
ENDROOT
BRANCH  14  15
HETATM   15  C14 UNL     1       0.598  -1.324  -5.438  1.00  0.00    -0.010 C
HETATM   16  C15 UNL     1       1.803  -1.754  -4.563  1.00  0.00     0.005 C
HETATM   17  C16 UNL     1       2.109  -0.753  -3.492  1.00  0.00     0.000 C
HETATM   18  C17 UNL     1       1.080  -0.973  -2.376  1.00  0.00     0.000 C
HETATM   19  C18 UNL     1      -0.186  -1.359  -3.093  1.00  0.00     0.000 C
HETATM   20  C19 UNL     1      -0.303  -0.631  -4.460  1.00  0.00     0.005 C
ENDBRANCH  14  15
BRANCH   3  21
HETATM   21  O1  UNL     1      -1.885  -0.084  -7.519  1.00  0.00    -0.392 OA
ATOM     22  H1  UNL     1      -2.521   0.595  -7.323  1.00  0.00     0.210 HD
ENDBRANCH   3  21
BRANCH   4  23
HETATM   23  O2  UNL     1      -2.364   1.382  -9.333  1.00  0.00    -0.393 OA
ATOM     24  H2  UNL     1      -2.465   1.733  -8.456  1.00  0.00     0.210 HD
ENDBRANCH   4  23
TORSDOF 3
ENDMDL