MODEL 3
REMARK VINA RESULT: -6.035922596      1.436      4.037
REMARK  3 active torsions:
REMARK  status: ('A' for Active; 'I' for Inactive)
REMARK    1  A    between atoms: C2_2  and  C3_3
REMARK    2  A    between atoms: C9_10  and  O2_11
REMARK    3  A    between atoms: C12_15  and  O3_16
ROOT
HETATM    1  C3  UNL     1      -0.601  -1.041 -10.602  1.00  0.00     0.062 C
HETATM    2  C4  UNL     1      -1.497  -0.701 -11.809  1.00  0.00     0.046 C
HETATM    3  O1  UNL     1      -1.523  -1.126  -9.557  1.00  0.00    -0.368 OA
HETATM    4  C5  UNL     1      -0.859  -0.764  -8.437  1.00  0.00     0.074 C
HETATM    5  C6  UNL     1      -0.270  -1.982  -7.782  1.00  0.00     0.044 C
HETATM    6  C7  UNL     1      -0.382  -1.185  -6.498  1.00  0.00    -0.006 C
HETATM    7  C8  UNL     1       0.854  -0.353  -6.433  1.00  0.00     0.043 C
HETATM    8  C9  UNL     1       1.171   0.374  -7.743  1.00  0.00     0.069 C
HETATM    9  C10 UNL     1       2.581  -0.030  -8.112  1.00  0.00     0.042 C
HETATM   10  C11 UNL     1       3.120   1.054  -9.005  1.00  0.00     0.045 C
HETATM   11  C12 UNL     1       2.330   1.278 -10.249  1.00  0.00     0.076 C
HETATM   12  C13 UNL     1       1.443   2.439 -10.299  1.00  0.00     0.007 C
HETATM   13  C14 UNL     1       0.307   2.717  -9.486  1.00  0.00    -0.027 C
HETATM   14  C15 UNL     1      -0.500   1.723  -8.730  1.00  0.00     0.043 C
HETATM   15  C16 UNL     1       0.135   0.316  -8.749  1.00  0.00     0.032 C
HETATM   16  C17 UNL     1       0.316   0.061 -10.195  1.00  0.00     0.038 C
HETATM   17  C18 UNL     1       1.727  -0.047 -10.673  1.00  0.00     0.050 C
HETATM   18  C19 UNL     1      -1.557  -0.491  -7.177  1.00  0.00     0.044 C
ENDROOT
BRANCH   1  19
HETATM   19  C2  UNL     1       0.057  -2.321 -10.966  1.00  0.00     0.033 C
HETATM   20  C1  UNL     1      -0.236  -2.714 -12.398  1.00  0.00     0.008 C
ENDBRANCH   1  19
BRANCH   8  21
HETATM   21  O2  UNL     1       1.443   1.708  -7.286  1.00  0.00    -0.389 OA
ATOM     22  H2  UNL     1       1.968   1.548  -6.511  1.00  0.00     0.210 HD
ENDBRANCH   8  21
BRANCH  11  23
HETATM   23  O3  UNL     1       3.330   1.487 -11.249  1.00  0.00    -0.386 OA
ATOM     24  H3  UNL     1       3.217   0.748 -11.836  1.00  0.00     0.211 HD
ENDBRANCH  11  23
TORSDOF 3
ENDMDL