MODEL 4
REMARK VINA RESULT: -7.541368843      1.326      1.614
REMARK  2 active torsions:
REMARK  status: ('A' for Active; 'I' for Inactive)
REMARK    1  A    between atoms: O1_1  and  C1_3
REMARK    2  A    between atoms: C2_4  and  C3_5
ROOT
HETATM    1  C1  UNL     1      -0.244  -1.694  -9.739  1.00  0.00     0.175 C
HETATM    2  C2  UNL     1      -0.297  -0.506  -8.844  1.00  0.00     0.116 C
HETATM    3  N1  UNL     1       0.474   0.573  -9.254  1.00  0.00    -0.393 N
ATOM      4  H1  UNL     1      -0.001   1.429  -9.541  1.00  0.00     0.159 HD
HETATM    5  C13 UNL     1       1.857   0.543  -9.293  1.00  0.00     0.082 C
HETATM    6  C14 UNL     1       2.572  -0.699  -9.590  1.00  0.00     0.213 C
HETATM    7  O2  UNL     1       2.020  -1.666 -10.308  1.00  0.00    -0.372 OA
HETATM    8  C15 UNL     1       0.804  -1.619 -10.831  1.00  0.00     0.089 C
HETATM    9  C16 UNL     1       0.602  -2.946 -11.602  1.00  0.00     0.041 C
HETATM   10  C17 UNL     1       1.262  -2.726 -12.921  1.00  0.00     0.003 C
HETATM   11  C18 UNL     1       1.239  -1.242 -13.114  1.00  0.00     0.003 C
HETATM   12  C19 UNL     1       0.512  -0.647 -11.903  1.00  0.00     0.041 C
ENDROOT
BRANCH   2  13
HETATM   13  C3  UNL     1      -0.101  -0.939  -7.395  1.00  0.00     0.011 C
HETATM   14  C4  UNL     1       0.661   0.065  -6.601  1.00  0.00     0.007 C
HETATM   15  C5  UNL     1       1.704  -0.396  -5.651  1.00  0.00     0.000 C
HETATM   16  C6  UNL     1       1.780   0.193  -4.300  1.00  0.00     0.000 C
HETATM   17  C7  UNL     1       0.574   0.382  -3.467  1.00  0.00     0.000 C
HETATM   18  C8  UNL     1      -0.255  -0.787  -3.082  1.00  0.00     0.000 C
HETATM   19  C9  UNL     1      -1.744  -0.659  -3.150  1.00  0.00     0.000 C
HETATM   20  C10 UNL     1      -2.409  -1.339  -4.380  1.00  0.00     0.000 C
HETATM   21  C11 UNL     1      -1.587  -0.809  -5.502  1.00  0.00     0.000 C
HETATM   22  C12 UNL     1      -1.538  -1.233  -6.878  1.00  0.00     0.007 C
ENDBRANCH   2  13
BRANCH   1  23
HETATM   23  O1  UNL     1      -1.481  -1.997 -10.341  1.00  0.00    -0.390 OA
ATOM     24  H1  UNL     1      -1.756  -2.897 -10.209  1.00  0.00     0.210 HD
ENDBRANCH   1  23
TORSDOF 2
ENDMDL