MODEL 2
REMARK VINA RESULT: -7.974103090      2.209      4.943
REMARK  5 active torsions:
REMARK  status: ('A' for Active; 'I' for Inactive)
REMARK       I    between atoms: N1_2  and  C2_4
REMARK       I    between atoms: N3_6  and  C3_8
REMARK    1  A    between atoms: C3_8  and  C4_10
REMARK    2  A    between atoms: C4_10  and  N4_12
REMARK       I    between atoms: N4_12  and  C6_14
REMARK       I    between atoms: C6_14  and  N5_16
REMARK    3  A    between atoms: C9_19  and  C10_20
REMARK    4  A    between atoms: C14_24  and  C15_25
REMARK       I    between atoms: C15_25  and  N6_27
REMARK    5  A    between atoms: N6_27  and  N7_29
REMARK       I    between atoms: N7_29  and  C16_31
ROOT
HETATM    1  N4  UNL     1      13.170   1.303   5.418  1.00  0.00    -0.330 N
ATOM      2  H4  UNL     1      13.825   1.975   5.818  1.00  0.00     0.165 HD
HETATM    3  C6  UNL     1      13.067   0.034   6.006  1.00  0.00     0.319 C
HETATM    4  O2  UNL     1      12.270  -0.800   5.527  1.00  0.00    -0.247 OA
HETATM    5  N5  UNL     1      13.840  -0.322   7.124  1.00  0.00    -0.320 N
HETATM    6  C7  UNL     1      14.796   0.565   7.774  1.00  0.00     0.129 C
HETATM    7  C8  UNL     1      14.967   0.090   9.172  1.00  0.00     0.028 C
HETATM    8  C9  UNL     1      14.336  -1.268   9.191  1.00  0.00     0.027 C
HETATM    9  C14 UNL     1      13.853  -1.607   7.836  1.00  0.00     0.187 C
ENDROOT
BRANCH   9  10
HETATM   10  C15 UNL     1      14.792  -2.550   7.174  1.00  0.00     0.259 C
HETATM   11  O3  UNL     1      15.625  -3.218   7.874  1.00  0.00    -0.269 OA
HETATM   12  N6  UNL     1      14.819  -2.760   5.777  1.00  0.00    -0.266 N
ATOM     13  H6  UNL     1      14.161  -2.238   5.198  1.00  0.00     0.190 HD
BRANCH  12  14
HETATM   14  N7  UNL     1      15.694  -3.641   5.147  1.00  0.00    -0.268 N
HETATM   15  C16 UNL     1      15.282  -4.983   4.866  1.00  0.00     0.232 C
HETATM   16  C17 UNL     1      16.177  -5.951   4.199  1.00  0.00     0.119 C
HETATM   17  O4  UNL     1      14.111  -5.378   5.191  1.00  0.00    -0.272 OA
ATOM     18  H7  UNL     1      16.629  -3.330   4.886  1.00  0.00     0.190 HD
ENDBRANCH  12  14
ENDBRANCH   9  10
BRANCH   1  19
HETATM   19  C4  UNL     1      12.382   1.701   4.261  1.00  0.00     0.174 C
HETATM   20  C5  UNL     1      13.072   2.877   3.590  1.00  0.00     0.042 C
BRANCH  19  21
HETATM   21  C3  UNL     1      11.040   2.106   4.732  1.00  0.00     0.246 C
HETATM   22  N3  UNL     1       9.997   1.187   4.982  1.00  0.00    -0.300 N
HETATM   23  C2  UNL     1       9.030   0.960   4.177  1.00  0.00     0.190 C
ATOM     24  H3  UNL     1      10.017   0.670   5.861  1.00  0.00     0.171 HD
HETATM   25  N1  UNL     1       8.001   0.026   4.465  1.00  0.00    -0.369 N
HETATM   26  N2  UNL     1       9.011   1.690   2.943  1.00  0.00    -0.063 NA
HETATM   27  C1  UNL     1       7.760  -1.049   3.530  1.00  0.00     0.148 C
ATOM     28  H1  UNL     1       7.443   0.112   5.315  1.00  0.00     0.161 HD
HETATM   29  O1  UNL     1      10.782   3.332   4.930  1.00  0.00    -0.271 OA
ENDBRANCH  19  21
ENDBRANCH   1  19
BRANCH   8  30
HETATM   30  C10 UNL     1      13.258  -1.283  10.250  1.00  0.00    -0.045 C
HETATM   31  C11 UNL     1      13.867  -0.607  11.485  1.00  0.00     0.015 C
HETATM   32  C12 UNL     1      12.060  -0.479   9.863  1.00  0.00     0.015 C
HETATM   33  C13 UNL     1      12.839  -2.652  10.661  1.00  0.00     0.015 C
ENDBRANCH   8  30
TORSDOF 5
ENDMDL