MODEL 2
REMARK VINA RESULT: -8.212747676      2.198      2.532
REMARK  4 active torsions:
REMARK  status: ('A' for Active; 'I' for Inactive)
REMARK    1  A    between atoms: C2_2  and  C3_3
REMARK       I    between atoms: C3_3  and  N1_5
REMARK    2  A    between atoms: N1_5  and  C4_7
REMARK    3  A    between atoms: N2_11  and  N3_13
REMARK       I    between atoms: C8_15  and  N5_17
REMARK       I    between atoms: C9_19  and  N7_21
REMARK       I    between atoms: N7_21  and  C10_22
REMARK       I    between atoms: C10_22  and  N9_24
REMARK    4  A    between atoms: C13_27  and  C14_28
ROOT
HETATM    1  C4  UNL     1      14.241  -1.597   9.218  1.00  0.00     0.085 C
HETATM    2  C5  UNL     1      14.140  -0.084   9.141  1.00  0.00     0.031 C
HETATM    3  C6  UNL     1      13.024   0.358   8.252  1.00  0.00     0.056 C
HETATM    4  C7  UNL     1      13.402  -0.054   6.849  1.00  0.00     0.008 C
HETATM    5  N2  UNL     1      13.031   0.638   5.859  1.00  0.00    -0.306 N
ATOM      6  H2  UNL     1      13.309   0.319   4.930  1.00  0.00     0.186 HD
HETATM    7  C13 UNL     1      14.194  -1.278   6.712  1.00  0.00     0.039 C
HETATM    8  C20 UNL     1      14.124  -2.236   7.865  1.00  0.00     0.036 C
ENDROOT
BRANCH   5   9
HETATM    9  N3  UNL     1      12.269   1.805   5.939  1.00  0.00    -0.274 N
HETATM   10  C8  UNL     1      11.796   2.423   4.918  1.00  0.00     0.210 C
HETATM   11  N4  UNL     1      11.040   3.599   5.162  1.00  0.00    -0.062 NA
HETATM   12  N5  UNL     1      11.982   2.011   3.585  1.00  0.00    -0.292 N
HETATM   13  C9  UNL     1      13.138   2.202   2.990  1.00  0.00     0.272 C
ATOM     14  H5  UNL     1      11.218   1.564   3.080  1.00  0.00     0.172 HD
HETATM   15  N6  UNL     1      14.140   2.847   3.818  1.00  0.00    -0.049 NA
HETATM   16  N7  UNL     1      13.444   1.865   1.741  1.00  0.00    -0.341 NA
HETATM   17  C10 UNL     1      13.808   1.490   0.684  1.00  0.00     0.267 C
HETATM   18  N8  UNL     1      14.902   0.545   0.543  1.00  0.00    -0.049 NA
HETATM   19  N9  UNL     1      13.209   1.927  -0.568  1.00  0.00    -0.353 N
HETATM   20  C11 UNL     1      13.596   3.224  -1.045  1.00  0.00     0.152 C
HETATM   21  C12 UNL     1      12.283   1.095  -1.273  1.00  0.00     0.152 C
ATOM     22  H3  UNL     1      12.077   2.190   6.864  1.00  0.00     0.189 HD
ENDBRANCH   5   9
BRANCH   7  23
HETATM   23  C14 UNL     1      13.845  -2.020   5.457  1.00  0.00    -0.005 C
HETATM   24  C15 UNL     1      13.466  -3.471   5.745  1.00  0.00     0.005 C
HETATM   25  C16 UNL     1      12.792  -3.967   4.460  1.00  0.00     0.000 C
HETATM   26  C17 UNL     1      13.657  -3.867   3.258  1.00  0.00     0.000 C
HETATM   27  C18 UNL     1      14.404  -2.560   3.152  1.00  0.00     0.000 C
HETATM   28  C19 UNL     1      15.026  -2.176   4.498  1.00  0.00     0.005 C
ENDBRANCH   7  23
BRANCH   1  29
HETATM   29  N1  UNL     1      13.232  -2.067  10.112  1.00  0.00    -0.353 N
HETATM   30  C3  UNL     1      13.068  -3.420  10.495  1.00  0.00     0.240 C
HETATM   31  O1  UNL     1      13.822  -4.344  10.064  1.00  0.00    -0.269 OA
ATOM     32  H1  UNL     1      12.585  -1.382  10.502  1.00  0.00     0.163 HD
BRANCH  30  33
HETATM   33  C2  UNL     1      12.020  -3.835  11.409  1.00  0.00     0.064 C
HETATM   34  C1  UNL     1      10.878  -3.179  11.534  1.00  0.00     0.017 C
ENDBRANCH  30  33
ENDBRANCH   1  29
TORSDOF 4
ENDMDL