MODEL 2
REMARK VINA RESULT: -7.705189924      0.556      1.033
REMARK  6 active torsions:
REMARK  status: ('A' for Active; 'I' for Inactive)
REMARK    1  A    between atoms: C2_2  and  N1_3
REMARK    2  A    between atoms: N1_3  and  C4_5
REMARK    3  A    between atoms: C4_5  and  C5_6
REMARK    4  A    between atoms: C17_20  and  C18_21
REMARK    5  A    between atoms: C19_22  and  C20_23
REMARK    6  A    between atoms: C21_24  and  C22_25
ROOT
HETATM    1  C5  UNL     1      11.652   0.694   3.791  1.00  0.00     0.215 C
HETATM    2  C6  UNL     1      11.866   1.164   5.186  1.00  0.00     0.045 C
HETATM    3  C7  UNL     1      13.280   1.084   5.690  1.00  0.00    -0.023 C
HETATM    4  C8  UNL     1      14.036   2.322   5.310  1.00  0.00     0.017 C
HETATM    5  C9  UNL     1      13.150   0.978   7.218  1.00  0.00     0.017 C
HETATM    6  C10 UNL     1      14.020  -0.142   5.132  1.00  0.00     0.119 C
HETATM    7  N2  UNL     1      14.929  -0.576   6.106  1.00  0.00    -0.394 N
ATOM      8  H2  UNL     1      15.085   0.137   6.819  1.00  0.00     0.159 HD
HETATM    9  C11 UNL     1      15.611  -1.625   6.335  1.00  0.00     0.068 C
HETATM   10  C12 UNL     1      15.915  -2.958   5.836  1.00  0.00     0.016 A
HETATM   11  C13 UNL     1      17.178  -3.165   4.994  1.00  0.00     0.023 C
HETATM   12  C14 UNL     1      15.685  -4.036   6.932  1.00  0.00    -0.014 A
HETATM   13  C15 UNL     1      16.736  -5.095   7.008  1.00  0.00     0.018 C
HETATM   14  C16 UNL     1      14.987  -3.648   8.194  1.00  0.00     0.018 C
HETATM   15  C17 UNL     1      14.867  -3.947   5.697  1.00  0.00     0.044 A
HETATM   16  C23 UNL     1      13.509  -3.346   5.654  1.00  0.00     0.027 C
HETATM   17  C24 UNL     1      13.441  -2.477   4.402  1.00  0.00     0.037 C
HETATM   18  C25 UNL     1      12.939  -1.099   4.741  1.00  0.00     0.209 C
HETATM   19  N5  UNL     1      12.307  -0.571   3.547  1.00  0.00    -0.063 N
ATOM     20  H51 UNL     1      12.974  -0.499   2.778  1.00  0.00     0.278 HD
ATOM     21  H52 UNL     1      11.663  -1.248   3.141  1.00  0.00     0.278 HD
ENDROOT
BRANCH  15  22
HETATM   22  C18 UNL     1      15.066  -5.015   4.682  1.00  0.00    -0.090 C
HETATM   23  C19 UNL     1      15.212  -5.871   3.843  1.00  0.00    -0.078 C
BRANCH  23  24
HETATM   24  C20 UNL     1      15.368  -6.880   2.825  1.00  0.00     0.068 C
HETATM   25  C21 UNL     1      14.589  -6.889   1.762  1.00  0.00     0.053 C
BRANCH  25  26
HETATM   26  C22 UNL     1      14.739  -7.899   0.735  1.00  0.00     0.110 C
HETATM   27  N3  UNL     1      14.243  -9.088   0.891  1.00  0.00    -0.388 N
ATOM     28  H32 UNL     1      13.745  -9.286   1.759  1.00  0.00     0.157 HD
ATOM     29  H31 UNL     1      14.348  -9.799   0.167  1.00  0.00     0.157 HD
HETATM   30  N4  UNL     1      15.427  -7.626  -0.468  1.00  0.00    -0.083 NA
ENDBRANCH  25  26
ENDBRANCH  23  24
ENDBRANCH  15  22
BRANCH   1  31
HETATM   31  C4  UNL     1      10.132   0.547   3.625  1.00  0.00     0.304 C
BRANCH  31  32
HETATM   32  N1  UNL     1       9.758  -0.218   2.485  1.00  0.00     0.085 N
HETATM   33  C3  UNL     1       8.538  -0.931   2.760  1.00  0.00     0.309 C
BRANCH  32  34
HETATM   34  C2  UNL     1       9.656   0.573   1.283  1.00  0.00     0.267 C
HETATM   35  C1  UNL     1      10.687   0.186   0.238  1.00  0.00     0.037 C
ENDBRANCH  32  34
ENDBRANCH  31  32
ENDBRANCH   1  31
TORSDOF 6
ENDMDL