MODEL 5
REMARK VINA RESULT: -7.126393312      3.019      7.491
REMARK  6 active torsions:
REMARK  status: ('A' for Active; 'I' for Inactive)
REMARK    1  A    between atoms: C1_2  and  C2_4
REMARK    2  A    between atoms: C2_4  and  N2_5
REMARK       I    between atoms: N2_5  and  C3_7
REMARK    3  A    between atoms: C3_7  and  C4_9
REMARK    4  A    between atoms: C12_17  and  N3_18
REMARK       I    between atoms: N3_18  and  C13_20
REMARK    5  A    between atoms: N5_22  and  C14_24
REMARK    6  A    between atoms: C14_24  and  N6_26
ROOT
HETATM    1  C4  UNL     1      15.994  -4.205   4.109  1.00  0.00     0.062 C
HETATM    2  C5  UNL     1      17.502  -4.410   3.899  1.00  0.00     0.026 C
HETATM    3  C6  UNL     1      17.782  -5.438   2.855  1.00  0.00    -0.013 C
HETATM    4  C7  UNL     1      17.127  -6.762   3.206  1.00  0.00     0.009 C
HETATM    5  C8  UNL     1      15.663  -6.582   3.432  1.00  0.00    -0.013 C
HETATM    6  C9  UNL     1      15.021  -6.134   2.133  1.00  0.00     0.011 C
HETATM    7  C10 UNL     1      15.674  -4.842   1.759  1.00  0.00     0.010 C
HETATM    8  C11 UNL     1      17.141  -4.968   1.563  1.00  0.00     0.011 C
HETATM    9  C12 UNL     1      15.318  -3.818   2.854  1.00  0.00     0.106 C
HETATM   10  C20 UNL     1      15.462  -5.590   4.519  1.00  0.00     0.026 C
ENDROOT
BRANCH   9  11
HETATM   11  N3  UNL     1      15.502  -2.514   2.339  1.00  0.00    -0.358 N
HETATM   12  C13 UNL     1      14.580  -1.466   2.413  1.00  0.00     0.190 C
HETATM   13  N4  UNL     1      13.256  -1.651   1.938  1.00  0.00    -0.063 NA
HETATM   14  N5  UNL     1      14.922  -0.292   2.892  1.00  0.00    -0.307 N
ATOM     15  H5  UNL     1      15.873  -0.128   3.221  1.00  0.00     0.171 HD
ATOM     16  H3  UNL     1      16.387  -2.321   1.872  1.00  0.00     0.162 HD
BRANCH  14  17
HETATM   17  C14 UNL     1      13.971   0.732   2.946  1.00  0.00     0.176 C
HETATM   18  S1  UNL     1      13.845   1.784   1.714  1.00  0.00    -0.041 SA
BRANCH  17  19
HETATM   19  N6  UNL     1      13.110   0.838   4.065  1.00  0.00    -0.358 N
HETATM   20  C15 UNL     1      11.705   1.107   3.935  1.00  0.00     0.125 C
HETATM   21  C16 UNL     1      11.304   2.141   4.993  1.00  0.00     0.020 C
HETATM   22  C17 UNL     1      12.577   2.906   5.343  1.00  0.00     0.003 C
HETATM   23  C18 UNL     1      13.415   1.969   6.211  1.00  0.00     0.020 C
HETATM   24  C19 UNL     1      13.616   0.680   5.428  1.00  0.00     0.125 C
ENDBRANCH  17  19
ENDBRANCH  14  17
ENDBRANCH   9  11
BRANCH   1  25
HETATM   25  C3  UNL     1      15.860  -3.296   5.261  1.00  0.00     0.228 C
HETATM   26  N2  UNL     1      15.140  -3.673   6.421  1.00  0.00    -0.352 N
ATOM     27  H2  UNL     1      14.702  -4.595   6.427  1.00  0.00     0.162 HD
HETATM   28  O2  UNL     1      16.387  -2.157   5.247  1.00  0.00    -0.273 OA
BRANCH  26  29
HETATM   29  C2  UNL     1      14.981  -2.855   7.586  1.00  0.00     0.222 C
BRANCH  29  30
HETATM   30  C1  UNL     1      15.118  -3.618   8.870  1.00  0.00     0.248 C
HETATM   31  N1  UNL     1      16.160  -4.570   9.040  1.00  0.00    -0.061 NA
HETATM   32  O1  UNL     1      14.320  -3.430   9.819  1.00  0.00    -0.275 OA
ENDBRANCH  29  30
ENDBRANCH  26  29
ENDBRANCH   1  25
TORSDOF 6
ENDMDL