MODEL 1
REMARK VINA RESULT: -7.561831857      0.000      0.000
REMARK  4 active torsions:
REMARK  status: ('A' for Active; 'I' for Inactive)
REMARK       I    between atoms: N1_2  and  C2_4
REMARK       I    between atoms: C2_4  and  N7_30
REMARK       I    between atoms: N2_5  and  C3_7
REMARK       I    between atoms: C3_7  and  N3_9
REMARK    1  A    between atoms: N3_9  and  C4_11
REMARK    2  A    between atoms: C7_16  and  C8_17
REMARK       I    between atoms: N5_22  and  C12_23
REMARK       I    between atoms: C12_23  and  N6_25
REMARK    3  A    between atoms: N6_25  and  C13_27
REMARK    4  A    between atoms: N7_30  and  C16_32
ROOT
HETATM    1  C4  UNL     1      15.090  -1.690   4.680  1.00  0.00     0.294 C
HETATM    2  C5  UNL     1      15.502  -2.190   3.345  1.00  0.00     0.263 C
HETATM    3  O2  UNL     1      16.547  -1.654   2.882  1.00  0.00    -0.269 OA
HETATM    4  N4  UNL     1      14.786  -3.193   2.629  1.00  0.00    -0.339 N
HETATM    5  C6  UNL     1      14.839  -3.085   1.169  1.00  0.00     0.153 C
HETATM    6  C7  UNL     1      14.104  -4.184   3.351  1.00  0.00     0.182 C
HETATM    7  C11 UNL     1      13.578  -3.600   4.632  1.00  0.00     0.253 C
HETATM    8  O3  UNL     1      12.409  -3.891   5.066  1.00  0.00    -0.270 OA
HETATM    9  N5  UNL     1      14.349  -2.707   5.410  1.00  0.00    -0.237 N
HETATM   10  C12 UNL     1      14.437  -2.745   6.802  1.00  0.00     0.327 C
HETATM   11  O4  UNL     1      15.154  -1.883   7.383  1.00  0.00    -0.247 OA
HETATM   12  N6  UNL     1      13.787  -3.680   7.614  1.00  0.00    -0.339 N
ATOM     13  H6  UNL     1      13.199  -4.395   7.186  1.00  0.00     0.164 HD
ENDROOT
BRANCH   1  14
HETATM   14  N3  UNL     1      14.319  -0.468   4.568  1.00  0.00    -0.312 N
HETATM   15  C3  UNL     1      14.305   0.583   5.510  1.00  0.00     0.336 C
HETATM   16  N2  UNL     1      13.537   1.734   5.342  1.00  0.00    -0.142 N
HETATM   17  O1  UNL     1      15.007   0.526   6.577  1.00  0.00    -0.246 OA
HETATM   18  C2  UNL     1      12.342   1.853   4.942  1.00  0.00     0.677 C
ATOM     19  H2  UNL     1      14.006   2.609   5.576  1.00  0.00     0.189 HD
HETATM   20  N1  UNL     1      11.767   3.137   4.851  1.00  0.00    -0.231 N
HETATM   21  N7  UNL     1      11.575   0.719   4.595  1.00  0.00    -0.222 N
HETATM   22  C1  UNL     1      12.658   4.276   4.616  1.00  0.00     0.165 C
ATOM     23  H1  UNL     1      10.760   3.269   4.944  1.00  0.00     0.177 HD
ATOM     24  H7  UNL     1      11.697  -0.132   5.144  1.00  0.00     0.178 HD
ATOM     25  H3  UNL     1      13.737  -0.359   3.737  1.00  0.00     0.166 HD
BRANCH  21  26
HETATM   26  C16 UNL     1      10.630   0.700   3.510  1.00  0.00     0.091 C
HETATM   27  C17 UNL     1       9.204   0.805   3.983  1.00  0.00     0.032 C
HETATM   28  C18 UNL     1      10.820  -0.526   2.623  1.00  0.00     0.032 C
ENDBRANCH  21  26
ENDBRANCH   1  14
BRANCH   6  29
HETATM   29  C8  UNL     1      14.771  -5.435   3.710  1.00  0.00     0.009 C
HETATM   30  C9  UNL     1      14.694  -6.364   2.510  1.00  0.00     0.012 C
HETATM   31  C10 UNL     1      16.171  -5.436   4.152  1.00  0.00     0.012 C
ENDBRANCH   6  29
BRANCH  12  32
HETATM   32  C13 UNL     1      13.937  -3.650   9.067  1.00  0.00     0.078 C
HETATM   33  C14 UNL     1      13.004  -2.720   9.754  1.00  0.00     0.032 C
HETATM   34  C15 UNL     1      13.754  -5.063   9.559  1.00  0.00     0.032 C
ENDBRANCH  12  32
TORSDOF 4
ENDMDL