MODEL 5
REMARK VINA RESULT: -7.900050761      2.563      6.926
REMARK  4 active torsions:
REMARK  status: ('A' for Active; 'I' for Inactive)
REMARK    1  A    between atoms: C1_2  and  C2_4
REMARK    2  A    between atoms: N2_7  and  C5_8
REMARK    3  A    between atoms: C13_16  and  C14_17
REMARK       I    between atoms: C14_17  and  N3_19
REMARK    4  A    between atoms: N3_19  and  C15_21
ROOT
HETATM    1  C5  UNL     1      15.507  -4.126   5.075  1.00  0.00     0.208 C
HETATM    2  C6  UNL     1      16.357  -5.370   4.790  1.00  0.00     0.017 C
HETATM    3  C7  UNL     1      15.666  -6.381   3.928  1.00  0.00     0.007 C
HETATM    4  C8  UNL     1      14.591  -5.890   3.051  1.00  0.00     0.001 C
HETATM    5  C9  UNL     1      14.819  -4.589   2.379  1.00  0.00     0.005 C
HETATM    6  C10 UNL     1      16.050  -3.850   2.746  1.00  0.00     0.001 C
HETATM    7  C11 UNL     1      17.323  -4.658   2.686  1.00  0.00     0.006 C
HETATM    8  C12 UNL     1      17.671  -4.998   4.095  1.00  0.00     0.007 C
HETATM    9  C13 UNL     1      15.910  -3.106   4.094  1.00  0.00     0.113 C
ENDROOT
BRANCH   9  10
HETATM   10  C14 UNL     1      15.028  -1.983   3.816  1.00  0.00     0.226 C
HETATM   11  O2  UNL     1      15.461  -0.841   3.574  1.00  0.00    -0.273 OA
HETATM   12  N3  UNL     1      13.622  -2.028   3.784  1.00  0.00    -0.325 N
ATOM     13  H3  UNL     1      13.170  -2.923   3.969  1.00  0.00     0.165 HD
BRANCH  12  14
HETATM   14  C15 UNL     1      12.779  -0.897   3.507  1.00  0.00     0.379 C
HETATM   15  N4  UNL     1      12.445  -0.149   4.704  1.00  0.00    -0.045 N
HETATM   16  C16 UNL     1      11.924   1.146   4.301  1.00  0.00     0.237 C
ATOM     17  H42 UNL     1      11.808  -0.655   5.318  1.00  0.00     0.280 HD
ATOM     18  H41 UNL     1      13.230  -0.073   5.352  1.00  0.00     0.280 HD
HETATM   19  C17 UNL     1      10.424   1.159   4.230  1.00  0.00     0.047 C
HETATM   20  C18 UNL     1       9.964   0.720   2.846  1.00  0.00     0.124 C
HETATM   21  N5  UNL     1      10.256  -0.691   2.731  1.00  0.00    -0.358 N
HETATM   22  C19 UNL     1      11.494  -1.326   2.874  1.00  0.00     0.268 C
ATOM     23  H5  UNL     1       9.463  -1.298   2.520  1.00  0.00     0.162 HD
HETATM   24  O3  UNL     1      11.538  -2.481   2.373  1.00  0.00    -0.269 OA
ENDBRANCH  12  14
ENDBRANCH   9  10
BRANCH   1  25
HETATM   25  N2  UNL     1      15.425  -3.776   6.442  1.00  0.00    -0.060 N
HETATM   26  C4  UNL     1      15.251  -2.349   6.683  1.00  0.00     0.239 C
HETATM   27  C3  UNL     1      14.889  -2.250   8.173  1.00  0.00     0.048 C
HETATM   28  C2  UNL     1      14.592  -3.669   8.532  1.00  0.00     0.066 C
HETATM   29  C21 UNL     1      15.831  -4.529   8.685  1.00  0.00     0.048 C
HETATM   30  C22 UNL     1      14.210  -4.216   7.137  1.00  0.00     0.256 C
HETATM   31  C20 UNL     1      16.457  -4.234   7.313  1.00  0.00     0.239 C
BRANCH  28  32
HETATM   32  C1  UNL     1      13.578  -3.887   9.524  1.00  0.00     0.241 C
HETATM   33  N1  UNL     1      12.964  -2.798  10.201  1.00  0.00    -0.061 NA
HETATM   34  O1  UNL     1      13.207  -5.054   9.819  1.00  0.00    -0.276 OA
ENDBRANCH  28  32
ENDBRANCH   1  25
TORSDOF 4
ENDMDL