MODEL 1
REMARK VINA RESULT: -7.848124086      0.000      0.000
REMARK  4 active torsions:
REMARK  status: ('A' for Active; 'I' for Inactive)
REMARK       I    between atoms: C1_2  and  N2_4
REMARK       I    between atoms: C2_6  and  N3_7
REMARK       I    between atoms: C2_6  and  N4_19
REMARK    1  A    between atoms: N3_7  and  C3_9
REMARK    2  A    between atoms: C15_22  and  N5_23
REMARK    3  A    between atoms: C15_22  and  C20_30
REMARK       I    between atoms: N5_23  and  C16_25
REMARK    4  A    between atoms: C16_25  and  C17_27
ROOT
HETATM    1  N1  UNL     1      14.658  -0.369   9.870  1.00  0.00    -0.039 NA
HETATM    2  C1  UNL     1      13.642  -0.618   8.916  1.00  0.00     0.346 C
HETATM    3  O1  UNL     1      12.564  -1.181   9.311  1.00  0.00    -0.250 OA
HETATM    4  N2  UNL     1      13.739  -0.290   7.571  1.00  0.00    -0.144 N
ATOM      5  H2  UNL     1      13.469   0.664   7.331  1.00  0.00     0.188 HD
HETATM    6  C2  UNL     1      14.121  -1.015   6.592  1.00  0.00     0.680 C
HETATM    7  N3  UNL     1      14.171  -0.536   5.246  1.00  0.00    -0.217 N
ATOM      8  H3  UNL     1      14.743  -1.042   4.571  1.00  0.00     0.178 HD
HETATM    9  N4  UNL     1      14.504  -2.353   6.881  1.00  0.00    -0.215 N
HETATM   10  C13 UNL     1      13.628  -3.500   6.934  1.00  0.00     0.144 C
HETATM   11  C14 UNL     1      14.562  -4.653   6.680  1.00  0.00     0.063 C
HETATM   12  C15 UNL     1      15.865  -4.210   7.225  1.00  0.00     0.129 C
HETATM   13  C21 UNL     1      15.866  -2.720   7.152  1.00  0.00     0.182 C
ENDROOT
BRANCH   7  14
HETATM   14  C3  UNL     1      13.452   0.625   4.802  1.00  0.00     0.048 C
HETATM   15  C4  UNL     1      12.014   0.254   4.474  1.00  0.00     0.036 C
HETATM   16  C5  UNL     1      11.269   1.429   3.924  1.00  0.00    -0.012 C
HETATM   17  C6  UNL     1      11.844   1.911   2.609  1.00  0.00     0.009 C
HETATM   18  C10 UNL     1      11.337   2.543   4.939  1.00  0.00     0.009 C
HETATM   19  C7  UNL     1      13.308   2.218   2.861  1.00  0.00    -0.012 C
HETATM   20  C8  UNL     1      13.327   3.418   3.812  1.00  0.00     0.009 C
HETATM   21  C12 UNL     1      14.053   1.077   3.461  1.00  0.00     0.036 C
HETATM   22  C9  UNL     1      12.767   2.948   5.114  1.00  0.00    -0.012 C
HETATM   23  C11 UNL     1      13.553   1.806   5.718  1.00  0.00     0.036 C
ENDBRANCH   7  14
BRANCH  12  24
HETATM   24  N5  UNL     1      16.997  -4.792   6.513  1.00  0.00    -0.342 N
HETATM   25  C16 UNL     1      17.188  -4.723   5.128  1.00  0.00     0.222 C
HETATM   26  O2  UNL     1      16.388  -4.139   4.332  1.00  0.00    -0.273 OA
ATOM     27  H5  UNL     1      17.700  -5.286   7.064  1.00  0.00     0.163 HD
BRANCH  25  28
HETATM   28  C17 UNL     1      18.377  -5.352   4.514  1.00  0.00     0.078 A
HETATM   29  C18 UNL     1      18.824  -4.835   3.189  1.00  0.00     0.015 A
HETATM   30  C19 UNL     1      19.642  -4.528   4.421  1.00  0.00     0.015 A
ENDBRANCH  25  28
ENDBRANCH  12  24
BRANCH  12  31
HETATM   31  C20 UNL     1      15.950  -4.589   8.667  1.00  0.00     0.261 C
HETATM   32  N6  UNL     1      16.607  -5.743   9.149  1.00  0.00    -0.060 NA
HETATM   33  O3  UNL     1      15.401  -3.833   9.515  1.00  0.00    -0.274 OA
ENDBRANCH  12  31
TORSDOF 4
ENDMDL