MODEL 4
REMARK VINA RESULT: -8.185566780      2.913      5.274
REMARK  5 active torsions:
REMARK  status: ('A' for Active; 'I' for Inactive)
REMARK       I    between atoms: N1_7  and  C7_8
REMARK    1  A    between atoms: C7_8  and  C8_10
REMARK       I    between atoms: N2_14  and  C12_15
REMARK       I    between atoms: C12_15  and  N3_17
REMARK    2  A    between atoms: N3_17  and  C13_19
REMARK    3  A    between atoms: C13_19  and  C14_23
REMARK    4  A    between atoms: C14_23  and  C15_24
REMARK    5  A    between atoms: C17_26  and  C18_27
REMARK       I    between atoms: C18_27  and  N5_29
ROOT
HETATM    1  C1  UNL     1      19.330  -6.726   3.116  1.00  0.00     0.012 C
HETATM    2  C2  UNL     1      18.226  -6.588   2.658  1.00  0.00    -0.112 C
HETATM    3  C3  UNL     1      16.888  -6.447   2.111  1.00  0.00     0.071 C
HETATM    4  C4  UNL     1      15.847  -6.826   3.142  1.00  0.00     0.024 C
HETATM    5  C5  UNL     1      15.095  -5.574   2.765  1.00  0.00     0.013 C
HETATM    6  C6  UNL     1      14.858  -4.665   3.945  1.00  0.00     0.132 C
HETATM    7  N1  UNL     1      16.058  -3.939   4.204  1.00  0.00    -0.333 N
HETATM    8  C7  UNL     1      16.430  -3.167   5.350  1.00  0.00     0.267 C
HETATM    9  O1  UNL     1      17.593  -2.651   5.304  1.00  0.00    -0.266 OA
HETATM   10  C17 UNL     1      16.936  -4.087   3.046  1.00  0.00     0.185 C
HETATM   11  C20 UNL     1      16.320  -5.049   2.124  1.00  0.00     0.039 C
ENDROOT
BRANCH  10  12
HETATM   12  C18 UNL     1      17.111  -2.795   2.339  1.00  0.00     0.247 C
HETATM   13  O3  UNL     1      16.343  -1.847   2.627  1.00  0.00    -0.271 OA
HETATM   14  N5  UNL     1      18.100  -2.564   1.353  1.00  0.00    -0.302 N
HETATM   15  C19 UNL     1      19.288  -2.150   1.637  1.00  0.00     0.203 C
ATOM     16  H5  UNL     1      17.863  -2.733   0.376  1.00  0.00     0.171 HD
HETATM   17  N6  UNL     1      19.612  -1.919   2.999  1.00  0.00    -0.066 NA
HETATM   18  N7  UNL     1      20.275  -1.919   0.657  1.00  0.00    -0.066 NA
ENDBRANCH  10  12
BRANCH   8  19
HETATM   19  C8  UNL     1      15.670  -2.914   6.509  1.00  0.00     0.084 C
HETATM   20  C9  UNL     1      14.865  -3.986   7.188  1.00  0.00     0.065 C
HETATM   21  C10 UNL     1      14.632  -3.277   8.534  1.00  0.00     0.026 C
HETATM   22  C11 UNL     1      14.378  -1.854   8.119  1.00  0.00     0.134 C
HETATM   23  N2  UNL     1      14.774  -1.820   6.664  1.00  0.00    -0.298 N
HETATM   24  C12 UNL     1      14.163  -0.836   5.853  1.00  0.00     0.328 C
HETATM   25  O2  UNL     1      14.348  -0.880   4.615  1.00  0.00    -0.246 OA
HETATM   26  N3  UNL     1      13.344   0.199   6.430  1.00  0.00    -0.298 N
ATOM     27  H3  UNL     1      13.250   0.172   7.445  1.00  0.00     0.172 HD
BRANCH  26  28
HETATM   28  C13 UNL     1      12.670   1.223   5.796  1.00  0.00     0.078 C
HETATM   29  N4  UNL     1      11.693   0.844   4.969  1.00  0.00    -0.389 N
ATOM     30  H42 UNL     1      11.482  -0.150   4.871  1.00  0.00     0.157 HD
ATOM     31  H41 UNL     1      11.194   1.601   4.500  1.00  0.00     0.157 HD
BRANCH  28  32
HETATM   32  C14 UNL     1      12.972   2.647   5.936  1.00  0.00     0.076 C
BRANCH  32  33
HETATM   33  C15 UNL     1      12.871   3.454   4.683  1.00  0.00     0.003 C
HETATM   34  C16 UNL     1      12.447   4.886   4.956  1.00  0.00     0.005 C
ENDBRANCH  32  33
ENDBRANCH  28  32
ENDBRANCH  26  28
ENDBRANCH   8  19
TORSDOF 5
ENDMDL