MODEL 4
REMARK VINA RESULT: -9.044065558      2.894      4.496
REMARK  8 active torsions:
REMARK  status: ('A' for Active; 'I' for Inactive)
REMARK    1  A    between atoms: C3_3  and  C4_4
REMARK    2  A    between atoms: C7_7  and  O1_8
REMARK    3  A    between atoms: C10_12  and  C11_13
REMARK    4  A    between atoms: C11_13  and  C12_14
REMARK    5  A    between atoms: C12_14  and  C13_15
REMARK    6  A    between atoms: C15_19  and  O4_20
REMARK    7  A    between atoms: C16_22  and  C17_23
REMARK    8  A    between atoms: C18_26  and  N1_27
ROOT
HETATM    1  C4  UNL     1     -45.843  14.313 -12.477  1.00  0.00    -0.016 A
HETATM    2  C5  UNL     1     -46.626  13.973 -11.403  1.00  0.00     0.027 A
HETATM    3  C6  UNL     1     -46.724  14.744 -10.232  1.00  0.00     0.012 A
HETATM    4  C7  UNL     1     -47.532  14.284  -9.213  1.00  0.00     0.088 A
HETATM    5  C8  UNL     1     -47.590  15.048  -8.071  1.00  0.00     0.014 A
HETATM    6  C9  UNL     1     -46.888  16.214  -7.934  1.00  0.00    -0.003 A
HETATM    7  C10 UNL     1     -46.082  16.675  -8.965  1.00  0.00    -0.034 A
HETATM    8  C14 UNL     1     -45.999  15.908 -10.148  1.00  0.00     0.018 A
HETATM    9  C15 UNL     1     -45.184  16.305 -11.205  1.00  0.00     0.095 A
HETATM   10  C16 UNL     1     -45.127  15.484 -12.364  1.00  0.00     0.085 A
HETATM   11  C18 UNL     1     -47.164  16.699  -6.602  1.00  0.00     0.247 A
HETATM   12  C19 UNL     1     -48.162  15.719  -6.020  1.00  0.00    -0.038 A
HETATM   13  C20 UNL     1     -48.382  14.796  -6.840  1.00  0.00    -0.039 A
HETATM   14  C21 UNL     1     -49.314  14.067  -5.974  1.00  0.00     0.044 A
HETATM   15  C22 UNL     1     -49.089  15.153  -5.025  1.00  0.00     0.042 A
ENDROOT
BRANCH   7  16
HETATM   16  C11 UNL     1     -45.412  17.959  -8.999  1.00  0.00     0.051 C
BRANCH  16  17
HETATM   17  C12 UNL     1     -46.059  19.117  -8.217  1.00  0.00     0.117 C
BRANCH  17  18
HETATM   18  C13 UNL     1     -44.942  19.706  -7.326  1.00  0.00     0.172 C
HETATM   19  O2  UNL     1     -44.210  20.612  -7.779  1.00  0.00    -0.648 OA
HETATM   20  O3  UNL     1     -44.788  19.203  -6.044  1.00  0.00    -0.648 OA
ENDBRANCH  17  18
ENDBRANCH  16  17
ENDBRANCH   7  16
BRANCH  11  21
HETATM   21  N1  UNL     1     -45.988  16.458  -5.705  1.00  0.00    -0.067 N
ATOM     22  H13 UNL     1     -45.479  15.613  -5.963  1.00  0.00     0.275 HD
ATOM     23  H12 UNL     1     -45.243  17.137  -5.865  1.00  0.00     0.275 HD
ATOM     24  H11 UNL     1     -46.283  16.441  -4.729  1.00  0.00     0.275 HD
ENDBRANCH  11  21
BRANCH   9  25
HETATM   25  O4  UNL     1     -44.494  17.416 -11.101  1.00  0.00    -0.359 OA
ATOM     26  H4  UNL     1     -44.769  18.181 -11.592  1.00  0.00     0.217 HD
ENDBRANCH   9  25
BRANCH   4  27
HETATM   27  O1  UNL     1     -48.221  13.099  -9.404  1.00  0.00    -0.359 OA
ATOM     28  H1  UNL     1     -48.403  12.822 -10.295  1.00  0.00     0.217 HD
ENDBRANCH   4  27
BRANCH  10  29
HETATM   29  C17 UNL     1     -44.265  16.003 -13.400  1.00  0.00     0.213 C
HETATM   30  O5  UNL     1     -42.985  15.997 -13.254  1.00  0.00    -0.644 OA
HETATM   31  O6  UNL     1     -44.649  16.536 -14.591  1.00  0.00    -0.644 OA
ENDBRANCH  10  29
BRANCH   1  32
HETATM   32  C3  UNL     1     -45.776  13.486 -13.676  1.00  0.00     0.008 C
HETATM   33  C2  UNL     1     -46.554  12.618 -14.184  1.00  0.00    -0.030 C
HETATM   34  C1  UNL     1     -47.832  12.106 -13.761  1.00  0.00     0.036 C
ENDBRANCH   1  32
TORSDOF 8
ENDMDL