MODEL 2
REMARK VINA RESULT: -8.990512960      1.104      1.452
REMARK  7 active torsions:
REMARK  status: ('A' for Active; 'I' for Inactive)
REMARK    1  A    between atoms: C3_3  and  C4_4
REMARK    2  A    between atoms: C5_5  and  N1_6
REMARK    3  A    between atoms: N1_6  and  C6_8
REMARK    4  A    between atoms: C7_9  and  O1_10
REMARK    5  A    between atoms: C8_12  and  C9_13
REMARK    6  A    between atoms: C14_26  and  N6_27
REMARK    7  A    between atoms: N6_27  and  C15_29
ROOT
HETATM    1  C9  UNL     1     -42.998  15.638 -15.003  1.00  0.00     0.126 C
HETATM    2  C10 UNL     1     -43.791  15.879 -16.245  1.00  0.00     0.031 C
HETATM    3  C11 UNL     1     -41.600  15.988 -15.128  1.00  0.00     0.068 C
HETATM    4  N2  UNL     1     -40.493  16.285 -15.230  1.00  0.00    -0.197 NA
ENDROOT
BRANCH   1   5
HETATM    5  C8  UNL     1     -43.634  16.256 -13.855  1.00  0.00     0.010 A
HETATM    6  C7  UNL     1     -44.010  15.581 -12.715  1.00  0.00     0.105 A
HETATM    7  C6  UNL     1     -44.599  16.258 -11.700  1.00  0.00     0.112 A
HETATM    8  C13 UNL     1     -44.837  17.604 -11.765  1.00  0.00     0.129 A
HETATM    9  N3  UNL     1     -44.469  18.263 -12.877  1.00  0.00    -0.350 N
HETATM   10  N4  UNL     1     -45.392  18.277 -10.822  1.00  0.00    -0.384 N
HETATM   11  C12 UNL     1     -43.890  17.611 -13.883  1.00  0.00     0.101 A
ATOM     12  H3  UNL     1     -44.635  19.267 -12.950  1.00  0.00     0.166 HD
ATOM     13  H42 UNL     1     -45.670  17.776  -9.978  1.00  0.00     0.157 HD
ATOM     14  H41 UNL     1     -45.568  19.281 -10.870  1.00  0.00     0.157 HD
BRANCH   6  15
HETATM   15  O1  UNL     1     -43.775  14.243 -12.649  1.00  0.00    -0.358 OA
ATOM     16  H1  UNL     1     -44.166  13.632 -13.263  1.00  0.00     0.217 HD
ENDBRANCH   6  15
BRANCH   7  17
HETATM   17  N1  UNL     1     -44.997  15.564 -10.506  1.00  0.00    -0.336 N
ATOM     18  H1  UNL     1     -44.377  15.563  -9.695  1.00  0.00     0.168 HD
BRANCH  17  19
HETATM   19  C5  UNL     1     -46.230  14.884 -10.438  1.00  0.00     0.137 A
HETATM   20  C4  UNL     1     -47.041  14.938  -9.315  1.00  0.00     0.077 A
HETATM   21  C20 UNL     1     -48.230  14.223  -9.377  1.00  0.00     0.273 A
HETATM   22  N7  UNL     1     -48.561  13.513 -10.496  1.00  0.00    -0.155 N
HETATM   23  O2  UNL     1     -49.034  14.202  -8.423  1.00  0.00    -0.267 OA
HETATM   24  C14 UNL     1     -47.762  13.480 -11.560  1.00  0.00     0.682 A
ATOM     25  H7  UNL     1     -49.441  12.996 -10.516  1.00  0.00     0.187 HD
HETATM   26  N5  UNL     1     -46.630  14.160 -11.501  1.00  0.00    -0.176 N
ATOM     27  H5  UNL     1     -46.018  14.135 -12.316  1.00  0.00     0.186 HD
BRANCH  20  28
HETATM   28  C3  UNL     1     -46.681  15.690  -8.143  1.00  0.00     0.016 C
HETATM   29  C2  UNL     1     -46.936  16.914  -7.808  1.00  0.00    -0.030 C
HETATM   30  C1  UNL     1     -46.451  17.503  -6.507  1.00  0.00     0.036 C
ENDBRANCH  20  28
BRANCH  24  31
HETATM   31  N6  UNL     1     -48.161  12.779 -12.578  1.00  0.00    -0.221 N
ATOM     32  H6  UNL     1     -49.149  12.758 -12.832  1.00  0.00     0.178 HD
BRANCH  31  33
HETATM   33  C15 UNL     1     -47.212  12.038 -13.337  1.00  0.00     0.099 C
HETATM   34  C16 UNL     1     -46.571  12.907 -14.407  1.00  0.00     0.026 C
HETATM   35  C17 UNL     1     -47.122  12.435 -15.735  1.00  0.00     0.002 C
HETATM   36  C18 UNL     1     -48.402  11.760 -15.348  1.00  0.00     0.002 C
HETATM   37  C19 UNL     1     -47.965  10.962 -14.121  1.00  0.00     0.026 C
ENDBRANCH  31  33
ENDBRANCH  24  31
ENDBRANCH  17  19
ENDBRANCH   7  17
ENDBRANCH   1   5
TORSDOF 7
ENDMDL