MODEL 1
REMARK VINA RESULT: -7.848680557      0.000      0.000
REMARK  10 active torsions:
REMARK  status: ('A' for Active; 'I' for Inactive)
REMARK    1  A    between atoms: N1_1  and  C1_5
REMARK    2  A    between atoms: C1_5  and  C2_6
REMARK    3  A    between atoms: C2_6  and  N2_7
REMARK    4  A    between atoms: C10_15  and  C11_16
REMARK    5  A    between atoms: C11_16  and  C12_17
REMARK    6  A    between atoms: C13_18  and  O1_19
REMARK    7  A    between atoms: C14_23  and  O2_24
REMARK    8  A    between atoms: C15_26  and  C16_27
REMARK    9  A    between atoms: C19_30  and  O3_31
REMARK   10  A    between atoms: C20_33  and  O4_34
ROOT
HETATM    1  C12 UNL     1     -48.635  16.073  -6.035  1.00  0.00     0.009 A
HETATM    2  C13 UNL     1     -49.090  15.765  -4.782  1.00  0.00     0.149 A
HETATM    3  N3  UNL     1     -49.401  14.444  -4.719  1.00  0.00    -0.317 N
ATOM      4  H3  UNL     1     -49.763  13.949  -3.904  1.00  0.00     0.170 HD
HETATM    5  C14 UNL     1     -49.155  13.919  -5.895  1.00  0.00     0.153 A
HETATM    6  C15 UNL     1     -48.679  14.867  -6.757  1.00  0.00     0.036 A
ENDROOT
BRANCH   1   7
HETATM    7  C11 UNL     1     -48.201  17.335  -6.596  1.00  0.00     0.059 C
BRANCH   7   8
HETATM    8  C10 UNL     1     -46.895  17.926  -6.176  1.00  0.00    -0.000 C
HETATM    9  C5  UNL     1     -46.648  19.155  -7.049  1.00  0.00     0.004 C
HETATM   10  C4  UNL     1     -45.408  19.906  -6.670  1.00  0.00     0.050 C
HETATM   11  C6  UNL     1     -46.454  18.749  -8.498  1.00  0.00     0.006 C
HETATM   12  C3  UNL     1     -45.072  19.905  -5.222  1.00  0.00     0.063 C
HETATM   13  N2  UNL     1     -46.156  19.550  -4.424  1.00  0.00    -0.371 N
HETATM   14  C22 UNL     1     -47.006  18.483  -4.763  1.00  0.00     0.073 C
HETATM   15  C7  UNL     1     -45.357  17.765  -8.670  1.00  0.00     0.000 C
HETATM   16  C8  UNL     1     -44.931  16.983  -7.493  1.00  0.00     0.001 C
HETATM   17  C9  UNL     1     -45.744  17.012  -6.267  1.00  0.00     0.015 C
BRANCH  13  18
HETATM   18  C2  UNL     1     -46.779  20.614  -3.682  1.00  0.00     0.154 C
BRANCH  18  19
HETATM   19  C1  UNL     1     -47.152  20.099  -2.315  1.00  0.00     0.249 C
BRANCH  19  20
HETATM   20  N1  UNL     1     -45.969  19.947  -1.477  1.00  0.00    -0.078 N
ATOM     21  H13 UNL     1     -45.110  20.040  -2.018  1.00  0.00     0.274 HD
ATOM     22  H12 UNL     1     -45.845  20.743  -0.852  1.00  0.00     0.274 HD
ATOM     23  H11 UNL     1     -45.999  19.066  -0.965  1.00  0.00     0.274 HD
ENDBRANCH  19  20
ENDBRANCH  18  19
ENDBRANCH  13  18
ENDBRANCH   7   8
ENDBRANCH   1   7
BRANCH   2  24
HETATM   24  O1  UNL     1     -49.269  16.555  -3.649  1.00  0.00    -0.346 OA
ATOM     25  H1  UNL     1     -49.227  16.343  -2.724  1.00  0.00     0.219 HD
ENDBRANCH   2  24
BRANCH   6  26
HETATM   26  C16 UNL     1     -48.295  14.663  -8.172  1.00  0.00    -0.018 A
HETATM   27  C17 UNL     1     -49.238  14.402  -9.143  1.00  0.00     0.015 A
HETATM   28  C18 UNL     1     -48.882  14.184 -10.461  1.00  0.00     0.040 A
HETATM   29  C19 UNL     1     -47.554  14.218 -10.861  1.00  0.00     0.098 A
HETATM   30  C20 UNL     1     -46.612  14.477  -9.893  1.00  0.00     0.099 A
HETATM   31  C21 UNL     1     -46.978  14.697  -8.567  1.00  0.00     0.051 A
BRANCH  29  32
HETATM   32  O3  UNL     1     -47.212  13.995 -12.193  1.00  0.00    -0.358 OA
ATOM     33  H3  UNL     1     -46.860  14.700 -12.724  1.00  0.00     0.217 HD
ENDBRANCH  29  32
BRANCH  30  34
HETATM   34  O4  UNL     1     -45.281  14.514 -10.275  1.00  0.00    -0.358 OA
ATOM     35  H4  UNL     1     -44.843  13.688 -10.443  1.00  0.00     0.217 HD
ENDBRANCH  30  34
ENDBRANCH   6  26
BRANCH   5  36
HETATM   36  O2  UNL     1     -49.350  12.567  -6.228  1.00  0.00    -0.345 OA
ATOM     37  H2  UNL     1     -49.319  12.215  -7.110  1.00  0.00     0.219 HD
ENDBRANCH   5  36
TORSDOF 10
ENDMDL