MODEL 5
REMARK VINA RESULT: -9.733459711      1.839      2.856
REMARK  9 active torsions:
REMARK  status: ('A' for Active; 'I' for Inactive)
REMARK    1  A    between atoms: C3_3  and  O1_4
REMARK    2  A    between atoms: C3_3  and  N1_6
REMARK    3  A    between atoms: N1_6  and  C4_8
REMARK    4  A    between atoms: C4_8  and  C5_9
REMARK    5  A    between atoms: C5_9  and  C6_10
REMARK    6  A    between atoms: C6_10  and  C7_11
REMARK    7  A    between atoms: C9_15  and  O2_16
REMARK    8  A    between atoms: C11_19  and  O3_20
REMARK    9  A    between atoms: C16_26  and  O4_27
ROOT
HETATM    1  C1  UNL     1     -42.062  21.548 -11.487  1.00  0.00     0.016 C
HETATM    2  C2  UNL     1     -43.107  20.953 -11.403  1.00  0.00    -0.065 C
HETATM    3  C3  UNL     1     -44.393  20.224 -11.268  1.00  0.00     0.295 C
ENDROOT
BRANCH   3   4
HETATM    4  O1  UNL     1     -44.640  20.034  -9.891  1.00  0.00    -0.366 OA
ATOM      5  H1  UNL     1     -45.083  20.809  -9.566  1.00  0.00     0.213 HD
ENDBRANCH   3   4
BRANCH   3   6
HETATM    6  N1  UNL     1     -44.317  19.007 -12.006  1.00  0.00    -0.387 N
ATOM      7  H1  UNL     1     -43.436  18.669 -12.391  1.00  0.00     0.156 HD
BRANCH   6   8
HETATM    8  C4  UNL     1     -45.536  18.286 -12.179  1.00  0.00     0.117 C
BRANCH   8   9
HETATM    9  C5  UNL     1     -45.288  16.797 -12.187  1.00  0.00     0.025 C
BRANCH   9  10
HETATM   10  C6  UNL     1     -44.752  16.227 -10.934  1.00  0.00     0.059 C
BRANCH  10  11
HETATM   11  C7  UNL     1     -45.580  16.219  -9.746  1.00  0.00     0.016 A
HETATM   12  N2  UNL     1     -45.373  17.233  -8.849  1.00  0.00    -0.356 N
HETATM   13  C8  UNL     1     -46.083  17.348  -7.719  1.00  0.00     0.080 A
ATOM     14  H2  UNL     1     -44.652  17.926  -9.049  1.00  0.00     0.166 HD
HETATM   15  C9  UNL     1     -45.849  18.378  -6.825  1.00  0.00     0.107 A
HETATM   16  C17 UNL     1     -47.073  16.435  -7.407  1.00  0.00     0.034 A
HETATM   17  C10 UNL     1     -46.561  18.520  -5.655  1.00  0.00     0.045 A
HETATM   18  C11 UNL     1     -46.324  19.555  -4.741  1.00  0.00     0.079 A
HETATM   19  C15 UNL     1     -47.556  17.596  -5.357  1.00  0.00     0.014 A
HETATM   20  C12 UNL     1     -47.103  19.611  -3.563  1.00  0.00     0.037 A
HETATM   21  C13 UNL     1     -48.073  18.692  -3.293  1.00  0.00     0.004 A
HETATM   22  C14 UNL     1     -48.312  17.659  -4.207  1.00  0.00     0.015 A
HETATM   23  C16 UNL     1     -47.810  16.559  -6.230  1.00  0.00     0.090 A
HETATM   24  C18 UNL     1     -47.332  15.403  -8.251  1.00  0.00    -0.035 A
HETATM   25  C19 UNL     1     -46.551  15.308  -9.449  1.00  0.00    -0.028 A
HETATM   26  C23 UNL     1     -48.300  14.336  -8.129  1.00  0.00     0.040 C
HETATM   27  C20 UNL     1     -46.739  14.183 -10.394  1.00  0.00     0.041 C
HETATM   28  C21 UNL     1     -48.101  13.556 -10.408  1.00  0.00     0.005 C
HETATM   29  C22 UNL     1     -49.056  14.283  -9.446  1.00  0.00     0.005 C
BRANCH  15  30
HETATM   30  O2  UNL     1     -44.859  19.274  -7.147  1.00  0.00    -0.357 OA
ATOM     31  H2  UNL     1     -44.847  20.096  -6.670  1.00  0.00     0.217 HD
ENDBRANCH  15  30
BRANCH  18  32
HETATM   32  O3  UNL     1     -45.384  20.474  -4.963  1.00  0.00    -0.360 OA
ATOM     33  H3  UNL     1     -45.091  21.057  -4.273  1.00  0.00     0.217 HD
ENDBRANCH  18  32
BRANCH  23  34
HETATM   34  O4  UNL     1     -48.776  15.633  -5.981  1.00  0.00    -0.359 OA
ATOM     35  H4  UNL     1     -49.610  15.647  -6.435  1.00  0.00     0.217 HD
ENDBRANCH  23  34
ENDBRANCH  10  11
ENDBRANCH   9  10
ENDBRANCH   8   9
ENDBRANCH   6   8
ENDBRANCH   3   6
TORSDOF 9
ENDMDL