MODEL 1
REMARK VINA RESULT: -9.443238010      0.000      0.000
REMARK  10 active torsions:
REMARK  status: ('A' for Active; 'I' for Inactive)
REMARK    1  A    between atoms: C3_3  and  O1_4
REMARK    2  A    between atoms: C4_6  and  O2_7
REMARK    3  A    between atoms: C10_14  and  C11_15
REMARK    4  A    between atoms: C11_15  and  O3_16
REMARK    5  A    between atoms: C11_15  and  C12_18
REMARK    6  A    between atoms: C12_18  and  N1_19
REMARK    7  A    between atoms: N1_19  and  C13_22
REMARK    8  A    between atoms: C13_22  and  C14_23
REMARK    9  A    between atoms: C21_30  and  O4_31
REMARK   10  A    between atoms: C23_34  and  O5_35
ROOT
HETATM    1  C1  UNL     1     -45.260  18.074  -6.477  1.00  0.00     0.052 C
HETATM    2  C2  UNL     1     -46.272  16.986  -6.634  1.00  0.00    -0.015 A
HETATM    3  C3  UNL     1     -47.062  16.591  -5.597  1.00  0.00     0.106 A
HETATM    4  C4  UNL     1     -48.012  15.614  -5.831  1.00  0.00     0.106 A
HETATM    5  C5  UNL     1     -48.193  15.014  -7.102  1.00  0.00    -0.014 A
HETATM    6  C6  UNL     1     -49.051  13.841  -7.221  1.00  0.00     0.052 C
HETATM    7  C7  UNL     1     -47.377  15.461  -8.105  1.00  0.00    -0.003 A
HETATM    8  C8  UNL     1     -47.495  14.958  -9.368  1.00  0.00     0.012 A
HETATM    9  C9  UNL     1     -46.618  15.421 -10.402  1.00  0.00    -0.033 A
HETATM   10  C10 UNL     1     -45.649  16.372 -10.201  1.00  0.00    -0.020 A
HETATM   11  C18 UNL     1     -45.570  16.868  -8.927  1.00  0.00     0.023 A
HETATM   12  C19 UNL     1     -46.394  16.448  -7.901  1.00  0.00    -0.015 A
HETATM   13  C20 UNL     1     -46.768  14.641 -11.644  1.00  0.00     0.072 C
HETATM   14  C21 UNL     1     -47.100  13.165 -11.389  1.00  0.00     0.128 C
HETATM   15  C22 UNL     1     -48.341  12.910 -10.638  1.00  0.00     0.097 C
HETATM   16  C23 UNL     1     -48.618  14.116  -9.763  1.00  0.00     0.057 C
ENDROOT
BRANCH  10  17
HETATM   17  C11 UNL     1     -44.912  16.902 -11.344  1.00  0.00     0.177 C
BRANCH  17  18
HETATM   18  O3  UNL     1     -45.598  17.471 -12.354  1.00  0.00    -0.389 OA
ATOM     19  H3  UNL     1     -45.318  18.318 -12.678  1.00  0.00     0.210 HD
ENDBRANCH  17  18
BRANCH  17  20
HETATM   20  C12 UNL     1     -43.839  15.910 -11.740  1.00  0.00     0.268 C
BRANCH  20  21
HETATM   21  N1  UNL     1     -42.596  16.533 -12.144  1.00  0.00    -0.072 N
ATOM     22  H12 UNL     1     -42.518  17.494 -11.811  1.00  0.00     0.277 HD
ATOM     23  H11 UNL     1     -41.791  16.144 -11.652  1.00  0.00     0.277 HD
BRANCH  21  24
HETATM   24  C13 UNL     1     -42.457  16.436 -13.604  1.00  0.00     0.237 C
BRANCH  24  25
HETATM   25  C14 UNL     1     -42.082  17.812 -14.074  1.00  0.00     0.011 C
HETATM   26  C15 UNL     1     -40.654  17.938 -14.616  1.00  0.00     0.006 C
HETATM   27  C16 UNL     1     -40.647  19.319 -13.916  1.00  0.00     0.001 C
HETATM   28  C17 UNL     1     -41.552  18.672 -12.887  1.00  0.00     0.006 C
ENDBRANCH  24  25
ENDBRANCH  21  24
ENDBRANCH  20  21
ENDBRANCH  17  20
ENDBRANCH  10  17
BRANCH  16  29
HETATM   29  O5  UNL     1     -49.954  14.519  -9.645  1.00  0.00    -0.364 OA
ATOM     30  H5  UNL     1     -50.685  13.916  -9.710  1.00  0.00     0.217 HD
ENDBRANCH  16  29
BRANCH  14  31
HETATM   31  O4  UNL     1     -47.193  12.605 -12.659  1.00  0.00    -0.395 OA
ATOM     32  H4  UNL     1     -46.318  12.284 -12.842  1.00  0.00     0.210 HD
ENDBRANCH  14  31
BRANCH   3  33
HETATM   33  O1  UNL     1     -46.946  17.132  -4.348  1.00  0.00    -0.357 OA
ATOM     34  H1  UNL     1     -46.446  16.711  -3.659  1.00  0.00     0.217 HD
ENDBRANCH   3  33
BRANCH   4  35
HETATM   35  O2  UNL     1     -48.817  15.213  -4.783  1.00  0.00    -0.357 OA
ATOM     36  H2  UNL     1     -49.410  14.484  -4.921  1.00  0.00     0.217 HD
ENDBRANCH   4  35
TORSDOF 10
ENDMDL