MODEL 4
REMARK VINA RESULT: -8.395918784      0.950      3.163
REMARK  8 active torsions:
REMARK  status: ('A' for Active; 'I' for Inactive)
REMARK    1  A    between atoms: N1_2  and  C2_4
REMARK    2  A    between atoms: C4_10  and  N4_11
REMARK    3  A    between atoms: N6_18  and  C7_19
REMARK    4  A    between atoms: C7_19  and  C8_20
REMARK    5  A    between atoms: C8_20  and  C9_21
REMARK    6  A    between atoms: C12_24  and  N7_25
REMARK    7  A    between atoms: N7_25  and  C13_27
REMARK    8  A    between atoms: C17_31  and  N8_33
ROOT
HETATM    1  C7  UNL     1     -46.060  18.294  -8.441  1.00  0.00     0.148 C
ENDROOT
BRANCH   1   2
HETATM    2  N6  UNL     1     -45.935  18.879  -7.118  1.00  0.00    -0.178 N
HETATM    3  C2  UNL     1     -45.049  19.856  -6.742  1.00  0.00     0.682 A
HETATM    4  N2  UNL     1     -45.284  20.101  -5.457  1.00  0.00    -0.174 N
HETATM    5  C3  UNL     1     -46.279  19.331  -4.982  1.00  0.00     0.165 A
ATOM      6  H2  UNL     1     -44.774  20.787  -4.901  1.00  0.00     0.186 HD
HETATM    7  N3  UNL     1     -46.887  19.192  -3.795  1.00  0.00    -0.174 N
HETATM    8  C6  UNL     1     -46.685  18.554  -6.057  1.00  0.00     0.112 A
HETATM    9  C4  UNL     1     -47.897  18.316  -3.585  1.00  0.00     0.677 A
ATOM     10  H3  UNL     1     -46.574  19.772  -3.016  1.00  0.00     0.186 HD
HETATM   11  N5  UNL     1     -48.309  17.550  -4.609  1.00  0.00    -0.200 N
HETATM   12  C5  UNL     1     -47.721  17.663  -5.821  1.00  0.00     0.140 A
ATOM     13  H5  UNL     1     -49.068  16.882  -4.472  1.00  0.00     0.183 HD
BRANCH   3  14
HETATM   14  N1  UNL     1     -44.209  20.339  -7.591  1.00  0.00    -0.230 N
HETATM   15  C1  UNL     1     -43.430  21.511  -7.197  1.00  0.00     0.165 C
ATOM     16  H1  UNL     1     -44.091  19.915  -8.511  1.00  0.00     0.177 HD
ENDBRANCH   3  14
BRANCH   9  17
HETATM   17  N4  UNL     1     -48.477  18.198  -2.417  1.00  0.00    -0.234 N
ATOM     18  H42 UNL     1     -48.257  18.865  -1.677  1.00  0.00     0.174 HD
ATOM     19  H41 UNL     1     -49.147  17.454  -2.222  1.00  0.00     0.174 HD
ENDBRANCH   9  17
ENDBRANCH   1   2
BRANCH   1  20
HETATM   20  C8  UNL     1     -45.844  16.808  -8.300  1.00  0.00     0.025 C
BRANCH  20  21
HETATM   21  C9  UNL     1     -46.597  16.015  -9.349  1.00  0.00    -0.013 C
HETATM   22  C10 UNL     1     -47.450  15.012  -8.557  1.00  0.00     0.007 C
HETATM   23  C11 UNL     1     -48.390  14.388  -9.544  1.00  0.00     0.025 C
HETATM   24  C12 UNL     1     -47.544  13.531 -10.517  1.00  0.00     0.077 C
HETATM   25  C19 UNL     1     -46.542  14.382 -11.189  1.00  0.00     0.025 C
HETATM   26  C20 UNL     1     -45.712  15.247 -10.250  1.00  0.00     0.007 C
BRANCH  24  27
HETATM   27  N7  UNL     1     -48.390  12.804 -11.364  1.00  0.00    -0.411 N
ATOM     28  H7  UNL     1     -49.403  12.882 -11.280  1.00  0.00     0.154 HD
BRANCH  27  29
HETATM   29  C13 UNL     1     -47.818  11.970 -12.322  1.00  0.00     0.112 C
HETATM   30  C14 UNL     1     -47.463  12.532 -13.662  1.00  0.00     0.027 C
HETATM   31  C15 UNL     1     -47.754  11.432 -14.702  1.00  0.00     0.004 C
HETATM   32  C16 UNL     1     -47.972  10.190 -13.854  1.00  0.00     0.040 C
HETATM   33  C17 UNL     1     -48.722  10.785 -12.685  1.00  0.00     0.140 C
HETATM   34  C18 UNL     1     -50.066  11.238 -13.155  1.00  0.00     0.048 C
BRANCH  33  35
HETATM   35  N8  UNL     1     -48.797   9.868 -11.566  1.00  0.00    -0.069 N
ATOM     36  H83 UNL     1     -48.076  10.053 -10.869  1.00  0.00     0.275 HD
ATOM     37  H82 UNL     1     -49.614  10.041 -10.982  1.00  0.00     0.275 HD
ATOM     38  H81 UNL     1     -48.764   8.908 -11.907  1.00  0.00     0.275 HD
ENDBRANCH  33  35
ENDBRANCH  27  29
ENDBRANCH  24  27
ENDBRANCH  20  21
ENDBRANCH   1  20
TORSDOF 8
ENDMDL