MODEL 5
REMARK VINA RESULT: -8.074559704      1.716      4.252
REMARK  9 active torsions:
REMARK  status: ('A' for Active; 'I' for Inactive)
REMARK    1  A    between atoms: O1_2  and  C2_3
REMARK    2  A    between atoms: C4_5  and  C5_6
REMARK    3  A    between atoms: C5_6  and  O2_7
REMARK    4  A    between atoms: C5_6  and  C6_9
REMARK    5  A    between atoms: C6_9  and  C7_10
REMARK    6  A    between atoms: C7_10  and  C8_11
REMARK    7  A    between atoms: C14_20  and  C15_21
REMARK    8  A    between atoms: C20_28  and  N3_29
REMARK    9  A    between atoms: C21_34  and  N5_35
ROOT
HETATM    1  C2  UNL     1     -46.727  12.979 -13.011  1.00  0.00     0.085 A
HETATM    2  C3  UNL     1     -46.262  13.601 -11.903  1.00  0.00     0.052 A
HETATM    3  C4  UNL     1     -45.321  14.655 -11.890  1.00  0.00     0.005 A
HETATM    4  C14 UNL     1     -44.849  15.073 -13.149  1.00  0.00    -0.009 A
HETATM    5  C19 UNL     1     -45.321  14.427 -14.311  1.00  0.00     0.073 A
HETATM    6  N2  UNL     1     -44.879  14.732 -15.528  1.00  0.00    -0.190 N
ATOM      7  H2  UNL     1     -44.191  15.479 -15.617  1.00  0.00     0.184 HD
HETATM    8  C20 UNL     1     -45.294  14.102 -16.662  1.00  0.00     0.677 A
HETATM    9  N4  UNL     1     -46.189  13.121 -16.561  1.00  0.00    -0.176 N
ATOM     10  H4  UNL     1     -46.507  12.644 -17.405  1.00  0.00     0.186 HD
HETATM   11  C21 UNL     1     -46.676  12.753 -15.375  1.00  0.00     0.130 A
HETATM   12  C22 UNL     1     -46.252  13.392 -14.234  1.00  0.00     0.069 A
ENDROOT
BRANCH   3  13
HETATM   13  C5  UNL     1     -44.900  15.009 -10.612  1.00  0.00     0.054 C
BRANCH  13  14
HETATM   14  O2  UNL     1     -44.047  15.819 -10.054  1.00  0.00    -0.364 OA
ATOM     15  H2  UNL     1     -43.407  15.807  -9.352  1.00  0.00     0.217 HD
ENDBRANCH  13  14
BRANCH  13  16
HETATM   16  C6  UNL     1     -46.100  15.125  -9.593  1.00  0.00     0.065 C
BRANCH  16  17
HETATM   17  C7  UNL     1     -46.019  16.365  -8.794  1.00  0.00     0.011 C
BRANCH  17  18
HETATM   18  C8  UNL     1     -46.697  16.293  -7.460  1.00  0.00    -0.013 C
HETATM   19  C9  UNL     1     -47.983  15.504  -7.506  1.00  0.00     0.006 C
HETATM   20  C10 UNL     1     -48.183  14.706  -6.230  1.00  0.00     0.028 C
HETATM   21  C11 UNL     1     -48.733  15.583  -5.126  1.00  0.00     0.232 C
HETATM   22  N1  UNL     1     -47.663  16.546  -4.825  1.00  0.00    -0.075 N
HETATM   23  C12 UNL     1     -47.828  17.665  -5.700  1.00  0.00     0.232 C
ATOM     24  H12 UNL     1     -47.635  16.812  -3.841  1.00  0.00     0.277 HD
ATOM     25  H11 UNL     1     -46.731  16.134  -4.878  1.00  0.00     0.277 HD
HETATM   26  C13 UNL     1     -46.849  17.649  -6.869  1.00  0.00     0.032 C
ENDBRANCH  17  18
ENDBRANCH  16  17
ENDBRANCH  13  16
ENDBRANCH   3  13
BRANCH   4  27
HETATM   27  C15 UNL     1     -44.001  16.207 -13.167  1.00  0.00    -0.021 C
HETATM   28  C16 UNL     1     -44.558  17.522 -12.637  1.00  0.00     0.019 C
HETATM   29  C17 UNL     1     -43.640  16.518 -14.699  1.00  0.00     0.019 C
HETATM   30  C18 UNL     1     -42.584  16.229 -12.681  1.00  0.00     0.019 C
ENDBRANCH   4  27
BRANCH   1  31
HETATM   31  O1  UNL     1     -47.654  11.948 -13.003  1.00  0.00    -0.355 OA
HETATM   32  C1  UNL     1     -48.758  11.959 -12.120  1.00  0.00     0.210 C
ENDBRANCH   1  31
BRANCH  11  33
HETATM   33  N5  UNL     1     -47.533  11.815 -15.277  1.00  0.00    -0.384 N
ATOM     34  H52 UNL     1     -47.461  11.155 -14.504  1.00  0.00     0.157 HD
ATOM     35  H51 UNL     1     -48.287  11.717 -15.959  1.00  0.00     0.157 HD
ENDBRANCH  11  33
BRANCH   8  36
HETATM   36  N3  UNL     1     -44.796  14.500 -17.773  1.00  0.00    -0.234 N
ATOM     37  H32 UNL     1     -44.291  15.379 -17.886  1.00  0.00     0.174 HD
ATOM     38  H31 UNL     1     -44.914  13.893 -18.584  1.00  0.00     0.174 HD
ENDBRANCH   8  36
TORSDOF 9
ENDMDL