MODEL 4
REMARK VINA RESULT: -8.354392129      2.917      5.523
REMARK  10 active torsions:
REMARK  status: ('A' for Active; 'I' for Inactive)
REMARK    1  A    between atoms: C3_3  and  C4_4
REMARK    2  A    between atoms: C8_10  and  N2_11
REMARK    3  A    between atoms: C9_16  and  N4_17
REMARK    4  A    between atoms: N4_17  and  C10_19
REMARK    5  A    between atoms: C10_19  and  C11_20
REMARK    6  A    between atoms: C11_20  and  C12_21
REMARK    7  A    between atoms: C12_21  and  C13_22
REMARK    8  A    between atoms: C13_22  and  N5_23
REMARK    9  A    between atoms: C14_24  and  O1_25
REMARK   10  A    between atoms: C17_29  and  O2_30
ROOT
HETATM    1  C10 UNL     1     -45.746  13.228 -12.925  1.00  0.00     0.121 C
ENDROOT
BRANCH   1   2
HETATM    2  N4  UNL     1     -45.481  13.963 -14.119  1.00  0.00    -0.375 N
ATOM      3  H4  UNL     1     -46.036  13.767 -14.952  1.00  0.00     0.161 HD
BRANCH   2   4
HETATM    4  C9  UNL     1     -44.562  14.866 -14.178  1.00  0.00     0.124 A
HETATM    5  C2  UNL     1     -44.274  15.400 -15.454  1.00  0.00     0.006 A
HETATM    6  C1  UNL     1     -45.025  14.885 -16.580  1.00  0.00     0.054 C
HETATM    7  C3  UNL     1     -43.316  16.356 -15.590  1.00  0.00     0.043 A
HETATM    8  N1  UNL     1     -42.681  16.745 -14.443  1.00  0.00    -0.194 N
HETATM    9  C8  UNL     1     -42.965  16.233 -13.258  1.00  0.00     0.677 A
ATOM     10  H1  UNL     1     -41.957  17.460 -14.505  1.00  0.00     0.184 HD
HETATM   11  N3  UNL     1     -43.915  15.280 -13.101  1.00  0.00    -0.177 N
ATOM     12  H3  UNL     1     -44.125  14.893 -12.181  1.00  0.00     0.186 HD
BRANCH   7  13
HETATM   13  C4  UNL     1     -43.010  16.925 -16.903  1.00  0.00    -0.007 C
HETATM   14  C5  UNL     1     -42.371  15.946 -17.846  1.00  0.00     0.021 C
HETATM   15  C6  UNL     1     -41.917  17.991 -16.645  1.00  0.00     0.021 C
HETATM   16  C7  UNL     1     -44.138  17.722 -17.515  1.00  0.00     0.021 C
ENDBRANCH   7  13
BRANCH   9  17
HETATM   17  N2  UNL     1     -42.359  16.605 -12.173  1.00  0.00    -0.234 N
ATOM     18  H22 UNL     1     -41.563  17.229 -12.304  1.00  0.00     0.174 HD
ATOM     19  H21 UNL     1     -42.653  16.297 -11.246  1.00  0.00     0.174 HD
ENDBRANCH   9  17
ENDBRANCH   2   4
ENDBRANCH   1   2
BRANCH   1  20
HETATM   20  C11 UNL     1     -47.209  13.235 -12.551  1.00  0.00     0.021 C
BRANCH  20  21
HETATM   21  C12 UNL     1     -47.504  14.165 -11.409  1.00  0.00     0.022 C
BRANCH  21  22
HETATM   22  C13 UNL     1     -46.531  13.805 -10.283  1.00  0.00     0.133 C
BRANCH  22  23
HETATM   23  N5  UNL     1     -46.504  14.966  -9.396  1.00  0.00    -0.306 N
HETATM   24  C14 UNL     1     -47.390  15.117  -8.378  1.00  0.00     0.153 A
HETATM   25  C15 UNL     1     -47.120  16.297  -7.726  1.00  0.00     0.024 A
HETATM   26  C16 UNL     1     -46.033  16.864  -8.384  1.00  0.00     0.090 A
HETATM   27  C21 UNL     1     -47.844  16.855  -6.546  1.00  0.00     0.045 C
HETATM   28  C17 UNL     1     -45.672  16.015  -9.418  1.00  0.00     0.172 A
HETATM   29  N6  UNL     1     -45.400  18.093  -8.065  1.00  0.00    -0.386 N
HETATM   30  C18 UNL     1     -45.937  19.187  -7.328  1.00  0.00     0.120 C
ATOM     31  H6  UNL     1     -44.445  18.206  -8.404  1.00  0.00     0.159 HD
HETATM   32  C19 UNL     1     -46.460  18.885  -5.970  1.00  0.00     0.020 C
HETATM   33  C20 UNL     1     -46.748  17.459  -5.665  1.00  0.00     0.006 C
BRANCH  24  34
HETATM   34  O1  UNL     1     -48.400  14.247  -8.036  1.00  0.00    -0.345 OA
ATOM     35  H1  UNL     1     -48.326  13.304  -7.942  1.00  0.00     0.219 HD
ENDBRANCH  24  34
BRANCH  28  36
HETATM   36  O2  UNL     1     -44.648  16.228 -10.292  1.00  0.00    -0.344 OA
ATOM     37  H2  UNL     1     -44.100  17.002 -10.350  1.00  0.00     0.219 HD
ENDBRANCH  28  36
ENDBRANCH  22  23
ENDBRANCH  21  22
ENDBRANCH  20  21
ENDBRANCH   1  20
TORSDOF 10
ENDMDL