MODEL 2
REMARK VINA RESULT: -7.942328263      0.299      2.623
REMARK  9 active torsions:
REMARK  status: ('A' for Active; 'I' for Inactive)
REMARK    1  A    between atoms: C2_2  and  C3_3
REMARK    2  A    between atoms: C3_3  and  C4_4
REMARK    3  A    between atoms: C6_6  and  C7_7
REMARK    4  A    between atoms: C9_9  and  O1_10
REMARK    5  A    between atoms: C10_12  and  C11_13
REMARK    6  A    between atoms: C11_13  and  N4_26
REMARK    7  A    between atoms: N1_14  and  C12_16
REMARK    8  A    between atoms: N4_26  and  C16_28
REMARK    9  A    between atoms: C20_35  and  O2_36
ROOT
HETATM    1  C11 UNL     1     -44.581  14.729 -14.802  1.00  0.00     0.120 C
HETATM    2  N1  UNL     1     -44.956  15.161 -15.944  1.00  0.00    -0.346 N
ATOM      3  H1  UNL     1     -45.949  15.078 -16.165  1.00  0.00     0.163 HD
ENDROOT
BRANCH   1   4
HETATM    4  C10 UNL     1     -45.583  14.157 -13.915  1.00  0.00     0.075 A
HETATM    5  C9  UNL     1     -46.410  13.122 -14.386  1.00  0.00     0.088 A
HETATM    6  C6  UNL     1     -47.357  12.555 -13.574  1.00  0.00    -0.024 A
HETATM    7  C5  UNL     1     -47.517  12.998 -12.256  1.00  0.00     0.020 A
HETATM    8  C4  UNL     1     -46.710  14.002 -11.806  1.00  0.00    -0.020 A
HETATM    9  C20 UNL     1     -45.754  14.579 -12.619  1.00  0.00     0.089 A
BRANCH   5  10
HETATM   10  O1  UNL     1     -46.228  12.701 -15.701  1.00  0.00    -0.359 OA
ATOM     11  H1  UNL     1     -46.403  13.276 -16.436  1.00  0.00     0.217 HD
ENDBRANCH   5  10
BRANCH   6  12
HETATM   12  C7  UNL     1     -48.216  11.471 -14.111  1.00  0.00     0.037 C
HETATM   13  C8  UNL     1     -49.379  11.124 -13.238  1.00  0.00     0.010 C
ENDBRANCH   6  12
BRANCH   8  14
HETATM   14  C3  UNL     1     -46.862  14.487 -10.413  1.00  0.00     0.067 C
BRANCH  14  15
HETATM   15  C2  UNL     1     -47.937  13.748  -9.712  1.00  0.00    -0.032 C
HETATM   16  C1  UNL     1     -48.886  14.389  -9.043  1.00  0.00     0.007 C
ENDBRANCH  14  15
ENDBRANCH   8  14
BRANCH   9  17
HETATM   17  O2  UNL     1     -44.950  15.611 -12.100  1.00  0.00    -0.359 OA
ATOM     18  H2  UNL     1     -44.303  16.018 -12.664  1.00  0.00     0.217 HD
ENDBRANCH   9  17
ENDBRANCH   1   4
BRANCH   1  19
HETATM   19  N4  UNL     1     -43.252  14.812 -14.418  1.00  0.00    -0.322 N
ATOM     20  H4  UNL     1     -42.772  13.937 -14.204  1.00  0.00     0.169 HD
BRANCH  19  21
HETATM   21  C16 UNL     1     -42.569  15.908 -14.310  1.00  0.00     0.150 A
HETATM   22  N5  UNL     1     -42.843  17.001 -13.601  1.00  0.00    -0.340 N
HETATM   23  C17 UNL     1     -42.010  17.998 -13.642  1.00  0.00     0.014 A
ATOM     24  H5  UNL     1     -43.691  17.055 -13.037  1.00  0.00     0.167 HD
HETATM   25  C18 UNL     1     -42.226  19.293 -12.875  1.00  0.00     0.068 C
HETATM   26  C19 UNL     1     -40.889  17.872 -14.416  1.00  0.00     0.077 A
HETATM   27  S1  UNL     1     -41.091  16.294 -15.059  1.00  0.00    -0.064 SA
ENDBRANCH  19  21
ENDBRANCH   1  19
BRANCH   2  28
HETATM   28  C12 UNL     1     -44.109  15.757 -16.951  1.00  0.00     0.311 C
HETATM   29  C13 UNL     1     -44.648  17.098 -17.411  1.00  0.00     0.286 C
HETATM   30  N2  UNL     1     -44.551  17.280 -18.837  1.00  0.00    -0.070 N
HETATM   31  C14 UNL     1     -45.271  16.252 -19.561  1.00  0.00     0.260 C
ATOM     32  H22 UNL     1     -44.857  18.214 -19.114  1.00  0.00     0.277 HD
ATOM     33  H21 UNL     1     -43.579  17.336 -19.140  1.00  0.00     0.277 HD
HETATM   34  C15 UNL     1     -44.943  14.875 -19.036  1.00  0.00     0.262 C
HETATM   35  N3  UNL     1     -43.892  14.861 -18.068  1.00  0.00    -0.051 N
ATOM     36  H32 UNL     1     -42.993  15.051 -18.512  1.00  0.00     0.279 HD
ATOM     37  H31 UNL     1     -43.722  13.911 -17.737  1.00  0.00     0.279 HD
ENDBRANCH   2  28
TORSDOF 9
ENDMDL