MODEL 5
REMARK VINA RESULT: -9.276617852      2.185      5.592
REMARK  8 active torsions:
REMARK  status: ('A' for Active; 'I' for Inactive)
REMARK    1  A    between atoms: C3_3  and  C4_4
REMARK    2  A    between atoms: C5_5  and  C6_6
REMARK    3  A    between atoms: C13_13  and  C14_14
REMARK    4  A    between atoms: C14_14  and  O1_15
REMARK    5  A    between atoms: C14_14  and  C15_17
REMARK    6  A    between atoms: C15_17  and  C16_18
REMARK    7  A    between atoms: C17_21  and  N2_22
REMARK    8  A    between atoms: C19_31  and  O3_32
ROOT
HETATM    1  C1  UNL     1     -48.788  14.125  -9.058  1.00  0.00     0.049 C
HETATM    2  C2  UNL     1     -47.618  14.241  -9.952  1.00  0.00    -0.043 A
HETATM    3  C3  UNL     1     -46.591  15.086  -9.592  1.00  0.00    -0.029 A
HETATM    4  C12 UNL     1     -45.487  15.183 -10.436  1.00  0.00     0.024 A
HETATM    5  C13 UNL     1     -45.442  14.443 -11.602  1.00  0.00     0.005 A
HETATM    6  C19 UNL     1     -46.496  13.598 -11.941  1.00  0.00     0.081 A
HETATM    7  C20 UNL     1     -47.599  13.480 -11.129  1.00  0.00    -0.021 A
HETATM    8  C21 UNL     1     -48.764  12.613 -11.415  1.00  0.00     0.052 C
ENDROOT
BRANCH   5   9
HETATM    9  C14 UNL     1     -44.300  14.502 -12.537  1.00  0.00     0.161 C
BRANCH   9  10
HETATM   10  O1  UNL     1     -43.111  14.658 -11.830  1.00  0.00    -0.390 OA
ATOM     11  H1  UNL     1     -43.256  15.203 -11.065  1.00  0.00     0.210 HD
ENDBRANCH   9  10
BRANCH   9  12
HETATM   12  C15 UNL     1     -44.539  15.573 -13.539  1.00  0.00     0.113 C
BRANCH  12  13
HETATM   13  C16 UNL     1     -43.524  15.619 -14.616  1.00  0.00     0.104 A
HETATM   14  N1  UNL     1     -43.822  15.358 -15.900  1.00  0.00    -0.180 N
HETATM   15  C17 UNL     1     -42.858  15.411 -16.868  1.00  0.00     0.681 A
ATOM     16  H1  UNL     1     -44.779  15.116 -16.156  1.00  0.00     0.185 HD
HETATM   17  N3  UNL     1     -41.592  15.726 -16.562  1.00  0.00    -0.141 N
HETATM   18  C18 UNL     1     -41.292  15.988 -15.280  1.00  0.00     0.339 A
ATOM     19  H3  UNL     1     -40.873  15.765 -17.285  1.00  0.00     0.189 HD
HETATM   20  O2  UNL     1     -40.100  16.282 -15.009  1.00  0.00    -0.246 OA
HETATM   21  N4  UNL     1     -42.249  15.932 -14.341  1.00  0.00    -0.297 N
ATOM     22  H4  UNL     1     -41.995  16.135 -13.374  1.00  0.00     0.172 HD
BRANCH  15  23
HETATM   23  N2  UNL     1     -43.190  15.151 -18.091  1.00  0.00    -0.234 N
ATOM     24  H22 UNL     1     -42.477  15.088 -18.817  1.00  0.00     0.174 HD
ATOM     25  H21 UNL     1     -44.176  15.012 -18.313  1.00  0.00     0.174 HD
ENDBRANCH  15  23
ENDBRANCH  12  13
ENDBRANCH   9  12
ENDBRANCH   5   9
BRANCH   6  26
HETATM   26  O3  UNL     1     -46.390  12.889 -13.115  1.00  0.00    -0.359 OA
ATOM     27  H3  UNL     1     -47.148  12.391 -13.397  1.00  0.00     0.217 HD
ENDBRANCH   6  26
BRANCH   3  28
HETATM   28  C4  UNL     1     -46.673  15.842  -8.376  1.00  0.00     0.008 C
HETATM   29  C5  UNL     1     -46.019  16.960  -8.102  1.00  0.00    -0.021 C
BRANCH  29  30
HETATM   30  C6  UNL     1     -46.220  17.632  -6.777  1.00  0.00     0.008 C
HETATM   31  C7  UNL     1     -45.769  16.742  -5.670  1.00  0.00     0.008 C
HETATM   32  C8  UNL     1     -46.786  15.763  -5.194  1.00  0.00     0.001 C
HETATM   33  C9  UNL     1     -48.105  16.429  -4.887  1.00  0.00     0.000 C
HETATM   34  C10 UNL     1     -48.592  17.072  -6.166  1.00  0.00     0.001 C
HETATM   35  C11 UNL     1     -47.632  18.097  -6.673  1.00  0.00     0.008 C
ENDBRANCH  29  30
ENDBRANCH   3  28
TORSDOF 8
ENDMDL