MODEL 2
REMARK VINA RESULT: -6.694289280      1.165      1.240
REMARK  3 active torsions:
REMARK  status: ('A' for Active; 'I' for Inactive)
REMARK    1  A    between atoms: N1_1  and  C1_4
REMARK    2  A    between atoms: N3_9  and  C3_10
REMARK    3  A    between atoms: N6_20  and  C8_22
ROOT
HETATM    1  C1  UNL     1       5.369 -12.200   2.088  1.00  0.00     0.149 A
HETATM    2  N2  UNL     1       4.800 -12.969   1.148  1.00  0.00    -0.290 N
ATOM      3  H2  UNL     1       4.173 -12.554   0.458  1.00  0.00     0.172 HD
HETATM    4  C2  UNL     1       5.056 -14.283   1.117  1.00  0.00     0.343 A
HETATM    5  O1  UNL     1       4.504 -15.010   0.212  1.00  0.00    -0.245 OA
HETATM    6  N3  UNL     1       5.879 -14.840   2.017  1.00  0.00    -0.234 N
HETATM    7  N5  UNL     1       6.430 -14.065   2.934  1.00  0.00    -0.276 N
ATOM      8  H5  UNL     1       7.056 -14.499   3.614  1.00  0.00     0.189 HD
HETATM    9  C7  UNL     1       6.219 -12.743   3.026  1.00  0.00     0.167 A
HETATM   10  N6  UNL     1       6.800 -12.066   3.954  1.00  0.00    -0.316 N
ATOM     11  H6  UNL     1       7.413 -12.562   4.602  1.00  0.00     0.170 HD
ENDROOT
BRANCH   6  12
HETATM   12  C3  UNL     1       6.178 -16.234   2.020  1.00  0.00     0.140 C
HETATM   13  C4  UNL     1       6.355 -16.820   3.395  1.00  0.00     0.056 C
HETATM   14  C5  UNL     1       7.724 -17.430   3.370  1.00  0.00     0.234 C
HETATM   15  N4  UNL     1       8.386 -17.007   2.180  1.00  0.00    -0.073 N
HETATM   16  C6  UNL     1       7.425 -16.562   1.229  1.00  0.00     0.259 C
ATOM     17  H42 UNL     1       9.097 -16.300   2.367  1.00  0.00     0.277 HD
ATOM     18  H41 UNL     1       8.995 -17.732   1.801  1.00  0.00     0.277 HD
ENDBRANCH   6  12
BRANCH   1  19
HETATM   19  N1  UNL     1       5.150 -10.920   2.156  1.00  0.00    -0.382 N
ATOM     20  H12 UNL     1       4.255 -10.582   1.802  1.00  0.00     0.157 HD
ATOM     21  H11 UNL     1       5.836 -10.275   2.547  1.00  0.00     0.157 HD
ENDBRANCH   1  19
BRANCH  10  22
HETATM   22  C8  UNL     1       6.633 -10.681   4.120  1.00  0.00     0.354 C
HETATM   23  O2  UNL     1       6.054 -10.212   5.130  1.00  0.00    -0.283 OA
ENDBRANCH  10  22
TORSDOF 3
ENDMDL