MODEL 4
REMARK VINA RESULT: -6.517295282      1.794      2.953
REMARK  2 active torsions:
REMARK  status: ('A' for Active; 'I' for Inactive)
REMARK       I    between atoms: C1_4  and  N3_6
REMARK       I    between atoms: N3_6  and  C2_8
REMARK    1  A    between atoms: N5_10  and  N6_12
REMARK    2  A    between atoms: C3_14  and  C4_15
ROOT
HETATM    1  N6  UNL     1       7.192 -14.099   3.752  1.00  0.00    -0.308 N
ATOM      2  H6  UNL     1       8.140 -13.986   3.395  1.00  0.00     0.186 HD
HETATM    3  C3  UNL     1       6.470 -15.102   3.381  1.00  0.00     0.125 C
ENDROOT
BRANCH   1   4
HETATM    4  N5  UNL     1       6.659 -13.175   4.646  1.00  0.00    -0.274 N
HETATM    5  C2  UNL     1       6.633 -11.934   4.322  1.00  0.00     0.209 C
HETATM    6  N3  UNL     1       7.147 -11.533   3.066  1.00  0.00    -0.304 N
HETATM    7  N4  UNL     1       6.103 -10.953   5.196  1.00  0.00    -0.062 NA
HETATM    8  C1  UNL     1       6.291 -10.897   2.128  1.00  0.00     0.188 C
ATOM      9  H3  UNL     1       8.127 -11.699   2.836  1.00  0.00     0.171 HD
HETATM   10  N1  UNL     1       5.013 -10.999   2.266  1.00  0.00    -0.373 N
HETATM   11  N2  UNL     1       6.862 -10.162   1.057  1.00  0.00    -0.064 NA
ATOM     12  H12 UNL     1       4.398 -10.542   1.592  1.00  0.00     0.158 HD
ATOM     13  H11 UNL     1       4.602 -11.527   3.036  1.00  0.00     0.158 HD
ATOM     14  H5  UNL     1       6.293 -13.481   5.548  1.00  0.00     0.189 HD
ENDBRANCH   1   4
BRANCH   3  15
HETATM   15  C4  UNL     1       6.992 -16.087   2.451  1.00  0.00     0.064 A
HETATM   16  C5  UNL     1       7.379 -17.343   2.862  1.00  0.00     0.107 A
HETATM   17  N7  UNL     1       7.866 -18.254   1.970  1.00  0.00    -0.361 N
HETATM   18  C6  UNL     1       7.982 -17.950   0.664  1.00  0.00     0.183 A
ATOM     19  H7  UNL     1       8.146 -19.178   2.297  1.00  0.00     0.166 HD
HETATM   20  N8  UNL     1       7.605 -16.728   0.264  1.00  0.00    -0.319 N
HETATM   21  C7  UNL     1       7.114 -15.791   1.112  1.00  0.00     0.259 A
ATOM     22  H8  UNL     1       7.691 -16.492  -0.724  1.00  0.00     0.169 HD
HETATM   23  O1  UNL     1       6.766 -14.650   0.717  1.00  0.00    -0.267 OA
ENDBRANCH   3  15
TORSDOF 2
ENDMDL