MODEL 5
REMARK VINA RESULT: -6.925513375      1.768      5.372
REMARK  3 active torsions:
REMARK  status: ('A' for Active; 'I' for Inactive)
REMARK    1  A    between atoms: C3_9  and  N3_10
REMARK    2  A    between atoms: N3_10  and  C4_12
REMARK    3  A    between atoms: C4_12  and  C5_13
ROOT
HETATM    1  O1  UNL     1       6.281 -10.059   6.708  1.00  0.00    -0.245 OA
HETATM    2  C1  UNL     1       6.822 -10.554   5.676  1.00  0.00     0.340 A
HETATM    3  N1  UNL     1       7.969 -11.254   5.802  1.00  0.00    -0.248 N
ATOM      4  H1  UNL     1       8.406 -11.388   6.715  1.00  0.00     0.192 HD
HETATM    5  N2  UNL     1       8.513 -11.762   4.702  1.00  0.00    -0.259 N
ATOM      6  H2  UNL     1       9.380 -12.293   4.783  1.00  0.00     0.190 HD
HETATM    7  C2  UNL     1       7.963 -11.603   3.484  1.00  0.00     0.303 A
HETATM    8  O2  UNL     1       8.528 -12.110   2.473  1.00  0.00    -0.263 OA
HETATM    9  C3  UNL     1       6.794 -10.884   3.394  1.00  0.00     0.176 A
HETATM   10  N7  UNL     1       6.238 -10.368   4.500  1.00  0.00    -0.289 N
ATOM     11  H7  UNL     1       5.371  -9.834   4.437  1.00  0.00     0.172 HD
ENDROOT
BRANCH   9  12
HETATM   12  N3  UNL     1       6.276 -10.738   2.220  1.00  0.00    -0.366 N
ATOM     13  H3  UNL     1       6.748 -10.106   1.572  1.00  0.00     0.161 HD
BRANCH  12  14
HETATM   14  C4  UNL     1       5.097 -11.393   1.759  1.00  0.00     0.185 C
BRANCH  14  15
HETATM   15  C5  UNL     1       5.366 -12.732   1.173  1.00  0.00     0.110 A
HETATM   16  N4  UNL     1       6.468 -13.086   0.487  1.00  0.00    -0.281 N
HETATM   17  N5  UNL     1       6.364 -14.372   0.113  1.00  0.00    -0.019 NA
ATOM     18  H4  UNL     1       7.258 -12.475   0.284  1.00  0.00     0.184 HD
HETATM   19  N6  UNL     1       5.204 -14.828   0.558  1.00  0.00    -0.248 N
HETATM   20  C6  UNL     1       4.555 -13.847   1.220  1.00  0.00     0.283 A
ATOM     21  H6  UNL     1       4.853 -15.777   0.421  1.00  0.00     0.187 HD
HETATM   22  O3  UNL     1       3.426 -13.955   1.765  1.00  0.00    -0.265 OA
ENDBRANCH  14  15
ENDBRANCH  12  14
ENDBRANCH   9  12
TORSDOF 3
ENDMDL