MODEL 1
REMARK VINA RESULT: -7.378966745      0.000      0.000
REMARK  3 active torsions:
REMARK  status: ('A' for Active; 'I' for Inactive)
REMARK    1  A    between atoms: N1_1  and  C1_4
REMARK    2  A    between atoms: C6_16  and  C7_17
REMARK    3  A    between atoms: C7_17  and  N5_18
ROOT
HETATM    1  C1  UNL     1       7.483 -11.155   5.529  1.00  0.00     0.680 A
HETATM    2  N2  UNL     1       7.050 -10.145   4.756  1.00  0.00    -0.155 N
ATOM      3  H2  UNL     1       7.060  -9.184   5.097  1.00  0.00     0.187 HD
HETATM    4  C2  UNL     1       6.597 -10.440   3.501  1.00  0.00     0.275 A
HETATM    5  O1  UNL     1       6.201  -9.495   2.797  1.00  0.00    -0.267 OA
HETATM    6  C3  UNL     1       6.589 -11.749   3.053  1.00  0.00     0.097 A
HETATM    7  C4  UNL     1       7.048 -12.763   3.894  1.00  0.00     0.134 A
HETATM    8  N3  UNL     1       7.484 -12.427   5.116  1.00  0.00    -0.176 N
ATOM      9  H3  UNL     1       7.823 -13.155   5.743  1.00  0.00     0.186 HD
HETATM   10  N4  UNL     1       7.110 -14.006   3.649  1.00  0.00    -0.375 N
ATOM     11  H4  UNL     1       7.486 -14.533   4.436  1.00  0.00     0.161 HD
HETATM   12  C5  UNL     1       6.787 -14.843   2.555  1.00  0.00     0.128 C
HETATM   13  C6  UNL     1       5.614 -14.352   1.740  1.00  0.00     0.034 C
HETATM   14  C8  UNL     1       5.953 -13.101   0.972  1.00  0.00     0.063 C
HETATM   15  C9  UNL     1       6.132 -11.901   1.826  1.00  0.00     0.044 C
HETATM   16  N6  UNL     1       5.729 -10.729   1.157  1.00  0.00    -0.106 NA
ENDROOT
BRANCH  13  17
HETATM   17  C7  UNL     1       5.305 -15.423   0.714  1.00  0.00     0.236 C
BRANCH  17  18
HETATM   18  N5  UNL     1       5.621 -14.909  -0.605  1.00  0.00    -0.079 N
ATOM     19  H53 UNL     1       4.883 -15.093  -1.283  1.00  0.00     0.274 HD
ATOM     20  H52 UNL     1       5.597 -13.890  -0.642  1.00  0.00     0.274 HD
ATOM     21  H51 UNL     1       6.522 -15.288  -0.896  1.00  0.00     0.274 HD
ENDBRANCH  17  18
ENDBRANCH  13  17
BRANCH   1  22
HETATM   22  N1  UNL     1       7.906 -10.829   6.715  1.00  0.00    -0.234 N
ATOM     23  H12 UNL     1       8.882 -10.589   6.882  1.00  0.00     0.174 HD
ATOM     24  H11 UNL     1       7.206 -10.831   7.458  1.00  0.00     0.174 HD
ENDBRANCH   1  22
TORSDOF 3
ENDMDL