MODEL 4
REMARK VINA RESULT: -6.589193179      2.986      5.982
REMARK  5 active torsions:
REMARK  status: ('A' for Active; 'I' for Inactive)
REMARK    1  A    between atoms: N1_1  and  N2_4
REMARK    2  A    between atoms: N2_4  and  C1_6
REMARK       I    between atoms: N5_12  and  C3_14
REMARK    3  A    between atoms: C3_14  and  C4_16
REMARK    4  A    between atoms: C4_16  and  N6_17
REMARK    5  A    between atoms: C4_16  and  C5_21
ROOT
HETATM    1  C1  UNL     1       7.444 -12.390   4.237  1.00  0.00     0.181 A
HETATM    2  N3  UNL     1       7.149 -13.660   3.964  1.00  0.00    -0.277 N
ATOM      3  H3  UNL     1       7.290 -14.387   4.667  1.00  0.00     0.189 HD
HETATM    4  N4  UNL     1       6.685 -13.958   2.811  1.00  0.00    -0.277 N
ATOM      5  H4  UNL     1       6.452 -14.924   2.582  1.00  0.00     0.189 HD
HETATM    6  C2  UNL     1       6.512 -12.990   1.914  1.00  0.00     0.169 A
HETATM    7  N5  UNL     1       6.055 -13.075   0.688  1.00  0.00    -0.304 N
ATOM      8  H5  UNL     1       5.969 -12.248   0.096  1.00  0.00     0.171 HD
HETATM    9  C3  UNL     1       5.687 -14.355   0.217  1.00  0.00     0.263 C
HETATM   10  O1  UNL     1       4.574 -14.894   0.472  1.00  0.00    -0.270 OA
HETATM   11  S1  UNL     1       7.036 -11.610   2.775  1.00  0.00    -0.014 SA
ENDROOT
BRANCH   9  12
HETATM   12  C4  UNL     1       6.651 -15.107  -0.619  1.00  0.00     0.363 C
BRANCH  12  13
HETATM   13  N6  UNL     1       6.123 -15.218  -1.948  1.00  0.00    -0.058 N
ATOM     14  H63 UNL     1       6.418 -16.076  -2.414  1.00  0.00     0.275 HD
ATOM     15  H62 UNL     1       5.118 -15.391  -1.955  1.00  0.00     0.275 HD
ATOM     16  H61 UNL     1       6.378 -14.382  -2.474  1.00  0.00     0.275 HD
ENDBRANCH  12  13
BRANCH  12  17
HETATM   17  C5  UNL     1       6.895 -16.427   0.002  1.00  0.00     0.271 C
HETATM   18  N7  UNL     1       7.542 -16.531   1.244  1.00  0.00    -0.060 NA
HETATM   19  O2  UNL     1       6.516 -17.457  -0.592  1.00  0.00    -0.274 OA
ENDBRANCH  12  17
ENDBRANCH   9  12
BRANCH   1  20
HETATM   20  N2  UNL     1       7.924 -11.871   5.344  1.00  0.00    -0.285 N
ATOM     21  H2  UNL     1       8.504 -12.423   5.975  1.00  0.00     0.188 HD
BRANCH  20  22
HETATM   22  N1  UNL     1       7.619 -10.560   5.623  1.00  0.00    -0.343 N
ATOM     23  H12 UNL     1       6.974 -10.045   5.023  1.00  0.00     0.176 HD
ATOM     24  H11 UNL     1       8.055 -10.133   6.440  1.00  0.00     0.176 HD
ENDBRANCH  20  22
ENDBRANCH   1  20
TORSDOF 5
ENDMDL