MODEL 1
REMARK VINA RESULT: -6.802509016      0.000      0.000
REMARK  5 active torsions:
REMARK  status: ('A' for Active; 'I' for Inactive)
REMARK    1  A    between atoms: N1_1  and  C1_5
REMARK    2  A    between atoms: C1_5  and  C2_6
REMARK    3  A    between atoms: C2_6  and  N2_7
REMARK    4  A    between atoms: N2_7  and  C3_9
REMARK    5  A    between atoms: N5_19  and  N6_20
ROOT
HETATM    1  C3  UNL     1       6.796 -12.730   4.018  1.00  0.00     0.680 A
HETATM    2  N3  UNL     1       5.852 -12.191   3.224  1.00  0.00    -0.182 N
ATOM      3  H3  UNL     1       5.474 -11.247   3.308  1.00  0.00     0.184 HD
HETATM    4  C4  UNL     1       5.489 -13.100   2.301  1.00  0.00     0.163 A
HETATM    5  C5  UNL     1       4.594 -13.125   1.252  1.00  0.00     0.280 A
HETATM    6  O1  UNL     1       3.907 -12.097   1.023  1.00  0.00    -0.265 OA
HETATM    7  N4  UNL     1       4.501 -14.255   0.521  1.00  0.00    -0.272 N
ATOM      8  H4  UNL     1       3.839 -14.273  -0.254  1.00  0.00     0.174 HD
HETATM    9  C6  UNL     1       5.224 -15.349   0.751  1.00  0.00     0.349 A
HETATM   10  O2  UNL     1       5.088 -16.386   0.022  1.00  0.00    -0.244 OA
HETATM   11  N5  UNL     1       6.101 -15.329   1.778  1.00  0.00    -0.192 N
HETATM   12  C7  UNL     1       6.249 -14.237   2.551  1.00  0.00     0.179 A
HETATM   13  N7  UNL     1       7.049 -13.996   3.613  1.00  0.00    -0.172 N
ATOM     14  H7  UNL     1       7.717 -14.644   4.029  1.00  0.00     0.186 HD
ENDROOT
BRANCH   1  15
HETATM   15  N2  UNL     1       7.393 -12.184   5.011  1.00  0.00    -0.224 N
ATOM     16  H2  UNL     1       7.727 -12.769   5.778  1.00  0.00     0.177 HD
BRANCH  15  17
HETATM   17  C2  UNL     1       7.602 -10.750   5.066  1.00  0.00     0.165 C
BRANCH  17  18
HETATM   18  C1  UNL     1       6.860 -10.268   6.320  1.00  0.00     0.249 C
BRANCH  18  19
HETATM   19  N1  UNL     1       7.894  -9.887   7.273  1.00  0.00    -0.078 N
ATOM     20  H13 UNL     1       7.733 -10.244   8.214  1.00  0.00     0.274 HD
ATOM     21  H12 UNL     1       8.786 -10.355   7.115  1.00  0.00     0.274 HD
ATOM     22  H11 UNL     1       7.954  -8.870   7.227  1.00  0.00     0.274 HD
ENDBRANCH  18  19
ENDBRANCH  17  18
ENDBRANCH  15  17
ENDBRANCH   1  15
BRANCH  11  23
HETATM   23  N6  UNL     1       6.864 -16.460   2.036  1.00  0.00    -0.333 N
ATOM     24  H62 UNL     1       6.544 -17.369   1.704  1.00  0.00     0.177 HD
ATOM     25  H61 UNL     1       7.735 -16.362   2.557  1.00  0.00     0.177 HD
ENDBRANCH  11  23
TORSDOF 5
ENDMDL