MODEL 3
REMARK VINA RESULT: -7.456596591      1.863      5.683
REMARK  2 active torsions:
REMARK  status: ('A' for Active; 'I' for Inactive)
REMARK    1  A    between atoms: C5_10  and  N4_11
REMARK    2  A    between atoms: N4_11  and  C6_13
ROOT
HETATM    1  N1  UNL     1       6.156 -10.338   4.997  1.00  0.00    -0.079 NA
HETATM    2  C1  UNL     1       6.368 -11.539   4.252  1.00  0.00     0.160 A
HETATM    3  C2  UNL     1       5.899 -11.634   3.017  1.00  0.00     0.107 A
HETATM    4  N2  UNL     1       5.212 -10.735   2.292  1.00  0.00    -0.348 N
ATOM      5  H2  UNL     1       4.944  -9.805   2.615  1.00  0.00     0.167 HD
HETATM    6  C3  UNL     1       4.932 -11.240   1.080  1.00  0.00     0.181 A
HETATM    7  N3  UNL     1       5.457 -12.474   1.062  1.00  0.00    -0.347 N
ATOM      8  H3  UNL     1       5.405 -13.113   0.268  1.00  0.00     0.167 HD
HETATM    9  C4  UNL     1       6.069 -12.762   2.246  1.00  0.00     0.109 A
HETATM   10  C5  UNL     1       6.715 -13.845   2.681  1.00  0.00     0.147 A
HETATM   11  N6  UNL     1       7.242 -13.809   3.998  1.00  0.00    -0.282 N
ATOM     12  H6  UNL     1       7.744 -14.613   4.376  1.00  0.00     0.188 HD
HETATM   13  N7  UNL     1       7.063 -12.656   4.772  1.00  0.00    -0.284 N
ATOM     14  H7  UNL     1       7.438 -12.620   5.719  1.00  0.00     0.188 HD
ENDROOT
BRANCH  10  15
HETATM   15  N4  UNL     1       6.864 -14.971   1.860  1.00  0.00    -0.346 N
ATOM     16  H4  UNL     1       7.475 -14.913   1.045  1.00  0.00     0.163 HD
BRANCH  15  17
HETATM   17  C6  UNL     1       6.184 -16.201   2.133  1.00  0.00     0.285 C
HETATM   18  C7  UNL     1       6.960 -17.051   3.118  1.00  0.00     0.056 C
HETATM   19  C8  UNL     1       6.281 -18.394   2.950  1.00  0.00     0.031 C
HETATM   20  C9  UNL     1       5.860 -18.393   1.513  1.00  0.00     0.235 C
HETATM   21  N5  UNL     1       6.129 -17.082   0.981  1.00  0.00    -0.054 N
ATOM     22  H52 UNL     1       5.463 -16.784   0.268  1.00  0.00     0.279 HD
ATOM     23  H51 UNL     1       6.961 -17.041   0.393  1.00  0.00     0.279 HD
ENDBRANCH  15  17
ENDBRANCH  10  15
TORSDOF 2
ENDMDL