MODEL 5
REMARK VINA RESULT: -6.120451196      2.551      6.379
REMARK  2 active torsions:
REMARK  status: ('A' for Active; 'I' for Inactive)
REMARK       I    between atoms: C1_4  and  N3_6
REMARK    1  A    between atoms: C5_11  and  C6_12
REMARK       I    between atoms: C6_12  and  N5_14
REMARK    2  A    between atoms: N5_14  and  N6_16
ROOT
HETATM    1  N1  UNL     1       5.499 -17.020   0.412  1.00  0.00    -0.374 N
ATOM      2  H11 UNL     1       4.603 -16.688   0.768  1.00  0.00     0.158 HD
ATOM      3  H12 UNL     1       5.591 -17.921  -0.058  1.00  0.00     0.158 HD
HETATM    4  C1  UNL     1       6.529 -16.270   0.563  1.00  0.00     0.185 C
HETATM    5  N2  UNL     1       7.771 -16.729   0.070  1.00  0.00    -0.064 NA
HETATM    6  N3  UNL     1       6.403 -15.041   1.204  1.00  0.00    -0.342 N
HETATM    7  C2  UNL     1       6.155 -13.822   0.371  1.00  0.00     0.207 C
HETATM    8  C3  UNL     1       6.219 -12.671   1.205  1.00  0.00    -0.143 C
HETATM    9  C4  UNL     1       6.347 -11.811   2.331  1.00  0.00     0.208 C
HETATM   10  N4  UNL     1       6.632 -12.615   3.535  1.00  0.00    -0.353 N
HETATM   11  C5  UNL     1       6.150 -12.261   4.745  1.00  0.00     0.167 C
HETATM   12  C7  UNL     1       7.220 -13.879   3.298  1.00  0.00     0.084 C
HETATM   13  C8  UNL     1       6.507 -14.984   2.650  1.00  0.00     0.171 C
ENDROOT
BRANCH  11  14
HETATM   14  C6  UNL     1       6.614 -11.092   5.485  1.00  0.00     0.274 C
HETATM   15  O1  UNL     1       5.855 -10.086   5.552  1.00  0.00    -0.265 OA
HETATM   16  N5  UNL     1       7.855 -10.960   6.155  1.00  0.00    -0.272 N
ATOM     17  H5  UNL     1       8.532 -11.723   6.154  1.00  0.00     0.189 HD
BRANCH  16  18
HETATM   18  N6  UNL     1       8.133  -9.757   6.819  1.00  0.00    -0.342 N
ATOM     19  H62 UNL     1       7.610  -8.915   6.582  1.00  0.00     0.176 HD
ATOM     20  H61 UNL     1       8.860  -9.752   7.534  1.00  0.00     0.176 HD
ENDBRANCH  16  18
ENDBRANCH  11  14
TORSDOF 2
ENDMDL