MODEL 4
REMARK VINA RESULT: -6.256538461      2.439      4.291
REMARK  8 active torsions:
REMARK  status: ('A' for Active; 'I' for Inactive)
REMARK    1  A    between atoms: N1_2  and  C2_4
REMARK    2  A    between atoms: C3_7  and  N3_8
REMARK    3  A    between atoms: N3_8  and  C4_10
REMARK    4  A    between atoms: C4_10  and  C5_11
REMARK    5  A    between atoms: C5_11  and  O1_12
REMARK    6  A    between atoms: C6_16  and  N5_17
REMARK    7  A    between atoms: N5_17  and  C7_19
REMARK    8  A    between atoms: C7_19  and  N6_21
ROOT
HETATM    1  C2  UNL     1       5.688 -13.037   1.871  1.00  0.00     0.706 A
HETATM    2  N2  UNL     1       6.211 -12.325   2.883  1.00  0.00    -0.022 N
ATOM      3  H2  UNL     1       6.126 -11.309   2.913  1.00  0.00     0.203 HD
HETATM    4  C3  UNL     1       6.852 -13.004   3.860  1.00  0.00     0.707 A
HETATM    5  N4  UNL     1       6.969 -14.354   3.829  1.00  0.00    -0.021 N
ATOM      6  H4  UNL     1       7.458 -14.842   4.579  1.00  0.00     0.203 HD
HETATM    7  C6  UNL     1       6.442 -15.043   2.809  1.00  0.00     0.709 A
HETATM    8  N7  UNL     1       5.804 -14.378   1.836  1.00  0.00    -0.021 N
ATOM      9  H7  UNL     1       5.400 -14.895   1.057  1.00  0.00     0.203 HD
ENDROOT
BRANCH   7  10
HETATM   10  N5  UNL     1       6.550 -16.300   2.779  1.00  0.00    -0.196 N
ATOM     11  H5  UNL     1       5.811 -16.817   3.256  1.00  0.00     0.180 HD
BRANCH  10  12
HETATM   12  C7  UNL     1       7.561 -17.095   2.170  1.00  0.00     0.293 C
HETATM   13  C8  UNL     1       8.300 -17.996   3.129  1.00  0.00     0.063 C
BRANCH  12  14
HETATM   14  N6  UNL     1       8.477 -16.321   1.332  1.00  0.00    -0.058 N
ATOM     15  H63 UNL     1       8.168 -16.323   0.360  1.00  0.00     0.276 HD
ATOM     16  H62 UNL     1       8.397 -15.324   1.533  1.00  0.00     0.276 HD
ATOM     17  H61 UNL     1       9.447 -16.629   1.405  1.00  0.00     0.276 HD
ENDBRANCH  12  14
ENDBRANCH  10  12
ENDBRANCH   7  10
BRANCH   4  18
HETATM   18  N3  UNL     1       7.379 -12.379   4.868  1.00  0.00    -0.223 N
ATOM     19  H3  UNL     1       7.736 -12.890   5.675  1.00  0.00     0.177 HD
BRANCH  18  20
HETATM   20  C4  UNL     1       7.446 -10.939   4.810  1.00  0.00     0.164 C
BRANCH  20  21
HETATM   21  C5  UNL     1       6.962 -10.412   6.143  1.00  0.00     0.184 C
BRANCH  21  22
HETATM   22  O1  UNL     1       8.011  -9.902   6.879  1.00  0.00    -0.399 OA
ATOM     23  H1  UNL     1       8.491  -9.254   6.378  1.00  0.00     0.209 HD
ENDBRANCH  21  22
ENDBRANCH  20  21
ENDBRANCH  18  20
ENDBRANCH   4  18
BRANCH   1  24
HETATM   24  N1  UNL     1       5.075 -12.403   0.932  1.00  0.00    -0.229 N
HETATM   25  C1  UNL     1       4.247 -11.261   1.199  1.00  0.00     0.165 C
ATOM     26  H1  UNL     1       5.180 -12.722  -0.031  1.00  0.00     0.177 HD
ENDBRANCH   1  24
TORSDOF 8
ENDMDL