MODEL 5
REMARK VINA RESULT: -6.467863663      0.974      2.947
REMARK  5 active torsions:
REMARK  status: ('A' for Active; 'I' for Inactive)
REMARK    1  A    between atoms: S1_2  and  N1_5
REMARK    2  A    between atoms: N1_5  and  C2_7
REMARK    3  A    between atoms: C3_10  and  N3_11
REMARK    4  A    between atoms: C4_16  and  N5_17
REMARK    5  A    between atoms: N5_17  and  N6_19
ROOT
HETATM    1  C2  UNL     1       6.779 -13.252   3.661  1.00  0.00     0.720 A
HETATM    2  N2  UNL     1       6.390 -12.730   2.483  1.00  0.00    -0.021 N
ATOM      3  H2  UNL     1       6.334 -13.322   1.655  1.00  0.00     0.203 HD
HETATM    4  C3  UNL     1       6.075 -11.426   2.401  1.00  0.00     0.705 A
HETATM    5  N4  UNL     1       6.155 -10.662   3.500  1.00  0.00    -0.020 N
ATOM      6  H4  UNL     1       5.914  -9.674   3.424  1.00  0.00     0.203 HD
HETATM    7  C4  UNL     1       6.539 -11.140   4.700  1.00  0.00     0.725 A
HETATM    8  N7  UNL     1       6.849 -12.463   4.746  1.00  0.00    -0.019 N
ATOM      9  H7  UNL     1       7.145 -12.870   5.634  1.00  0.00     0.203 HD
ENDROOT
BRANCH   1  10
HETATM   10  N1  UNL     1       7.085 -14.487   3.775  1.00  0.00    -0.116 N
ATOM     11  H1  UNL     1       7.851 -14.729   4.403  1.00  0.00     0.197 HD
BRANCH  10  12
HETATM   12  S1  UNL     1       6.302 -15.762   2.949  1.00  0.00     0.240 S
HETATM   13  C1  UNL     1       7.462 -16.486   1.787  1.00  0.00     0.186 C
HETATM   14  O1  UNL     1       5.106 -15.246   2.210  1.00  0.00    -0.206 OA
HETATM   15  O2  UNL     1       5.837 -16.856   3.886  1.00  0.00    -0.206 OA
ENDBRANCH  10  12
ENDBRANCH   1  10
BRANCH   4  16
HETATM   16  N3  UNL     1       5.700 -10.942   1.251  1.00  0.00    -0.234 N
ATOM     17  H32 UNL     1       4.742 -10.639   1.079  1.00  0.00     0.174 HD
ATOM     18  H31 UNL     1       6.389 -10.864   0.502  1.00  0.00     0.174 HD
ENDBRANCH   4  16
BRANCH   7  19
HETATM   19  N5  UNL     1       6.619 -10.413   5.764  1.00  0.00    -0.138 N
ATOM     20  H5  UNL     1       5.829  -9.848   6.077  1.00  0.00     0.205 HD
BRANCH  19  21
HETATM   21  N6  UNL     1       7.824 -10.426   6.473  1.00  0.00    -0.331 N
ATOM     22  H62 UNL     1       8.312 -11.306   6.637  1.00  0.00     0.177 HD
ATOM     23  H61 UNL     1       8.185  -9.534   6.813  1.00  0.00     0.177 HD
ENDBRANCH  19  21
ENDBRANCH   7  19
TORSDOF 5
ENDMDL