MODEL 3
REMARK VINA RESULT: -6.932589830      1.024      1.398
REMARK  8 active torsions:
REMARK  status: ('A' for Active; 'I' for Inactive)
REMARK    1  A    between atoms: C2_2  and  O1_3
REMARK    2  A    between atoms: C2_2  and  C3_5
REMARK    3  A    between atoms: C3_5  and  N1_6
REMARK    4  A    between atoms: C3_5  and  C4_10
REMARK    5  A    between atoms: C5_13  and  N3_14
REMARK    6  A    between atoms: N3_14  and  N4_15
REMARK    7  A    between atoms: C8_20  and  N5_21
REMARK    8  A    between atoms: N5_21  and  N6_23
ROOT
HETATM    1  C4  UNL     1       6.640 -12.500   3.784  1.00  0.00     0.118 C
HETATM    2  N2  UNL     1       5.548 -12.215   3.070  1.00  0.00    -0.317 N
ATOM      3  H2  UNL     1       5.018 -11.418   3.424  1.00  0.00     0.170 HD
HETATM    4  C5  UNL     1       5.004 -12.794   1.949  1.00  0.00     0.204 C
HETATM    5  C6  UNL     1       5.274 -14.147   1.637  1.00  0.00     0.070 C
HETATM    6  C7  UNL     1       5.920 -15.110   2.375  1.00  0.00     0.055 C
HETATM    7  C8  UNL     1       6.756 -14.925   3.451  1.00  0.00     0.120 C
HETATM    8  N7  UNL     1       7.144 -13.734   3.958  1.00  0.00    -0.329 N
ATOM      9  H7  UNL     1       7.954 -13.779   4.576  1.00  0.00     0.168 HD
ENDROOT
BRANCH   1  10
HETATM   10  C3  UNL     1       7.354 -11.404   4.433  1.00  0.00     0.278 C
BRANCH  10  11
HETATM   11  C2  UNL     1       7.592 -10.211   3.537  1.00  0.00     0.152 C
HETATM   12  C1  UNL     1       8.360 -10.594   2.286  1.00  0.00     0.042 C
BRANCH  11  13
HETATM   13  O1  UNL     1       6.414  -9.538   3.255  1.00  0.00    -0.393 OA
ATOM     14  H1  UNL     1       5.872  -9.994   2.622  1.00  0.00     0.210 HD
ENDBRANCH  11  13
ENDBRANCH  10  11
BRANCH  10  15
HETATM   15  N1  UNL     1       6.654 -10.915   5.609  1.00  0.00    -0.066 N
ATOM     16  H13 UNL     1       6.111 -10.070   5.431  1.00  0.00     0.275 HD
ATOM     17  H12 UNL     1       5.875 -11.511   5.890  1.00  0.00     0.275 HD
ATOM     18  H11 UNL     1       7.353 -10.796   6.341  1.00  0.00     0.275 HD
ENDBRANCH  10  15
ENDBRANCH   1  10
BRANCH   4  19
HETATM   19  N3  UNL     1       4.305 -12.218   1.209  1.00  0.00    -0.314 NA
BRANCH  19  20
HETATM   20  N4  UNL     1       3.540 -11.588   0.400  1.00  0.00    -0.278 N
ATOM     21  H42 UNL     1       4.129 -12.054   1.091  1.00  0.00     0.191 HD
ATOM     22  H41 UNL     1       2.930 -11.087  -0.245  1.00  0.00     0.191 HD
ENDBRANCH  19  20
ENDBRANCH   4  19
BRANCH   7  23
HETATM   23  N5  UNL     1       7.219 -15.967   4.039  1.00  0.00    -0.292 N
ATOM     24  H5  UNL     1       7.183 -16.045   5.056  1.00  0.00     0.188 HD
BRANCH  23  25
HETATM   25  N6  UNL     1       7.770 -16.988   3.276  1.00  0.00    -0.344 N
ATOM     26  H62 UNL     1       7.159 -17.573   2.708  1.00  0.00     0.176 HD
ATOM     27  H61 UNL     1       8.779 -17.136   3.297  1.00  0.00     0.176 HD
ENDBRANCH  23  25
ENDBRANCH   7  23
TORSDOF 8
ENDMDL