MODEL 1
REMARK VINA RESULT: -7.403595993      0.000      0.000
REMARK  6 active torsions:
REMARK  status: ('A' for Active; 'I' for Inactive)
REMARK    1  A    between atoms: C3_3  and  C4_4
REMARK    2  A    between atoms: C4_4  and  N1_5
REMARK    3  A    between atoms: N4_10  and  O1_11
REMARK    4  A    between atoms: C7_17  and  N6_18
REMARK    5  A    between atoms: C8_23  and  N8_24
REMARK    6  A    between atoms: N8_24  and  N9_26
ROOT
HETATM    1  C1  UNL     1       6.834 -15.891   3.011  1.00  0.00     0.054 C
HETATM    2  C2  UNL     1       6.402 -14.600   2.413  1.00  0.00     0.009 A
HETATM    3  C3  UNL     1       5.866 -14.545   1.159  1.00  0.00     0.056 A
HETATM    4  N5  UNL     1       5.465 -13.336   0.677  1.00  0.00    -0.193 N
ATOM      5  H5  UNL     1       5.063 -13.300  -0.260  1.00  0.00     0.184 HD
HETATM    6  C7  UNL     1       5.568 -12.191   1.364  1.00  0.00     0.677 A
HETATM    7  N7  UNL     1       6.099 -12.259   2.595  1.00  0.00    -0.175 N
ATOM      8  H7  UNL     1       6.189 -11.401   3.140  1.00  0.00     0.186 HD
HETATM    9  C8  UNL     1       6.514 -13.414   3.133  1.00  0.00     0.142 A
ENDROOT
BRANCH   3  10
HETATM   10  C4  UNL     1       5.706 -15.710   0.285  1.00  0.00     0.210 C
BRANCH  10  11
HETATM   11  N1  UNL     1       6.516 -15.576  -0.908  1.00  0.00    -0.256 N
HETATM   12  N2  UNL     1       6.194 -15.045  -2.062  1.00  0.00    -0.222 N
HETATM   13  N3  UNL     1       7.219 -15.119  -2.884  1.00  0.00    -0.200 N
ATOM     14  H2  UNL     1       5.287 -14.637  -2.288  1.00  0.00     0.210 HD
HETATM   15  N4  UNL     1       8.240 -15.707  -2.278  1.00  0.00    -0.134 N
ATOM     16  H3  UNL     1       7.226 -14.775  -3.844  1.00  0.00     0.212 HD
HETATM   17  C5  UNL     1       7.790 -15.993  -1.027  1.00  0.00     0.144 A
HETATM   18  C6  UNL     1       8.640 -16.658   0.001  1.00  0.00     0.095 C
BRANCH  15  19
HETATM   19  O1  UNL     1       9.492 -15.978  -2.784  1.00  0.00    -0.265 OA
ATOM     20  H1  UNL     1      10.195 -16.475  -2.383  1.00  0.00     0.247 HD
ENDBRANCH  15  19
ENDBRANCH  10  11
ENDBRANCH   3  10
BRANCH   9  21
HETATM   21  N8  UNL     1       7.026 -13.491   4.317  1.00  0.00    -0.291 N
ATOM     22  H8  UNL     1       7.037 -14.390   4.799  1.00  0.00     0.188 HD
BRANCH  21  23
HETATM   23  N9  UNL     1       7.568 -12.363   4.951  1.00  0.00    -0.344 N
ATOM     24  H92 UNL     1       7.439 -11.452   4.512  1.00  0.00     0.176 HD
ATOM     25  H91 UNL     1       8.080 -12.445   5.829  1.00  0.00     0.176 HD
ENDBRANCH  21  23
ENDBRANCH   9  21
BRANCH   6  26
HETATM   26  N6  UNL     1       5.166 -11.064   0.848  1.00  0.00    -0.234 N
ATOM     27  H62 UNL     1       5.004 -10.236   1.422  1.00  0.00     0.174 HD
ATOM     28  H61 UNL     1       5.000 -10.977  -0.155  1.00  0.00     0.174 HD
ENDBRANCH   6  26
TORSDOF 6
ENDMDL