MODEL 1
REMARK VINA RESULT: -7.943460331      0.000      0.000
REMARK  7 active torsions:
REMARK  status: ('A' for Active; 'I' for Inactive)
REMARK    1  A    between atoms: C2_2  and  O1_3
REMARK    2  A    between atoms: C2_2  and  O2_5
REMARK    3  A    between atoms: O2_5  and  C3_6
REMARK    4  A    between atoms: C3_6  and  N1_7
REMARK    5  A    between atoms: N3_10  and  O3_11
REMARK    6  A    between atoms: C5_16  and  N5_17
REMARK    7  A    between atoms: C6_22  and  N7_23
ROOT
HETATM    1  N1  UNL     1       5.957 -12.054   3.549  1.00  0.00    -0.245 N
HETATM    2  N2  UNL     1       5.542 -11.025   2.826  1.00  0.00    -0.210 N
ATOM      3  H2  UNL     1       5.257 -10.130   3.223  1.00  0.00     0.211 HD
HETATM    4  N3  UNL     1       5.539 -11.293   1.540  1.00  0.00    -0.128 N
HETATM    5  C4  UNL     1       5.967 -12.542   1.413  1.00  0.00     0.200 A
HETATM    6  N4  UNL     1       6.169 -13.343   0.348  1.00  0.00    -0.170 N
ATOM      7  H4  UNL     1       5.979 -13.003  -0.595  1.00  0.00     0.186 HD
HETATM    8  C5  UNL     1       6.621 -14.589   0.539  1.00  0.00     0.679 A
HETATM    9  N6  UNL     1       6.878 -15.061   1.769  1.00  0.00    -0.175 N
ATOM     10  H6  UNL     1       7.221 -16.015   1.881  1.00  0.00     0.186 HD
HETATM   11  C6  UNL     1       6.688 -14.285   2.865  1.00  0.00     0.147 A
HETATM   12  C7  UNL     1       6.231 -13.021   2.687  1.00  0.00     0.147 A
ENDROOT
BRANCH   1  13
HETATM   13  C3  UNL     1       6.039 -11.991   4.986  1.00  0.00     0.321 C
BRANCH  13  14
HETATM   14  O2  UNL     1       6.309 -10.659   5.307  1.00  0.00    -0.341 OA
BRANCH  14  15
HETATM   15  C2  UNL     1       7.602 -10.432   5.691  1.00  0.00     0.255 C
HETATM   16  C1  UNL     1       7.541  -9.769   7.074  1.00  0.00     0.070 C
BRANCH  15  17
HETATM   17  O1  UNL     1       8.382 -11.578   5.755  1.00  0.00    -0.372 OA
ATOM     18  H1  UNL     1       9.198 -11.437   5.290  1.00  0.00     0.212 HD
ENDBRANCH  15  17
ENDBRANCH  14  15
ENDBRANCH  13  14
ENDBRANCH   1  13
BRANCH   4  19
HETATM   19  O3  UNL     1       5.171 -10.469   0.497  1.00  0.00    -0.265 OA
ATOM     20  H3  UNL     1       5.368 -10.566  -0.427  1.00  0.00     0.247 HD
ENDBRANCH   4  19
BRANCH  11  21
HETATM   21  N7  UNL     1       6.932 -14.725   4.031  1.00  0.00    -0.383 N
ATOM     22  H72 UNL     1       6.447 -15.549   4.386  1.00  0.00     0.157 HD
ATOM     23  H71 UNL     1       7.613 -14.266   4.636  1.00  0.00     0.157 HD
ENDBRANCH  11  21
BRANCH   8  24
HETATM   24  N5  UNL     1       6.832 -15.403  -0.447  1.00  0.00    -0.234 N
ATOM     25  H52 UNL     1       6.521 -15.091  -1.367  1.00  0.00     0.174 HD
ATOM     26  H51 UNL     1       7.285 -16.307  -0.315  1.00  0.00     0.174 HD
ENDBRANCH   8  24
TORSDOF 7
ENDMDL