MODEL 5
REMARK VINA RESULT: -5.882516062      1.490      2.060
REMARK  6 active torsions:
REMARK  status: ('A' for Active; 'I' for Inactive)
REMARK    1  A    between atoms: O1_2  and  C2_3
REMARK    2  A    between atoms: C3_6  and  N2_7
REMARK    3  A    between atoms: C7_15  and  O2_16
REMARK    4  A    between atoms: O2_16  and  C8_17
REMARK    5  A    between atoms: C8_17  and  N6_21
REMARK    6  A    between atoms: N6_21  and  N7_23
ROOT
HETATM    1  C2  UNL     1       6.940 -13.889   3.045  1.00  0.00     0.194 A
HETATM    2  N1  UNL     1       7.390 -13.491   4.259  1.00  0.00    -0.168 N
ATOM      3  H1  UNL     1       7.520 -14.190   4.991  1.00  0.00     0.186 HD
HETATM    4  C3  UNL     1       7.671 -12.208   4.531  1.00  0.00     0.680 A
HETATM    5  N3  UNL     1       7.522 -11.240   3.615  1.00  0.00    -0.175 N
HETATM    6  C4  UNL     1       7.823  -9.844   3.899  1.00  0.00     0.176 C
HETATM    7  C5  UNL     1       7.071 -11.629   2.395  1.00  0.00     0.170 A
HETATM    8  C6  UNL     1       6.900 -10.629   1.395  1.00  0.00     0.121 C
HETATM    9  N4  UNL     1       6.748  -9.833   0.580  1.00  0.00    -0.190 NA
HETATM   10  C7  UNL     1       6.772 -12.925   2.074  1.00  0.00     0.168 A
ENDROOT
BRANCH  10  11
HETATM   11  O2  UNL     1       6.310 -13.319   0.821  1.00  0.00    -0.271 OA
BRANCH  11  12
HETATM   12  C8  UNL     1       5.019 -13.784   0.613  1.00  0.00     0.237 C
HETATM   13  N5  UNL     1       4.906 -14.938   0.051  1.00  0.00    -0.364 N
ATOM     14  H52 UNL     1       5.714 -15.493  -0.233  1.00  0.00     0.159 HD
ATOM     15  H51 UNL     1       3.957 -15.280  -0.102  1.00  0.00     0.159 HD
BRANCH  12  16
HETATM   16  N6  UNL     1       3.894 -13.011   1.008  1.00  0.00    -0.272 N
ATOM     17  H6  UNL     1       3.144 -13.482   1.514  1.00  0.00     0.190 HD
BRANCH  16  18
HETATM   18  N7  UNL     1       3.753 -11.654   0.749  1.00  0.00    -0.342 N
ATOM     19  H72 UNL     1       4.592 -11.080   0.827  1.00  0.00     0.176 HD
ATOM     20  H71 UNL     1       2.872 -11.210   0.489  1.00  0.00     0.176 HD
ENDBRANCH  16  18
ENDBRANCH  12  16
ENDBRANCH  11  12
ENDBRANCH  10  11
BRANCH   4  21
HETATM   21  N2  UNL     1       8.095 -11.894   5.706  1.00  0.00    -0.234 N
ATOM     22  H22 UNL     1       8.312 -10.919   5.907  1.00  0.00     0.174 HD
ATOM     23  H21 UNL     1       8.201 -12.627   6.408  1.00  0.00     0.174 HD
ENDBRANCH   4  21
BRANCH   1  24
HETATM   24  O1  UNL     1       6.665 -15.225   2.811  1.00  0.00    -0.338 OA
HETATM   25  C1  UNL     1       6.245 -16.111   3.833  1.00  0.00     0.211 C
ENDBRANCH   1  24
TORSDOF 6
ENDMDL