MODEL 5
REMARK VINA RESULT: -6.851635384      1.615      2.844
REMARK  4 active torsions:
REMARK  status: ('A' for Active; 'I' for Inactive)
REMARK    1  A    between atoms: N1_2  and  C2_4
REMARK    2  A    between atoms: C3_7  and  N3_8
REMARK    3  A    between atoms: C5_17  and  O1_18
REMARK    4  A    between atoms: C7_22  and  N8_23
ROOT
HETATM    1  C2  UNL     1       5.838 -11.658   2.736  1.00  0.00     0.706 A
HETATM    2  N2  UNL     1       5.911 -12.970   2.461  1.00  0.00    -0.019 N
ATOM      3  H2  UNL     1       5.373 -13.337   1.675  1.00  0.00     0.203 HD
HETATM    4  C3  UNL     1       6.662 -13.815   3.176  1.00  0.00     0.736 A
HETATM    5  N7  UNL     1       7.363 -13.333   4.203  1.00  0.00    -0.020 N
ATOM      6  H7  UNL     1       7.942 -13.961   4.761  1.00  0.00     0.203 HD
HETATM    7  C7  UNL     1       7.312 -12.022   4.507  1.00  0.00     0.705 A
HETATM    8  N9  UNL     1       6.540 -11.179   3.763  1.00  0.00    -0.022 N
ATOM      9  H9  UNL     1       6.500 -10.186   3.993  1.00  0.00     0.203 HD
ENDROOT
BRANCH   4  10
HETATM   10  N3  UNL     1       6.717 -15.197   2.857  1.00  0.00    -0.031 N
HETATM   11  N4  UNL     1       7.431 -16.105   3.503  1.00  0.00    -0.108 N
HETATM   12  C4  UNL     1       7.249 -17.317   2.932  1.00  0.00     0.694 A
ATOM     13  H4  UNL     1       8.028 -15.919   4.309  1.00  0.00     0.207 HD
HETATM   14  N5  UNL     1       7.788 -18.456   3.291  1.00  0.00    -0.233 N
HETATM   15  N6  UNL     1       6.396 -17.093   1.918  1.00  0.00    -0.152 N
ATOM     16  H52 UNL     1       8.435 -18.626   4.061  1.00  0.00     0.174 HD
ATOM     17  H51 UNL     1       7.651 -19.370   2.860  1.00  0.00     0.174 HD
HETATM   18  C5  UNL     1       6.053 -15.794   1.851  1.00  0.00     0.276 A
ATOM     19  H6  UNL     1       6.054 -17.813   1.283  1.00  0.00     0.188 HD
BRANCH  18  20
HETATM   20  O1  UNL     1       5.187 -15.179   0.930  1.00  0.00    -0.325 OA
HETATM   21  C6  UNL     1       5.582 -15.158  -0.429  1.00  0.00     0.213 C
ENDBRANCH  18  20
ENDBRANCH   4  10
BRANCH   1  22
HETATM   22  N1  UNL     1       5.092 -10.877   2.008  1.00  0.00    -0.229 N
HETATM   23  C1  UNL     1       3.996 -11.449   1.227  1.00  0.00     0.165 C
ATOM     24  H1  UNL     1       5.270  -9.873   1.984  1.00  0.00     0.177 HD
ENDBRANCH   1  22
BRANCH   7  25
HETATM   25  N8  UNL     1       7.979 -11.519   5.495  1.00  0.00    -0.234 N
ATOM     26  H82 UNL     1       8.783 -10.931   5.279  1.00  0.00     0.174 HD
ATOM     27  H81 UNL     1       7.721 -11.695   6.466  1.00  0.00     0.174 HD
ENDBRANCH   7  25
TORSDOF 4
ENDMDL