MODEL 2
REMARK VINA RESULT: -7.878771751      0.091      1.901
REMARK  3 active torsions:
REMARK  status: ('A' for Active; 'I' for Inactive)
REMARK    1  A    between atoms: C1_4  and  C2_5
REMARK    2  A    between atoms: C1_4  and  N5_15
REMARK    3  A    between atoms: C3_8  and  N3_9
ROOT
HETATM    1  N1  UNL     1       7.872 -10.056   2.042  1.00  0.00    -0.381 N
ATOM      2  H11 UNL     1       7.929 -10.270   1.047  1.00  0.00     0.157 HD
ATOM      3  H12 UNL     1       8.379  -9.285   2.478  1.00  0.00     0.157 HD
HETATM    4  C1  UNL     1       7.128 -10.779   2.802  1.00  0.00     0.169 C
ENDROOT
BRANCH   4   5
HETATM    5  C2  UNL     1       7.047 -10.477   4.204  1.00  0.00     0.230 A
HETATM    6  N2  UNL     1       8.064 -10.486   5.081  1.00  0.00    -0.163 N
HETATM    7  C3  UNL     1       7.586 -10.150   6.291  1.00  0.00     0.698 A
ATOM      8  H2  UNL     1       9.035 -10.711   4.865  1.00  0.00     0.186 HD
HETATM    9  N4  UNL     1       6.269  -9.937   6.142  1.00  0.00    -0.089 N
HETATM   10  O1  UNL     1       5.990 -10.141   4.896  1.00  0.00    -0.201 OA
ATOM     11  H4  UNL     1       5.613  -9.666   6.874  1.00  0.00     0.213 HD
BRANCH   7  12
HETATM   12  N3  UNL     1       8.227 -10.040   7.408  1.00  0.00    -0.233 N
ATOM     13  H32 UNL     1       9.159 -10.417   7.582  1.00  0.00     0.174 HD
ATOM     14  H31 UNL     1       7.930  -9.581   8.269  1.00  0.00     0.174 HD
ENDBRANCH   7  12
ENDBRANCH   4   5
BRANCH   4  15
HETATM   15  N5  UNL     1       6.419 -11.855   2.193  1.00  0.00    -0.196 N
HETATM   16  C4  UNL     1       6.769 -13.138   2.337  1.00  0.00     0.340 A
HETATM   17  O2  UNL     1       7.760 -13.441   3.032  1.00  0.00    -0.246 OA
HETATM   18  N6  UNL     1       6.072 -14.131   1.744  1.00  0.00    -0.260 N
HETATM   19  C5  UNL     1       4.995 -13.871   0.985  1.00  0.00     0.332 A
ATOM     20  H6  UNL     1       6.368 -15.097   1.876  1.00  0.00     0.175 HD
HETATM   21  O3  UNL     1       4.368 -14.832   0.445  1.00  0.00    -0.246 OA
HETATM   22  N7  UNL     1       4.630 -12.587   0.829  1.00  0.00    -0.260 N
HETATM   23  C6  UNL     1       5.333 -11.602   1.426  1.00  0.00     0.340 A
ATOM     24  H7  UNL     1       3.818 -12.356   0.258  1.00  0.00     0.175 HD
HETATM   25  O4  UNL     1       4.986 -10.383   1.278  1.00  0.00    -0.246 OA
ENDBRANCH   4  15
TORSDOF 3
ENDMDL