MODEL 3
REMARK VINA RESULT: -7.181635917      1.367      1.768
REMARK  4 active torsions:
REMARK  status: ('A' for Active; 'I' for Inactive)
REMARK    1  A    between atoms: C3_3  and  C4_4
REMARK    2  A    between atoms: C4_4  and  N1_5
REMARK    3  A    between atoms: C7_12  and  N4_13
REMARK    4  A    between atoms: C8_18  and  N6_19
ROOT
HETATM    1  C1  UNL     1       8.458 -10.472   2.055  1.00  0.00     0.017 C
HETATM    2  C2  UNL     1       8.030 -10.944   3.088  1.00  0.00    -0.051 C
HETATM    3  C3  UNL     1       7.510 -11.548   4.344  1.00  0.00     0.258 A
HETATM    4  N7  UNL     1       8.266 -11.678   5.469  1.00  0.00    -0.249 N
ATOM      5  H7  UNL     1       8.892 -12.268   6.016  1.00  0.00     0.192 HD
HETATM    6  O1  UNL     1       7.634 -10.512   5.371  1.00  0.00    -0.231 OA
ENDROOT
BRANCH   3   7
HETATM    7  C4  UNL     1       6.054 -12.036   4.284  1.00  0.00     0.210 C
BRANCH   7   8
HETATM    8  N1  UNL     1       5.638 -12.419   2.998  1.00  0.00    -0.331 N
HETATM    9  C5  UNL     1       4.966 -11.629   2.145  1.00  0.00     0.185 A
HETATM   10  N2  UNL     1       4.736 -12.276   0.996  1.00  0.00    -0.336 N
HETATM   11  C6  UNL     1       5.273 -13.528   1.097  1.00  0.00     0.152 A
ATOM     12  H2  UNL     1       4.246 -11.899   0.185  1.00  0.00     0.168 HD
HETATM   13  N3  UNL     1       5.314 -14.559   0.242  1.00  0.00    -0.174 N
HETATM   14  C9  UNL     1       5.837 -13.585   2.381  1.00  0.00     0.125 A
HETATM   15  C7  UNL     1       5.916 -15.690   0.627  1.00  0.00     0.679 A
ATOM     16  H3  UNL     1       4.894 -14.483  -0.684  1.00  0.00     0.186 HD
HETATM   17  N5  UNL     1       6.474 -15.816   1.835  1.00  0.00    -0.175 N
HETATM   18  C8  UNL     1       6.437 -14.786   2.699  1.00  0.00     0.145 A
ATOM     19  H5  UNL     1       6.927 -16.691   2.101  1.00  0.00     0.186 HD
BRANCH  15  20
HETATM   20  N4  UNL     1       5.966 -16.698  -0.189  1.00  0.00    -0.234 N
ATOM     21  H42 UNL     1       5.117 -17.241  -0.346  1.00  0.00     0.174 HD
ATOM     22  H41 UNL     1       6.845 -16.927  -0.652  1.00  0.00     0.174 HD
ENDBRANCH  15  20
BRANCH  18  23
HETATM   23  N6  UNL     1       6.962 -14.910   3.862  1.00  0.00    -0.383 N
ATOM     24  H62 UNL     1       7.966 -15.080   3.921  1.00  0.00     0.157 HD
ATOM     25  H61 UNL     1       6.376 -14.832   4.693  1.00  0.00     0.157 HD
ENDBRANCH  18  23
ENDBRANCH   7   8
ENDBRANCH   3   7
TORSDOF 4
ENDMDL