MODEL 1
REMARK VINA RESULT: -7.212420245      0.000      0.000
REMARK  3 active torsions:
REMARK  status: ('A' for Active; 'I' for Inactive)
REMARK       I    between atoms: N1_1  and  C1_5
REMARK       I    between atoms: C1_5  and  N2_6
REMARK       I    between atoms: C1_5  and  N3_10
REMARK    1  A    between atoms: N3_10  and  C2_12
REMARK    2  A    between atoms: C4_16  and  O1_17
REMARK    3  A    between atoms: O1_17  and  N5_18
ROOT
HETATM    1  C2  UNL     1       6.631 -13.529   3.290  1.00  0.00     0.680 A
HETATM    2  N4  UNL     1       7.321 -14.612   2.896  1.00  0.00    -0.199 N
ATOM      3  H4  UNL     1       8.021 -15.016   3.518  1.00  0.00     0.183 HD
HETATM    4  C3  UNL     1       7.102 -15.170   1.696  1.00  0.00     0.146 A
HETATM    5  C4  UNL     1       6.156 -14.631   0.843  1.00  0.00     0.130 A
HETATM    6  C8  UNL     1       5.478 -13.522   1.297  1.00  0.00     0.146 A
HETATM    7  N8  UNL     1       5.712 -12.987   2.493  1.00  0.00    -0.199 N
ATOM      8  H8  UNL     1       5.190 -12.165   2.797  1.00  0.00     0.183 HD
ENDROOT
BRANCH   1   9
HETATM    9  N3  UNL     1       6.915 -13.075   4.453  1.00  0.00    -0.173 N
HETATM   10  C1  UNL     1       7.439 -11.805   4.807  1.00  0.00     0.494 C
HETATM   11  N1  UNL     1       8.765 -11.635   4.272  1.00  0.00    -0.032 N
HETATM   12  N2  UNL     1       6.579 -10.691   4.466  1.00  0.00    -0.032 N
ATOM     13  H13 UNL     1       8.742 -11.477   3.265  1.00  0.00     0.278 HD
ATOM     14  H12 UNL     1       9.173 -10.747   4.564  1.00  0.00     0.278 HD
ATOM     15  H11 UNL     1       9.370 -12.420   4.512  1.00  0.00     0.278 HD
ATOM     16  H23 UNL     1       6.987  -9.802   4.758  1.00  0.00     0.278 HD
ATOM     17  H22 UNL     1       6.556 -10.532   3.459  1.00  0.00     0.278 HD
ATOM     18  H21 UNL     1       5.639 -10.811   4.845  1.00  0.00     0.278 HD
ATOM     19  H3  UNL     1       6.743 -13.713   5.230  1.00  0.00     0.181 HD
ENDBRANCH   1   9
BRANCH   5  20
HETATM   20  O1  UNL     1       5.913 -15.185  -0.394  1.00  0.00    -0.234 OA
BRANCH  20  21
HETATM   21  N5  UNL     1       6.610 -14.842  -1.521  1.00  0.00    -0.247 N
HETATM   22  C5  UNL     1       6.745 -15.714  -2.453  1.00  0.00     0.125 C
HETATM   23  C6  UNL     1       6.213 -17.098  -2.444  1.00  0.00     0.311 C
HETATM   24  N7  UNL     1       7.434 -15.529  -3.685  1.00  0.00    -0.354 N
HETATM   25  N6  UNL     1       6.292 -17.460  -3.863  1.00  0.00    -0.053 N
HETATM   26  C7  UNL     1       7.574 -16.860  -4.246  1.00  0.00     0.356 C
ATOM     27  H62 UNL     1       6.200 -18.456  -4.064  1.00  0.00     0.279 HD
ATOM     28  H61 UNL     1       5.492 -17.178  -4.431  1.00  0.00     0.279 HD
ATOM     29  H7  UNL     1       7.760 -14.650  -4.088  1.00  0.00     0.162 HD
ATOM     30  H5  UNL     1       7.014 -13.911  -1.619  1.00  0.00     0.196 HD
ENDBRANCH  20  21
ENDBRANCH   5  20
TORSDOF 3
ENDMDL