MODEL 2
REMARK VINA RESULT: -6.925973638      2.808      6.776
REMARK  4 active torsions:
REMARK  status: ('A' for Active; 'I' for Inactive)
REMARK    1  A    between atoms: C4_9  and  C5_10
REMARK    2  A    between atoms: N3_11  and  N4_13
REMARK    3  A    between atoms: N4_13  and  C6_15
REMARK    4  A    between atoms: N6_20  and  N7_21
ROOT
HETATM    1  N4  UNL     1       5.938 -12.240   0.855  1.00  0.00    -0.131 N
ATOM      2  H4  UNL     1       5.382 -11.624   0.262  1.00  0.00     0.205 HD
ENDROOT
BRANCH   1   3
HETATM    3  N3  UNL     1       6.260 -13.505   0.374  1.00  0.00    -0.297 N
HETATM    4  C5  UNL     1       5.675 -14.580   0.699  1.00  0.00     0.126 C
ATOM      5  H3  UNL     1       7.029 -13.572  -0.293  1.00  0.00     0.186 HD
BRANCH   4   6
HETATM    6  C4  UNL     1       6.123 -15.836   0.113  1.00  0.00     0.074 A
HETATM    7  C2  UNL     1       6.365 -17.037   0.743  1.00  0.00     0.039 A
HETATM    8  C1  UNL     1       6.209 -17.288   2.201  1.00  0.00     0.071 C
HETATM    9  N1  UNL     1       6.768 -17.954  -0.168  1.00  0.00    -0.301 N
HETATM   10  N2  UNL     1       6.783 -17.365  -1.330  1.00  0.00    -0.266 N
ATOM     11  H1  UNL     1       7.015 -18.925   0.020  1.00  0.00     0.186 HD
HETATM   12  C3  UNL     1       6.404 -16.083  -1.235  1.00  0.00     0.273 A
ATOM     13  H2  UNL     1       7.050 -17.823  -2.202  1.00  0.00     0.190 HD
HETATM   14  O1  UNL     1       6.305 -15.236  -2.144  1.00  0.00    -0.266 OA
ENDBRANCH   4   6
ENDBRANCH   1   3
BRANCH   1  15
HETATM   15  C6  UNL     1       6.306 -11.807   2.013  1.00  0.00     0.717 A
HETATM   16  N5  UNL     1       5.756 -10.901   2.821  1.00  0.00    -0.136 N
HETATM   17  C7  UNL     1       6.493 -10.759   3.953  1.00  0.00     0.375 A
ATOM     18  H5  UNL     1       4.900 -10.385   2.617  1.00  0.00     0.189 HD
HETATM   19  O2  UNL     1       6.243  -9.982   4.919  1.00  0.00    -0.243 OA
HETATM   20  N6  UNL     1       7.516 -11.614   3.807  1.00  0.00    -0.134 N
HETATM   21  N8  UNL     1       7.416 -12.257   2.634  1.00  0.00    -0.105 N
ATOM     22  H8  UNL     1       8.063 -12.960   2.276  1.00  0.00     0.208 HD
BRANCH  20  23
HETATM   23  N7  UNL     1       8.539 -11.793   4.763  1.00  0.00    -0.319 N
ATOM     24  H72 UNL     1       8.833 -11.108   5.459  1.00  0.00     0.179 HD
ATOM     25  H71 UNL     1       9.094 -12.644   4.853  1.00  0.00     0.179 HD
ENDBRANCH  20  23
ENDBRANCH   1  15
TORSDOF 4
ENDMDL