MODEL 4
REMARK VINA RESULT: -6.776323581      3.442      5.369
REMARK  3 active torsions:
REMARK  status: ('A' for Active; 'I' for Inactive)
REMARK    1  A    between atoms: O1_2  and  C2_3
REMARK    2  A    between atoms: C2_3  and  N1_4
REMARK    3  A    between atoms: C5_14  and  N5_15
ROOT
HETATM    1  N1  UNL     1       6.257 -16.367   2.251  1.00  0.00    -0.231 N
HETATM    2  N2  UNL     1       6.111 -16.229   0.953  1.00  0.00    -0.277 N
ATOM      3  H2  UNL     1       5.978 -17.063   0.381  1.00  0.00     0.189 HD
HETATM    4  C3  UNL     1       6.131 -15.007   0.340  1.00  0.00     0.142 A
HETATM    5  N3  UNL     1       5.985 -14.915  -0.922  1.00  0.00    -0.383 N
ATOM      6  H31 UNL     1       6.000 -14.003  -1.378  1.00  0.00     0.157 HD
ATOM      7  H32 UNL     1       5.848 -15.723  -1.529  1.00  0.00     0.157 HD
HETATM    8  C4  UNL     1       6.314 -13.917   1.160  1.00  0.00     0.115 A
HETATM    9  N4  UNL     1       6.351 -12.667   0.676  1.00  0.00    -0.187 N
ATOM     10  H4  UNL     1       6.242 -12.506  -0.325  1.00  0.00     0.184 HD
HETATM   11  C5  UNL     1       6.533 -11.622   1.509  1.00  0.00     0.679 A
HETATM   12  N6  UNL     1       6.684 -11.769   2.853  1.00  0.00    -0.155 N
ATOM     13  H6  UNL     1       6.819 -10.950   3.447  1.00  0.00     0.187 HD
HETATM   14  C6  UNL     1       6.654 -12.994   3.391  1.00  0.00     0.277 A
HETATM   15  O2  UNL     1       6.794 -13.149   4.637  1.00  0.00    -0.266 OA
HETATM   16  C7  UNL     1       6.469 -14.067   2.544  1.00  0.00     0.133 A
HETATM   17  C8  UNL     1       6.437 -15.329   3.075  1.00  0.00     0.282 A
HETATM   18  O3  UNL     1       6.579 -15.468   4.332  1.00  0.00    -0.265 OA
ENDROOT
BRANCH   1  19
HETATM   19  C2  UNL     1       6.229 -17.691   2.853  1.00  0.00     0.319 C
BRANCH  19  20
HETATM   20  O1  UNL     1       7.140 -18.482   2.178  1.00  0.00    -0.375 OA
HETATM   21  C1  UNL     1       8.370 -18.504   2.865  1.00  0.00     0.203 C
ENDBRANCH  19  20
ENDBRANCH   1  19
BRANCH  11  22
HETATM   22  N5  UNL     1       6.565 -10.417   1.013  1.00  0.00    -0.234 N
ATOM     23  H52 UNL     1       7.334  -9.803   1.286  1.00  0.00     0.174 HD
ATOM     24  H51 UNL     1       5.826 -10.124   0.374  1.00  0.00     0.174 HD
ENDBRANCH  11  22
TORSDOF 3
ENDMDL