MODEL 5
REMARK VINA RESULT: -8.099897427      1.262      1.563
REMARK  12 active torsions:
REMARK  status: ('A' for Active; 'I' for Inactive)
REMARK    1  A    between atoms: C2_2  and  O1_5
REMARK    2  A    between atoms: O1_5  and  C5_6
REMARK       I    between atoms: C5_6  and  N1_8
REMARK    3  A    between atoms: N1_8  and  C6_9
REMARK    4  A    between atoms: C6_9  and  C7_10
REMARK    5  A    between atoms: C8_15  and  S1_16
REMARK    6  A    between atoms: S1_16  and  C9_17
REMARK    7  A    between atoms: C9_17  and  C10_18
REMARK    8  A    between atoms: C10_18  and  O3_19
REMARK    9  A    between atoms: C10_18  and  N4_21
REMARK   10  A    between atoms: N4_21  and  C11_22
REMARK   11  A    between atoms: C11_22  and  C12_23
REMARK   12  A    between atoms: N5_28  and  C15_29
ROOT
HETATM    1  C7  UNL     1      24.050  26.610  26.192  1.00  0.00     0.154 A
HETATM    2  N2  UNL     1      23.894  25.339  25.843  1.00  0.00    -0.281 N
ATOM      3  H2  UNL     1      23.099  24.749  26.091  1.00  0.00     0.188 HD
HETATM    4  N3  UNL     1      24.934  24.963  25.124  1.00  0.00    -0.278 N
ATOM      5  H3  UNL     1      25.060  24.031  24.729  1.00  0.00     0.189 HD
HETATM    6  C8  UNL     1      25.787  25.959  24.987  1.00  0.00     0.163 A
HETATM    7  N5  UNL     1      25.224  27.015  25.665  1.00  0.00    -0.305 N
ENDROOT
BRANCH   6   8
HETATM    8  S1  UNL     1      27.315  25.994  24.129  1.00  0.00    -0.083 SA
BRANCH   8   9
HETATM    9  C9  UNL     1      27.398  25.141  22.575  1.00  0.00     0.182 C
BRANCH   9  10
HETATM   10  C10 UNL     1      27.521  23.638  22.758  1.00  0.00     0.198 C
BRANCH  10  11
HETATM   11  O3  UNL     1      27.719  23.304  24.017  1.00  0.00    -0.338 OA
ATOM     12  H3  UNL     1      27.301  22.481  24.241  1.00  0.00     0.220 HD
ENDBRANCH  10  11
BRANCH  10  13
HETATM   13  N4  UNL     1      27.445  22.716  21.753  1.00  0.00    -0.398 NA
BRANCH  13  14
HETATM   14  C11 UNL     1      27.371  21.796  20.751  1.00  0.00     0.192 C
BRANCH  14  15
HETATM   15  C12 UNL     1      28.646  20.996  20.495  1.00  0.00     0.200 C
HETATM   16  C13 UNL     1      29.831  21.888  20.199  1.00  0.00     0.209 C
HETATM   17  O4  UNL     1      30.524  21.062  19.288  1.00  0.00    -0.364 OA
HETATM   18  C14 UNL     1      29.459  20.667  18.450  1.00  0.00     0.338 C
HETATM   19  O5  UNL     1      28.466  20.237  19.344  1.00  0.00    -0.353 OA
ENDBRANCH  14  15
ENDBRANCH  13  14
ENDBRANCH  10  13
ENDBRANCH   9  10
ENDBRANCH   8   9
ENDBRANCH   6   8
BRANCH   7  20
HETATM   20  C15 UNL     1      25.788  28.318  25.740  1.00  0.00     0.094 C
HETATM   21  C16 UNL     1      26.906  28.484  26.725  1.00  0.00     0.026 C
HETATM   22  C17 UNL     1      27.506  29.805  26.272  1.00  0.00     0.002 C
HETATM   23  C18 UNL     1      27.497  29.625  24.760  1.00  0.00     0.002 C
HETATM   24  C19 UNL     1      26.196  28.954  24.433  1.00  0.00     0.026 C
ENDBRANCH   7  20
BRANCH   1  25
HETATM   25  C6  UNL     1      23.142  27.471  27.032  1.00  0.00     0.238 C
BRANCH  25  26
HETATM   26  N1  UNL     1      21.995  26.893  27.537  1.00  0.00    -0.355 NA
HETATM   27  C5  UNL     1      20.850  26.276  27.961  1.00  0.00     0.440 C
HETATM   28  O2  UNL     1      20.130  25.417  27.323  1.00  0.00    -0.221 OA
BRANCH  27  29
HETATM   29  O1  UNL     1      20.287  26.537  29.255  1.00  0.00    -0.282 OA
BRANCH  29  30
HETATM   30  C2  UNL     1      21.051  26.191  30.384  1.00  0.00     0.062 C
HETATM   31  C1  UNL     1      20.073  25.977  31.548  1.00  0.00     0.046 C
HETATM   32  C3  UNL     1      21.951  27.321  30.835  1.00  0.00     0.046 C
HETATM   33  C4  UNL     1      21.900  24.949  30.160  1.00  0.00     0.046 C
ENDBRANCH  29  30
ENDBRANCH  27  29
ENDBRANCH  25  26
ENDBRANCH   1  25
TORSDOF 12
ENDMDL