MODEL 4
REMARK VINA RESULT: -7.034359342      2.760      6.258
REMARK  9 active torsions:
REMARK  status: ('A' for Active; 'I' for Inactive)
REMARK    1  A    between atoms: C2_2  and  O1_3
REMARK    2  A    between atoms: O1_3  and  C3_4
REMARK    3  A    between atoms: C3_4  and  C4_6
REMARK    4  A    between atoms: N2_12  and  C8_13
REMARK    5  A    between atoms: C8_13  and  C9_14
REMARK    6  A    between atoms: C8_13  and  C16_21
REMARK    7  A    between atoms: C9_14  and  C10_15
REMARK    8  A    between atoms: N6_28  and  C17_29
REMARK    9  A    between atoms: C17_29  and  C18_30
ROOT
HETATM    1  C8  UNL     1      25.248  26.526  25.049  1.00  0.00     0.059 C
ENDROOT
BRANCH   1   2
HETATM    2  N2  UNL     1      26.526  26.856  25.570  1.00  0.00    -0.343 N
HETATM    3  C4  UNL     1      27.312  27.922  25.211  1.00  0.00     0.105 C
HETATM    4  C5  UNL     1      28.294  27.642  24.044  1.00  0.00     0.178 C
HETATM    5  N1  UNL     1      29.108  26.527  24.387  1.00  0.00    -0.414 N
HETATM    6  C6  UNL     1      28.408  25.389  24.880  1.00  0.00     0.134 C
ATOM      7  H1  UNL     1      30.122  26.543  24.288  1.00  0.00     0.153 HD
HETATM    8  C7  UNL     1      27.327  25.663  25.855  1.00  0.00     0.148 C
BRANCH   3   9
HETATM    9  C3  UNL     1      26.894  29.293  25.187  1.00  0.00     0.307 C
HETATM   10  O2  UNL     1      26.327  29.938  24.292  1.00  0.00    -0.258 OA
BRANCH   9  11
HETATM   11  O1  UNL     1      27.150  30.072  26.352  1.00  0.00    -0.317 OA
BRANCH  11  12
HETATM   12  C2  UNL     1      28.389  30.723  26.540  1.00  0.00     0.175 C
HETATM   13  C1  UNL     1      28.218  32.161  26.135  1.00  0.00     0.034 C
ENDBRANCH  11  12
ENDBRANCH   9  11
ENDBRANCH   3   9
ENDBRANCH   1   2
BRANCH   1  14
HETATM   14  C9  UNL     1      24.138  27.369  25.569  1.00  0.00     0.066 C
BRANCH  14  15
HETATM   15  C10 UNL     1      23.774  27.290  27.011  1.00  0.00    -0.009 C
HETATM   16  C11 UNL     1      24.181  28.585  27.738  1.00  0.00     0.005 C
HETATM   17  C12 UNL     1      23.230  28.819  28.892  1.00  0.00     0.000 C
HETATM   18  C13 UNL     1      22.876  27.502  29.555  1.00  0.00     0.000 C
HETATM   19  C14 UNL     1      22.079  26.616  28.633  1.00  0.00     0.000 C
HETATM   20  C15 UNL     1      22.275  27.145  27.225  1.00  0.00     0.005 C
ENDBRANCH  14  15
ENDBRANCH   1  14
BRANCH   1  21
HETATM   21  C16 UNL     1      24.967  25.097  24.831  1.00  0.00     0.162 A
HETATM   22  N3  UNL     1      24.153  24.329  25.617  1.00  0.00    -0.267 N
HETATM   23  N4  UNL     1      24.114  23.118  25.153  1.00  0.00    -0.226 N
ATOM     24  H3  UNL     1      23.654  24.659  26.443  1.00  0.00     0.190 HD
HETATM   25  N5  UNL     1      24.866  23.018  24.081  1.00  0.00    -0.224 N
ATOM     26  H4  UNL     1      23.576  22.354  25.562  1.00  0.00     0.210 HD
HETATM   27  N6  UNL     1      25.394  24.253  23.885  1.00  0.00    -0.253 N
ATOM     28  H5  UNL     1      25.020  22.185  23.513  1.00  0.00     0.210 HD
BRANCH  27  29
HETATM   29  C17 UNL     1      26.279  24.566  22.783  1.00  0.00     0.198 C
BRANCH  29  30
HETATM   30  C18 UNL     1      26.840  23.326  22.151  1.00  0.00     0.002 A
HETATM   31  C19 UNL     1      27.033  23.070  20.826  1.00  0.00     0.017 A
HETATM   32  C20 UNL     1      27.552  21.879  20.489  1.00  0.00     0.008 A
HETATM   33  C21 UNL     1      27.849  21.013  21.506  1.00  0.00     0.050 A
HETATM   34  S1  UNL     1      27.395  21.885  22.896  1.00  0.00    -0.105 SA
ENDBRANCH  29  30
ENDBRANCH  27  29
ENDBRANCH   1  21
TORSDOF 9
ENDMDL