MODEL 1
REMARK VINA RESULT: -7.955943783      0.000      0.000
REMARK  10 active torsions:
REMARK  status: ('A' for Active; 'I' for Inactive)
REMARK    1  A    between atoms: C2_2  and  O1_3
REMARK    2  A    between atoms: O1_3  and  C3_4
REMARK    3  A    between atoms: C5_6  and  C6_7
REMARK    4  A    between atoms: C6_7  and  O2_8
REMARK    5  A    between atoms: C6_7  and  N1_16
REMARK    6  A    between atoms: O2_8  and  C7_9
REMARK    7  A    between atoms: N3_25  and  C19_26
REMARK    8  A    between atoms: C19_26  and  C20_27
REMARK    9  A    between atoms: C20_27  and  O4_28
REMARK   10  A    between atoms: N4_30  and  O5_32
ROOT
HETATM    1  C3  UNL     1      25.621  23.024  23.271  1.00  0.00     0.140 A
HETATM    2  C4  UNL     1      25.827  24.339  23.634  1.00  0.00     0.073 A
HETATM    3  C5  UNL     1      25.133  24.902  24.705  1.00  0.00     0.087 A
HETATM    4  N2  UNL     1      24.271  24.077  25.334  1.00  0.00    -0.295 N
ATOM      5  H2  UNL     1      23.746  24.455  26.122  1.00  0.00     0.187 HD
HETATM    6  N3  UNL     1      24.060  22.834  25.011  1.00  0.00    -0.247 N
HETATM    7  C21 UNL     1      24.717  22.274  23.985  1.00  0.00     0.295 A
HETATM    8  O6  UNL     1      24.505  21.072  23.680  1.00  0.00    -0.263 OA
ENDROOT
BRANCH   3   9
HETATM    9  C6  UNL     1      25.332  26.316  25.121  1.00  0.00     0.412 C
BRANCH   9  10
HETATM   10  O2  UNL     1      24.977  26.486  26.448  1.00  0.00    -0.347 OA
BRANCH  10  11
HETATM   11  C7  UNL     1      24.010  27.432  26.659  1.00  0.00     0.124 C
HETATM   12  C8  UNL     1      22.699  26.685  26.938  1.00  0.00     0.032 C
HETATM   13  C9  UNL     1      22.587  26.432  28.443  1.00  0.00     0.007 C
HETATM   14  C10 UNL     1      22.181  27.724  29.075  1.00  0.00    -0.019 C
HETATM   15  C11 UNL     1      22.352  27.745  30.573  1.00  0.00     0.010 C
HETATM   16  C12 UNL     1      22.973  28.840  28.442  1.00  0.00     0.007 C
HETATM   17  C13 UNL     1      24.269  28.333  27.831  1.00  0.00     0.032 C
ENDBRANCH  10  11
ENDBRANCH   9  10
BRANCH   9  18
HETATM   18  N1  UNL     1      26.611  26.854  24.797  1.00  0.00     0.131 N
HETATM   19  C14 UNL     1      27.639  26.153  25.544  1.00  0.00     0.303 C
HETATM   20  C15 UNL     1      28.937  26.340  24.745  1.00  0.00     0.198 C
HETATM   21  O3  UNL     1      28.888  27.537  24.039  1.00  0.00    -0.387 OA
HETATM   22  C16 UNL     1      28.271  28.553  24.740  1.00  0.00     0.203 C
HETATM   23  C17 UNL     1      26.785  28.250  24.986  1.00  0.00     0.246 C
HETATM   24  C18 UNL     1      25.993  29.100  24.023  1.00  0.00     0.045 C
ENDBRANCH   9  18
ENDBRANCH   3   9
BRANCH   1  25
HETATM   25  O1  UNL     1      26.333  22.486  22.191  1.00  0.00    -0.346 OA
BRANCH  25  26
HETATM   26  C2  UNL     1      27.697  22.213  22.285  1.00  0.00     0.171 C
HETATM   27  C1  UNL     1      28.382  22.790  21.061  1.00  0.00     0.034 C
ENDBRANCH  25  26
ENDBRANCH   1  25
BRANCH   6  28
HETATM   28  C19 UNL     1      23.103  22.012  25.753  1.00  0.00     0.238 C
BRANCH  28  29
HETATM   29  C20 UNL     1      21.719  22.474  25.588  1.00  0.00     0.155 C
HETATM   30  N4  UNL     1      21.052  22.132  24.555  1.00  0.00    -0.250 N
ATOM     31  H4  UNL     1      21.525  21.536  23.875  1.00  0.00     0.196 HD
BRANCH  29  32
HETATM   32  O4  UNL     1      21.138  23.276  26.544  1.00  0.00    -0.347 OA
ATOM     33  H4  UNL     1      21.427  24.174  26.653  1.00  0.00     0.219 HD
ENDBRANCH  29  32
BRANCH  30  34
HETATM   34  O5  UNL     1      19.772  22.487  24.278  1.00  0.00    -0.288 OA
ATOM     35  H5  UNL     1      19.365  22.482  23.419  1.00  0.00     0.244 HD
ENDBRANCH  30  34
ENDBRANCH  28  29
ENDBRANCH   6  28
TORSDOF 10
ENDMDL