MODEL 1
REMARK VINA RESULT: -9.409750557      0.000      0.000
REMARK  11 active torsions:
REMARK  status: ('A' for Active; 'I' for Inactive)
REMARK    1  A    between atoms: C2_2  and  O1_4
REMARK    2  A    between atoms: O1_4  and  C4_5
REMARK    3  A    between atoms: C5_7  and  C6_8
REMARK    4  A    between atoms: C6_8  and  O3_9
REMARK    5  A    between atoms: O3_9  and  C7_10
REMARK    6  A    between atoms: C7_10  and  C8_12
REMARK    7  A    between atoms: C9_13  and  C10_14
REMARK    8  A    between atoms: C15_19  and  C16_20
REMARK    9  A    between atoms: C20_27  and  C21_28
REMARK   10  A    between atoms: C21_28  and  O8_29
REMARK   11  A    between atoms: C22_31  and  O9_32
ROOT
HETATM    1  O3  UNL     1      27.787  25.723  22.509  1.00  0.00    -0.313 OA
ENDROOT
BRANCH   1   2
HETATM    2  C6  UNL     1      28.342  24.920  21.546  1.00  0.00     0.240 C
BRANCH   2   3
HETATM    3  C5  UNL     1      27.573  23.666  21.276  1.00  0.00     0.288 C
HETATM    4  O2  UNL     1      28.505  22.586  21.382  1.00  0.00    -0.327 OA
HETATM    5  C4  UNL     1      27.914  21.527  20.709  1.00  0.00     0.294 C
HETATM    6  C22 UNL     1      26.741  21.079  21.549  1.00  0.00     0.204 C
HETATM    7  C20 UNL     1      26.227  22.169  22.449  1.00  0.00     0.181 C
HETATM    8  O7  UNL     1      26.459  23.435  21.988  1.00  0.00    -0.349 OA
BRANCH   5   9
HETATM    9  O1  UNL     1      28.796  20.476  20.478  1.00  0.00    -0.354 OA
BRANCH   9  10
HETATM   10  C2  UNL     1      29.448  20.598  19.277  1.00  0.00     0.116 C
HETATM   11  C1  UNL     1      28.528  20.445  18.087  1.00  0.00     0.039 C
HETATM   12  C3  UNL     1      30.537  19.569  19.187  1.00  0.00     0.039 C
ENDBRANCH   9  10
ENDBRANCH   5   9
BRANCH   6  13
HETATM   13  O9  UNL     1      25.727  20.566  20.727  1.00  0.00    -0.388 OA
ATOM     14  H9  UNL     1      24.917  21.039  20.874  1.00  0.00     0.210 HD
ENDBRANCH   6  13
BRANCH   7  15
HETATM   15  C21 UNL     1      26.778  21.986  23.868  1.00  0.00     0.199 C
BRANCH  15  16
HETATM   16  O8  UNL     1      27.612  20.886  23.944  1.00  0.00    -0.398 OA
ATOM     17  H8  UNL     1      27.496  20.421  24.764  1.00  0.00     0.209 HD
ENDBRANCH  15  16
ENDBRANCH   7  15
ENDBRANCH   2   3
ENDBRANCH   1   2
BRANCH   1  18
HETATM   18  C7  UNL     1      28.348  26.047  23.773  1.00  0.00     0.283 C
HETATM   19  O4  UNL     1      28.389  25.074  24.545  1.00  0.00    -0.260 OA
BRANCH  18  20
HETATM   20  C8  UNL     1      28.788  27.398  24.018  1.00  0.00     0.083 C
HETATM   21  C9  UNL     1      28.419  28.334  24.764  1.00  0.00     0.018 C
BRANCH  21  22
HETATM   22  C10 UNL     1      27.429  28.650  25.763  1.00  0.00    -0.026 A
HETATM   23  C11 UNL     1      26.419  27.797  26.104  1.00  0.00     0.051 A
HETATM   24  C12 UNL     1      25.400  28.117  27.026  1.00  0.00     0.105 A
HETATM   25  C13 UNL     1      25.434  29.359  27.611  1.00  0.00     0.105 A
HETATM   26  O6  UNL     1      24.294  27.411  27.508  1.00  0.00    -0.323 OA
HETATM   27  C14 UNL     1      26.448  30.218  27.272  1.00  0.00     0.048 A
HETATM   28  O5  UNL     1      24.319  29.390  28.463  1.00  0.00    -0.323 OA
HETATM   29  C15 UNL     1      27.443  29.920  26.377  1.00  0.00    -0.042 A
HETATM   30  C19 UNL     1      23.391  28.401  28.024  1.00  0.00     0.352 C
BRANCH  29  31
HETATM   31  C16 UNL     1      28.494  30.923  26.053  1.00  0.00     0.011 C
HETATM   32  C17 UNL     1      29.689  30.749  26.993  1.00  0.00     0.015 C
HETATM   33  C18 UNL     1      27.918  32.319  26.201  1.00  0.00     0.015 C
ENDBRANCH  29  31
ENDBRANCH  21  22
ENDBRANCH  18  20
ENDBRANCH   1  18
TORSDOF 11
ENDMDL