MODEL 3
REMARK VINA RESULT: -7.825885987      5.123      9.317
REMARK  10 active torsions:
REMARK  status: ('A' for Active; 'I' for Inactive)
REMARK    1  A    between atoms: C2_2  and  O1_3
REMARK    2  A    between atoms: O1_3  and  C3_4
REMARK    3  A    between atoms: C3_4  and  C4_6
REMARK    4  A    between atoms: C4_6  and  N1_7
REMARK    5  A    between atoms: C5_8  and  N2_9
REMARK    6  A    between atoms: C12_16  and  O3_17
REMARK    7  A    between atoms: N3_19  and  C13_20
REMARK    8  A    between atoms: C13_20  and  C14_21
REMARK    9  A    between atoms: C14_21  and  C15_22
REMARK       I    between atoms: C15_22  and  N4_24
REMARK   10  A    between atoms: N4_24  and  C16_26
ROOT
HETATM    1  N1  UNL     1      26.822  22.968  21.979  1.00  0.00    -0.272 N
HETATM    2  C5  UNL     1      26.078  22.295  22.891  1.00  0.00     0.163 A
HETATM    3  C12 UNL     1      25.906  23.151  23.972  1.00  0.00     0.192 A
HETATM    4  N3  UNL     1      26.538  24.321  23.703  1.00  0.00    -0.276 N
HETATM    5  C22 UNL     1      27.072  24.170  22.507  1.00  0.00     0.333 A
HETATM    6  O5  UNL     1      27.748  25.053  21.912  1.00  0.00    -0.246 OA
ENDROOT
BRANCH   4   7
HETATM    7  C13 UNL     1      26.568  25.446  24.636  1.00  0.00     0.145 C
BRANCH   7   8
HETATM    8  C14 UNL     1      27.949  26.081  24.581  1.00  0.00     0.123 C
BRANCH   8   9
HETATM    9  C15 UNL     1      27.801  27.520  24.279  1.00  0.00     0.219 C
HETATM   10  O4  UNL     1      27.407  27.894  23.139  1.00  0.00    -0.274 OA
HETATM   11  N4  UNL     1      28.102  28.478  25.256  1.00  0.00    -0.356 N
ATOM     12  H4  UNL     1      28.434  28.186  26.175  1.00  0.00     0.162 HD
BRANCH  11  13
HETATM   13  C16 UNL     1      27.939  29.904  24.949  1.00  0.00     0.084 C
HETATM   14  C17 UNL     1      27.100  30.591  25.956  1.00  0.00     0.025 C
HETATM   15  C18 UNL     1      28.010  31.570  26.718  1.00  0.00     0.002 C
HETATM   16  C19 UNL     1      28.493  32.634  25.744  1.00  0.00     0.000 C
HETATM   17  C20 UNL     1      29.341  31.957  24.703  1.00  0.00     0.002 C
HETATM   18  C21 UNL     1      29.369  30.464  24.905  1.00  0.00     0.025 C
ENDBRANCH  11  13
ENDBRANCH   8   9
ENDBRANCH   7   8
ENDBRANCH   4   7
BRANCH   3  19
HETATM   19  O3  UNL     1      25.199  22.879  25.151  1.00  0.00    -0.343 OA
ATOM     20  H3  UNL     1      24.680  23.494  25.655  1.00  0.00     0.219 HD
ENDBRANCH   3  19
BRANCH   2  21
HETATM   21  N2  UNL     1      25.518  20.992  22.845  1.00  0.00    -0.355 N
HETATM   22  C6  UNL     1      24.241  20.527  22.301  1.00  0.00     0.082 C
HETATM   23  C7  UNL     1      24.512  19.708  21.034  1.00  0.00     0.032 C
HETATM   24  C8  UNL     1      23.798  19.493  23.341  1.00  0.00     0.027 C
HETATM   25  C9  UNL     1      25.028  19.205  24.190  1.00  0.00     0.027 C
HETATM   26  C10 UNL     1      26.132  19.752  23.339  1.00  0.00     0.082 C
HETATM   27  C11 UNL     1      27.401  19.967  24.079  1.00  0.00     0.032 C
ENDBRANCH   2  21
BRANCH   1  28
HETATM   28  C4  UNL     1      27.231  22.493  20.675  1.00  0.00     0.246 C
BRANCH  28  29
HETATM   29  C3  UNL     1      28.641  22.060  20.629  1.00  0.00     0.277 C
HETATM   30  O2  UNL     1      29.603  22.776  20.262  1.00  0.00    -0.263 OA
BRANCH  29  31
HETATM   31  O1  UNL     1      28.929  20.761  21.018  1.00  0.00    -0.321 OA
BRANCH  31  32
HETATM   32  C2  UNL     1      28.924  19.645  20.137  1.00  0.00     0.174 C
HETATM   33  C1  UNL     1      30.280  19.393  19.527  1.00  0.00     0.034 C
ENDBRANCH  31  32
ENDBRANCH  29  31
ENDBRANCH  28  29
ENDBRANCH   1  28
TORSDOF 10
ENDMDL