MODEL 2
REMARK VINA RESULT: -7.672414380      1.002      1.450
REMARK  11 active torsions:
REMARK  status: ('A' for Active; 'I' for Inactive)
REMARK    1  A    between atoms: C2_2  and  O2_4
REMARK    2  A    between atoms: O2_4  and  C3_5
REMARK    3  A    between atoms: C5_7  and  O3_8
REMARK    4  A    between atoms: O3_8  and  C6_9
REMARK    5  A    between atoms: C6_9  and  O4_11
REMARK    6  A    between atoms: C6_9  and  C8_13
REMARK    7  A    between atoms: C9_14  and  C10_15
REMARK    8  A    between atoms: C10_15  and  N1_16
REMARK    9  A    between atoms: C14_20  and  C15_21
REMARK   10  A    between atoms: C15_21  and  O5_22
REMARK   11  A    between atoms: O5_22  and  C16_23
ROOT
HETATM    1  C3  UNL     1      27.023  29.920  25.189  1.00  0.00     0.171 C
HETATM    2  C4  UNL     1      26.332  29.153  24.074  1.00  0.00     0.074 C
HETATM    3  C5  UNL     1      25.949  27.844  24.862  1.00  0.00     0.162 C
HETATM    4  C13 UNL     1      25.434  28.473  26.089  1.00  0.00    -0.009 A
HETATM    5  C14 UNL     1      24.449  28.038  27.000  1.00  0.00    -0.022 A
HETATM    6  C17 UNL     1      24.128  28.803  28.105  1.00  0.00     0.049 A
HETATM    7  C18 UNL     1      24.774  29.998  28.315  1.00  0.00     0.106 A
HETATM    8  C19 UNL     1      25.736  30.421  27.421  1.00  0.00     0.114 A
HETATM    9  C20 UNL     1      26.076  29.679  26.310  1.00  0.00     0.017 A
HETATM   10  O7  UNL     1      26.209  31.653  27.893  1.00  0.00    -0.322 OA
HETATM   11  C21 UNL     1      25.857  31.706  29.262  1.00  0.00     0.352 C
HETATM   12  O8  UNL     1      24.663  30.950  29.311  1.00  0.00    -0.323 OA
ENDROOT
BRANCH   3  13
HETATM   13  O3  UNL     1      27.106  27.164  25.106  1.00  0.00    -0.342 OA
BRANCH  13  14
HETATM   14  C6  UNL     1      27.638  26.383  24.139  1.00  0.00     0.177 C
HETATM   15  C7  UNL     1      29.147  26.650  24.000  1.00  0.00     0.083 C
BRANCH  14  16
HETATM   16  O4  UNL     1      27.013  26.739  22.926  1.00  0.00    -0.362 OA
ATOM     17  H4  UNL     1      26.131  27.022  23.138  1.00  0.00     0.213 HD
ENDBRANCH  14  16
BRANCH  14  18
HETATM   18  C8  UNL     1      27.508  24.942  24.385  1.00  0.00     0.038 C
HETATM   19  C9  UNL     1      27.331  24.058  23.412  1.00  0.00     0.004 C
BRANCH  19  20
HETATM   20  C10 UNL     1      27.198  22.609  23.647  1.00  0.00     0.298 C
BRANCH  20  21
HETATM   21  N1  UNL     1      27.458  21.854  22.420  1.00  0.00     0.083 N
HETATM   22  C11 UNL     1      26.216  21.430  21.825  1.00  0.00     0.309 C
HETATM   23  C12 UNL     1      28.184  22.649  21.469  1.00  0.00     0.309 C
ENDBRANCH  20  21
ENDBRANCH  19  20
ENDBRANCH  14  18
ENDBRANCH  13  14
ENDBRANCH   3  13
BRANCH   1  24
HETATM   24  O2  UNL     1      28.322  29.514  25.426  1.00  0.00    -0.311 OA
BRANCH  24  25
HETATM   25  C2  UNL     1      29.459  30.212  25.065  1.00  0.00     0.255 C
HETATM   26  C1  UNL     1      30.760  29.986  25.725  1.00  0.00     0.126 C
HETATM   27  O1  UNL     1      29.372  31.051  24.157  1.00  0.00    -0.266 OA
ENDBRANCH  24  25
ENDBRANCH   1  24
BRANCH   5  28
HETATM   28  C15 UNL     1      23.717  26.762  26.821  1.00  0.00     0.219 C
BRANCH  28  29
HETATM   29  O5  UNL     1      22.302  26.987  26.936  1.00  0.00    -0.302 OA
BRANCH  29  30
HETATM   30  C16 UNL     1      21.643  26.086  27.783  1.00  0.00     0.372 C
HETATM   31  N2  UNL     1      20.257  25.842  27.613  1.00  0.00    -0.032 NA
HETATM   32  O6  UNL     1      22.245  25.476  28.702  1.00  0.00    -0.242 OA
ENDBRANCH  29  30
ENDBRANCH  28  29
ENDBRANCH   5  28
TORSDOF 11
ENDMDL