MODEL 3
REMARK VINA RESULT: -7.681541991      1.610      2.861
REMARK  12 active torsions:
REMARK  status: ('A' for Active; 'I' for Inactive)
REMARK    1  A    between atoms: C2_2  and  C3_3
REMARK    2  A    between atoms: C3_3  and  C4_4
REMARK    3  A    between atoms: C4_4  and  C5_5
REMARK    4  A    between atoms: C5_5  and  C6_6
REMARK    5  A    between atoms: C6_6  and  C7_7
REMARK    6  A    between atoms: C7_7  and  C8_8
REMARK    7  A    between atoms: C8_8  and  O2_10
REMARK    8  A    between atoms: O2_10  and  C9_11
REMARK    9  A    between atoms: C9_11  and  C10_12
REMARK   10  A    between atoms: C13_17  and  O5_18
REMARK   11  A    between atoms: C14_20  and  O6_21
REMARK   12  A    between atoms: C19_27  and  O7_28
ROOT
HETATM    1  C10 UNL     1      27.465  27.317  24.646  1.00  0.00     0.139 C
HETATM    2  C11 UNL     1      26.217  26.541  24.521  1.00  0.00     0.268 C
HETATM    3  O3  UNL     1      25.206  27.242  24.714  1.00  0.00    -0.265 OA
HETATM    4  O4  UNL     1      25.927  25.229  24.241  1.00  0.00    -0.309 OA
HETATM    5  C12 UNL     1      26.497  23.956  24.263  1.00  0.00     0.208 C
HETATM    6  C13 UNL     1      25.408  22.969  24.587  1.00  0.00     0.180 C
HETATM    7  C14 UNL     1      25.705  21.587  24.113  1.00  0.00     0.153 C
HETATM    8  C15 UNL     1      26.004  21.548  22.645  1.00  0.00     0.020 C
HETATM    9  C16 UNL     1      27.067  20.525  22.406  1.00  0.00     0.013 C
HETATM   10  C17 UNL     1      26.313  22.908  22.057  1.00  0.00     0.035 C
HETATM   11  C18 UNL     1      26.803  22.721  20.665  1.00  0.00     0.014 C
HETATM   12  C19 UNL     1      27.252  23.604  22.981  1.00  0.00     0.178 C
HETATM   13  C20 UNL     1      27.817  24.862  22.477  1.00  0.00     0.297 C
HETATM   14  O8  UNL     1      27.675  25.043  21.259  1.00  0.00    -0.262 OA
HETATM   15  O9  UNL     1      28.486  25.909  23.070  1.00  0.00    -0.313 OA
HETATM   16  C21 UNL     1      28.669  26.483  24.349  1.00  0.00     0.143 C
HETATM   17  C22 UNL     1      29.928  27.272  24.400  1.00  0.00     0.041 C
ENDROOT
BRANCH   1  18
HETATM   18  C9  UNL     1      27.379  28.464  23.663  1.00  0.00     0.196 C
BRANCH  18  19
HETATM   19  O2  UNL     1      27.313  29.726  24.278  1.00  0.00    -0.321 OA
BRANCH  19  20
HETATM   20  C8  UNL     1      28.378  30.385  24.825  1.00  0.00     0.258 C
HETATM   21  O1  UNL     1      29.248  30.873  24.062  1.00  0.00    -0.265 OA
BRANCH  20  22
HETATM   22  C7  UNL     1      28.582  30.565  26.290  1.00  0.00     0.111 C
BRANCH  22  23
HETATM   23  C6  UNL     1      27.281  30.883  26.991  1.00  0.00     0.010 C
BRANCH  23  24
HETATM   24  C5  UNL     1      26.757  29.670  27.714  1.00  0.00     0.000 C
BRANCH  24  25
HETATM   25  C4  UNL     1      25.338  29.349  27.401  1.00  0.00     0.000 C
BRANCH  25  26
HETATM   26  C3  UNL     1      24.350  29.942  28.372  1.00  0.00    -0.000 C
BRANCH  26  27
HETATM   27  C2  UNL     1      23.330  28.860  28.712  1.00  0.00    -0.005 C
HETATM   28  C1  UNL     1      23.630  27.597  27.922  1.00  0.00     0.005 C
ENDBRANCH  26  27
ENDBRANCH  25  26
ENDBRANCH  24  25
ENDBRANCH  23  24
ENDBRANCH  22  23
ENDBRANCH  20  22
ENDBRANCH  19  20
ENDBRANCH  18  19
ENDBRANCH   1  18
BRANCH   6  29
HETATM   29  O5  UNL     1      24.182  23.467  24.170  1.00  0.00    -0.390 OA
ATOM     30  H5  UNL     1      23.495  22.841  24.370  1.00  0.00     0.210 HD
ENDBRANCH   6  29
BRANCH  12  31
HETATM   31  O7  UNL     1      28.367  22.791  23.294  1.00  0.00    -0.377 OA
ATOM     32  H7  UNL     1      28.939  23.251  23.897  1.00  0.00     0.211 HD
ENDBRANCH  12  31
BRANCH   7  33
HETATM   33  O6  UNL     1      26.718  21.028  24.885  1.00  0.00    -0.393 OA
ATOM     34  H6  UNL     1      26.405  20.236  25.306  1.00  0.00     0.210 HD
ENDBRANCH   7  33
TORSDOF 12
ENDMDL