MODEL 4
REMARK VINA RESULT: -6.925729100      2.161      2.931
REMARK  13 active torsions:
REMARK  status: ('A' for Active; 'I' for Inactive)
REMARK    1  A    between atoms: O1_2  and  C2_3
REMARK    2  A    between atoms: C2_3  and  N1_4
REMARK    3  A    between atoms: C3_6  and  N2_7
REMARK    4  A    between atoms: N2_7  and  C4_9
REMARK    5  A    between atoms: C4_9  and  S3_11
REMARK    6  A    between atoms: S3_11  and  S4_12
REMARK    7  A    between atoms: S4_12  and  C5_13
REMARK    8  A    between atoms: C5_13  and  C6_14
REMARK    9  A    between atoms: C6_14  and  C7_15
REMARK   10  A    between atoms: C8_16  and  C9_17
REMARK   11  A    between atoms: C9_17  and  C11_19
REMARK   12  A    between atoms: C11_19  and  O2_20
REMARK   13  A    between atoms: C11_19  and  N3_22
ROOT
HETATM    1  S3  UNL     1      25.526  24.734  24.099  1.00  0.00    -0.028 SA
ENDROOT
BRANCH   1   2
HETATM    2  C4  UNL     1      25.662  23.001  23.825  1.00  0.00     0.151 C
HETATM    3  S2  UNL     1      24.333  22.071  23.508  1.00  0.00    -0.052 SA
BRANCH   2   4
HETATM    4  N2  UNL     1      26.917  22.343  23.868  1.00  0.00    -0.320 N
ATOM      5  H2  UNL     1      27.320  22.040  24.754  1.00  0.00     0.169 HD
BRANCH   4   6
HETATM    6  C3  UNL     1      27.548  22.134  22.732  1.00  0.00     0.171 A
HETATM    7  S1  UNL     1      27.624  20.725  21.769  1.00  0.00     0.031 SA
HETATM    8  N1  UNL     1      28.607  21.323  20.542  1.00  0.00    -0.243 N
HETATM    9  C15 UNL     1      28.834  22.579  20.924  1.00  0.00     0.336 A
HETATM   10  N4  UNL     1      28.296  22.992  22.037  1.00  0.00    -0.287 N
HETATM   11  O3  UNL     1      29.575  23.333  20.180  1.00  0.00    -0.246 OA
ATOM     12  H4  UNL     1      28.444  23.945  22.367  1.00  0.00     0.172 HD
BRANCH   8  13
HETATM   13  C2  UNL     1      29.105  20.642  19.333  1.00  0.00     0.310 C
BRANCH  13  14
HETATM   14  O1  UNL     1      28.206  20.848  18.302  1.00  0.00    -0.376 OA
HETATM   15  C1  UNL     1      27.275  19.817  18.255  1.00  0.00     0.203 C
ENDBRANCH  13  14
ENDBRANCH   8  13
ENDBRANCH   4   6
ENDBRANCH   2   4
ENDBRANCH   1   2
BRANCH   1  16
HETATM   16  S4  UNL     1      27.361  25.604  24.654  1.00  0.00    -0.090 SA
BRANCH  16  17
HETATM   17  C5  UNL     1      27.216  26.635  26.125  1.00  0.00     0.090 C
BRANCH  17  18
HETATM   18  C6  UNL     1      27.025  28.088  25.841  1.00  0.00     0.038 C
BRANCH  18  19
HETATM   19  C7  UNL     1      26.180  28.644  26.946  1.00  0.00    -0.029 C
HETATM   20  C8  UNL     1      24.987  28.165  27.229  1.00  0.00    -0.022 C
BRANCH  20  21
HETATM   21  C9  UNL     1      24.092  28.634  28.282  1.00  0.00     0.063 C
HETATM   22  C10 UNL     1      24.184  30.162  28.376  1.00  0.00     0.018 C
BRANCH  21  23
HETATM   23  C11 UNL     1      22.638  28.290  28.108  1.00  0.00     0.363 C
BRANCH  23  24
HETATM   24  O2  UNL     1      21.851  29.405  28.416  1.00  0.00    -0.367 OA
ATOM     25  H2  UNL     1      21.026  29.121  28.793  1.00  0.00     0.212 HD
ENDBRANCH  23  24
BRANCH  23  26
HETATM   26  N3  UNL     1      22.357  27.237  29.080  1.00  0.00     0.117 N
HETATM   27  C12 UNL     1      21.056  26.648  29.000  1.00  0.00     0.277 C
HETATM   28  C13 UNL     1      20.940  26.844  30.514  1.00  0.00     0.061 C
HETATM   29  C14 UNL     1      22.236  27.645  30.443  1.00  0.00     0.277 C
ENDBRANCH  23  26
ENDBRANCH  21  23
ENDBRANCH  20  21
ENDBRANCH  18  19
ENDBRANCH  17  18
ENDBRANCH  16  17
ENDBRANCH   1  16
TORSDOF 13
ENDMDL