MODEL 5
REMARK VINA RESULT: -8.472780334      3.178      6.095
REMARK  11 active torsions:
REMARK  status: ('A' for Active; 'I' for Inactive)
REMARK    1  A    between atoms: N1_2  and  C3_4
REMARK    2  A    between atoms: C3_4  and  C4_5
REMARK    3  A    between atoms: C4_5  and  N2_6
REMARK    4  A    between atoms: C6_8  and  C7_9
REMARK    5  A    between atoms: C9_14  and  C10_15
REMARK    6  A    between atoms: C10_15  and  O1_16
REMARK    7  A    between atoms: O1_16  and  C11_17
REMARK    8  A    between atoms: C11_17  and  C12_19
REMARK    9  A    between atoms: C12_19  and  N5_20
REMARK   10  A    between atoms: C13_21  and  O3_22
REMARK   11  A    between atoms: C16_26  and  O4_27
ROOT
HETATM    1  C7  UNL     1      28.454  24.860  21.234  1.00  0.00     0.182 C
HETATM    2  C8  UNL     1      29.152  23.753  20.577  1.00  0.00     0.065 C
HETATM    3  N3  UNL     1      29.695  22.874  20.039  1.00  0.00    -0.197 NA
ENDROOT
BRANCH   1   4
HETATM    4  C6  UNL     1      27.513  24.246  22.225  1.00  0.00     0.039 A
HETATM    5  C5  UNL     1      27.510  22.920  22.676  1.00  0.00     0.118 A
HETATM    6  N2  UNL     1      26.513  22.785  23.553  1.00  0.00    -0.341 N
HETATM    7  C9  UNL     1      25.881  23.968  23.681  1.00  0.00     0.108 A
HETATM    8  N4  UNL     1      26.494  24.834  22.876  1.00  0.00    -0.345 N
ATOM      9  H4  UNL     1      26.227  25.812  22.768  1.00  0.00     0.167 HD
BRANCH   6  10
HETATM   10  C4  UNL     1      26.117  21.608  24.278  1.00  0.00     0.160 C
BRANCH  10  11
HETATM   11  C3  UNL     1      25.699  20.483  23.358  1.00  0.00     0.291 C
BRANCH  11  12
HETATM   12  N1  UNL     1      24.463  20.880  22.678  1.00  0.00     0.081 N
HETATM   13  C1  UNL     1      24.124  19.901  21.650  1.00  0.00     0.309 C
HETATM   14  C2  UNL     1      23.374  20.847  23.659  1.00  0.00     0.309 C
ENDBRANCH  11  12
ENDBRANCH  10  11
ENDBRANCH   6  10
BRANCH   7  15
HETATM   15  C10 UNL     1      24.714  24.277  24.548  1.00  0.00     0.255 C
BRANCH  15  16
HETATM   16  O1  UNL     1      25.147  25.280  25.461  1.00  0.00    -0.313 OA
BRANCH  16  17
HETATM   17  C11 UNL     1      24.355  26.337  25.809  1.00  0.00     0.277 C
HETATM   18  O2  UNL     1      23.580  26.197  26.791  1.00  0.00    -0.263 OA
BRANCH  17  19
HETATM   19  C12 UNL     1      24.360  27.645  25.090  1.00  0.00     0.244 C
BRANCH  19  20
HETATM   20  N5  UNL     1      25.627  28.331  25.286  1.00  0.00    -0.298 N
HETATM   21  C13 UNL     1      26.655  28.315  24.428  1.00  0.00     0.151 A
HETATM   22  C14 UNL     1      27.671  29.080  24.959  1.00  0.00     0.004 A
HETATM   23  C15 UNL     1      27.228  29.552  26.152  1.00  0.00     0.008 A
HETATM   24  C22 UNL     1      28.999  29.360  24.383  1.00  0.00     0.049 C
HETATM   25  C16 UNL     1      25.949  29.072  26.335  1.00  0.00     0.152 A
HETATM   26  C17 UNL     1      28.097  30.413  26.972  1.00  0.00     0.033 A
HETATM   27  C18 UNL     1      28.614  31.711  26.535  1.00  0.00    -0.000 A
HETATM   28  C23 UNL     1      29.503  30.441  26.602  1.00  0.00     0.004 A
HETATM   29  C19 UNL     1      28.654  32.162  25.113  1.00  0.00     0.006 C
HETATM   30  C20 UNL     1      29.964  31.580  24.606  1.00  0.00     0.006 C
HETATM   31  C21 UNL     1      29.887  30.180  25.216  1.00  0.00    -0.005 C
BRANCH  21  32
HETATM   32  O3  UNL     1      26.636  27.617  23.212  1.00  0.00    -0.345 OA
ATOM     33  H3  UNL     1      27.351  27.068  22.913  1.00  0.00     0.219 HD
ENDBRANCH  21  32
BRANCH  25  34
HETATM   34  O4  UNL     1      25.131  29.318  27.430  1.00  0.00    -0.345 OA
ATOM     35  H4  UNL     1      24.931  28.697  28.120  1.00  0.00     0.219 HD
ENDBRANCH  25  34
ENDBRANCH  19  20
ENDBRANCH  17  19
ENDBRANCH  16  17
ENDBRANCH  15  16
ENDBRANCH   7  15
ENDBRANCH   1   4
TORSDOF 11
ENDMDL