MODEL 2
REMARK VINA RESULT: -7.547399690      2.943      8.551
REMARK  14 active torsions:
REMARK  status: ('A' for Active; 'I' for Inactive)
REMARK    1  A    between atoms: C2_2  and  O1_3
REMARK    2  A    between atoms: O1_3  and  C3_4
REMARK    3  A    between atoms: C3_4  and  C4_6
REMARK    4  A    between atoms: C4_6  and  O3_8
REMARK    5  A    between atoms: O3_8  and  C6_9
REMARK    6  A    between atoms: C6_9  and  C7_11
REMARK    7  A    between atoms: C7_11  and  N1_13
REMARK    8  A    between atoms: N1_13  and  C9_15
REMARK    9  A    between atoms: C10_18  and  O5_19
REMARK   10  A    between atoms: C11_21  and  C12_22
REMARK   11  A    between atoms: C12_22  and  C13_23
REMARK       I    between atoms: C13_23  and  N3_25
REMARK   12  A    between atoms: N4_27  and  C14_29
REMARK   13  A    between atoms: C14_29  and  S2_31
REMARK   14  A    between atoms: S2_31  and  C15_32
ROOT
HETATM    1  C9  UNL     1      25.960  24.993  23.803  1.00  0.00     0.227 A
HETATM    2  N2  UNL     1      24.705  24.891  24.269  1.00  0.00    -0.301 N
ATOM      3  H2  UNL     1      24.028  25.650  24.337  1.00  0.00     0.171 HD
HETATM    4  C10 UNL     1      24.496  23.609  24.632  1.00  0.00     0.174 A
HETATM    5  C11 UNL     1      25.656  22.914  24.381  1.00  0.00     0.116 A
HETATM    6  O7  UNL     1      26.490  23.775  23.892  1.00  0.00    -0.279 OA
ENDROOT
BRANCH   1   7
HETATM    7  N1  UNL     1      26.574  26.049  23.347  1.00  0.00    -0.342 N
ATOM      8  H1  UNL     1      26.484  26.302  22.363  1.00  0.00     0.164 HD
BRANCH   7   9
HETATM    9  C7  UNL     1      27.375  26.853  24.217  1.00  0.00     0.181 C
HETATM   10  C8  UNL     1      28.840  26.887  23.755  1.00  0.00     0.043 C
BRANCH   9  11
HETATM   11  C6  UNL     1      26.924  28.269  24.223  1.00  0.00     0.282 C
HETATM   12  O4  UNL     1      27.285  28.974  23.248  1.00  0.00    -0.263 OA
BRANCH  11  13
HETATM   13  O3  UNL     1      26.160  28.864  25.183  1.00  0.00    -0.305 OA
BRANCH  13  14
HETATM   14  C4  UNL     1      26.229  28.630  26.563  1.00  0.00     0.227 C
HETATM   15  C5  UNL     1      24.991  28.103  27.178  1.00  0.00     0.051 C
BRANCH  14  16
HETATM   16  C3  UNL     1      26.565  29.921  27.265  1.00  0.00     0.288 C
HETATM   17  O2  UNL     1      25.770  30.478  28.045  1.00  0.00    -0.262 OA
BRANCH  16  18
HETATM   18  O1  UNL     1      27.804  30.517  27.039  1.00  0.00    -0.320 OA
BRANCH  18  19
HETATM   19  C2  UNL     1      27.888  31.799  26.444  1.00  0.00     0.174 C
HETATM   20  C1  UNL     1      28.859  31.859  25.302  1.00  0.00     0.034 C
ENDBRANCH  18  19
ENDBRANCH  16  18
ENDBRANCH  14  16
ENDBRANCH  13  14
ENDBRANCH  11  13
ENDBRANCH   9  11
ENDBRANCH   7   9
ENDBRANCH   1   7
BRANCH   4  21
HETATM   21  O5  UNL     1      23.304  23.133  25.161  1.00  0.00    -0.344 OA
ATOM     22  H5  UNL     1      23.136  22.219  25.361  1.00  0.00     0.219 HD
ENDBRANCH   4  21
BRANCH   5  23
HETATM   23  C12 UNL     1      25.865  21.466  24.635  1.00  0.00     0.174 C
BRANCH  23  24
HETATM   24  C13 UNL     1      26.094  20.719  23.387  1.00  0.00     0.242 C
HETATM   25  O6  UNL     1      25.160  20.624  22.558  1.00  0.00    -0.271 OA
HETATM   26  N3  UNL     1      27.336  20.140  23.161  1.00  0.00    -0.268 N
HETATM   27  N4  UNL     1      28.143  20.245  22.242  1.00  0.00    -0.282 N
ATOM     28  H3  UNL     1      27.635  19.504  23.900  1.00  0.00     0.190 HD
ATOM     29  H4  UNL     1      28.985  19.681  22.360  1.00  0.00     0.188 HD
BRANCH  27  30
HETATM   30  C14 UNL     1      28.120  20.992  21.068  1.00  0.00     0.153 C
HETATM   31  S1  UNL     1      28.300  22.613  21.139  1.00  0.00    -0.051 SA
BRANCH  30  32
HETATM   32  S2  UNL     1      27.906  20.281  19.443  1.00  0.00    -0.100 SA
BRANCH  32  33
HETATM   33  C15 UNL     1      29.439  20.460  18.462  1.00  0.00     0.077 C
HETATM   34  C16 UNL     1      30.568  19.867  19.241  1.00  0.00     0.016 C
ENDBRANCH  32  33
ENDBRANCH  30  32
ENDBRANCH  27  30
ENDBRANCH  23  24
ENDBRANCH   5  23
TORSDOF 14
ENDMDL