MODEL 1
REMARK VINA RESULT: -7.114618845      0.000      0.000
REMARK  5 active torsions:
REMARK  status: ('A' for Active; 'I' for Inactive)
REMARK    1  A    between atoms: C2_2  and  C3_3
REMARK    2  A    between atoms: C3_3  and  C12_19
REMARK    3  A    between atoms: C4_4  and  C5_5
REMARK    4  A    between atoms: C7_11  and  N3_12
REMARK    5  A    between atoms: C8_15  and  C9_16
ROOT
HETATM    1  C5  UNL     1      11.572   5.888  23.036  1.00  0.00     0.043 A
HETATM    2  N1  UNL     1      12.568   6.716  23.104  1.00  0.00    -0.352 N
ATOM      3  H1  UNL     1      12.604   7.349  23.903  1.00  0.00     0.166 HD
HETATM    4  C6  UNL     1      13.563   6.798  22.190  1.00  0.00     0.182 A
HETATM    5  N2  UNL     1      13.518   5.970  21.124  1.00  0.00    -0.338 N
ATOM      6  H2  UNL     1      14.243   5.997  20.408  1.00  0.00     0.168 HD
HETATM    7  C7  UNL     1      12.491   5.110  21.036  1.00  0.00     0.108 A
HETATM    8  C8  UNL     1      11.471   4.996  21.926  1.00  0.00     0.016 A
ENDROOT
BRANCH   1   9
HETATM    9  C4  UNL     1      10.545   5.734  24.045  1.00  0.00     0.033 C
HETATM   10  C3  UNL     1       9.442   6.421  24.184  1.00  0.00    -0.070 C
BRANCH  10  11
HETATM   11  C2  UNL     1       8.560   6.012  25.350  1.00  0.00     0.030 C
HETATM   12  C1  UNL     1       9.407   5.455  26.477  1.00  0.00     0.010 C
ENDBRANCH  10  11
BRANCH  10  13
HETATM   13  C12 UNL     1       9.069   7.485  23.282  1.00  0.00    -0.028 C
HETATM   14  C13 UNL     1       8.156   6.982  22.196  1.00  0.00     0.019 C
HETATM   15  C14 UNL     1      10.191   8.390  22.834  1.00  0.00     0.019 C
HETATM   16  C15 UNL     1       8.134   8.499  24.046  1.00  0.00     0.019 C
ENDBRANCH  10  13
ENDBRANCH   1   9
BRANCH   8  17
HETATM   17  C9  UNL     1      10.389   4.027  21.832  1.00  0.00     0.016 C
HETATM   18  C10 UNL     1       9.561   4.312  20.589  1.00  0.00     0.015 C
HETATM   19  C11 UNL     1      10.991   2.627  21.668  1.00  0.00     0.015 C
ENDBRANCH   8  17
BRANCH   7  20
HETATM   20  N3  UNL     1      12.611   4.279  20.028  1.00  0.00    -0.385 N
ATOM     21  H32 UNL     1      12.907   4.602  19.108  1.00  0.00     0.157 HD
ATOM     22  H31 UNL     1      12.303   3.334  20.258  1.00  0.00     0.157 HD
ENDBRANCH   7  20
TORSDOF 5
ENDMDL