MODEL 2
REMARK VINA RESULT: -6.489340411      1.734      1.883
REMARK  5 active torsions:
REMARK  status: ('A' for Active; 'I' for Inactive)
REMARK    1  A    between atoms: C2_2  and  C3_3
REMARK    2  A    between atoms: C3_3  and  O1_4
REMARK    3  A    between atoms: C8_10  and  C9_11
REMARK    4  A    between atoms: C9_11  and  C10_12
REMARK    5  A    between atoms: C11_13  and  O2_15
ROOT
HETATM    1  C3  UNL     1       9.133   6.224  24.846  1.00  0.00     0.079 C
HETATM    2  C4  UNL     1      10.541   6.236  24.370  1.00  0.00     0.051 C
HETATM    3  C5  UNL     1      10.778   6.291  22.918  1.00  0.00    -0.041 C
HETATM    4  C6  UNL     1      11.995   5.409  22.598  1.00  0.00     0.015 C
HETATM    5  C7  UNL     1      11.199   7.691  22.478  1.00  0.00     0.015 C
HETATM    6  C8  UNL     1       9.641   5.872  22.029  1.00  0.00    -0.003 C
HETATM    7  C13 UNL     1       8.364   6.495  22.438  1.00  0.00     0.013 C
HETATM    8  C14 UNL     1       8.108   6.679  23.894  1.00  0.00     0.020 C
HETATM    9  C15 UNL     1       7.717   8.135  24.200  1.00  0.00     0.013 C
ENDROOT
BRANCH   6  10
HETATM   10  C9  UNL     1       9.590   4.399  21.784  1.00  0.00     0.035 C
BRANCH  10  11
HETATM   11  C10 UNL     1       9.049   4.011  20.453  1.00  0.00     0.005 C
HETATM   12  C11 UNL     1       7.833   3.531  20.287  1.00  0.00     0.035 C
HETATM   13  C12 UNL     1       7.378   3.170  18.930  1.00  0.00     0.075 C
BRANCH  12  14
HETATM   14  O2  UNL     1       6.981   3.361  21.356  1.00  0.00    -0.366 OA
ATOM     15  H2  UNL     1       7.276   2.954  22.162  1.00  0.00     0.217 HD
ENDBRANCH  12  14
ENDBRANCH  10  11
ENDBRANCH   6  10
BRANCH   1  16
HETATM   16  C2  UNL     1       9.062   7.072  26.077  1.00  0.00     0.001 C
HETATM   17  C1  UNL     1       8.508   6.582  27.177  1.00  0.00     0.010 C
ENDBRANCH   1  16
BRANCH   1  18
HETATM   18  O1  UNL     1       8.793   4.936  25.345  1.00  0.00    -0.385 OA
ATOM     19  H1  UNL     1       8.773   4.411  24.553  1.00  0.00     0.211 HD
ENDBRANCH   1  18
TORSDOF 5
ENDMDL