MODEL 1
REMARK VINA RESULT: -7.449374805      0.000      0.000
REMARK  3 active torsions:
REMARK  status: ('A' for Active; 'I' for Inactive)
REMARK    1  A    between atoms: C9_9  and  C10_10
REMARK    2  A    between atoms: C10_10  and  C11_11
REMARK    3  A    between atoms: C11_11  and  C12_12
ROOT
HETATM    1  C1  UNL     1       9.151   4.080  22.426  1.00  0.00     0.010 C
HETATM    2  C2  UNL     1       8.624   5.367  23.087  1.00  0.00    -0.014 C
HETATM    3  C3  UNL     1       7.948   6.119  22.043  1.00  0.00     0.005 C
HETATM    4  C4  UNL     1       7.514   7.495  22.253  1.00  0.00     0.011 C
HETATM    5  C5  UNL     1       8.227   8.347  23.224  1.00  0.00     0.031 C
HETATM    6  C6  UNL     1       8.164   7.927  24.643  1.00  0.00     0.011 C
HETATM    7  C7  UNL     1       8.920   6.761  25.060  1.00  0.00     0.006 C
HETATM    8  C8  UNL     1       9.635   5.973  23.967  1.00  0.00    -0.006 C
HETATM    9  C9  UNL     1      10.814   6.634  23.445  1.00  0.00    -0.004 C
HETATM   10  C13 UNL     1      10.634   7.670  22.375  1.00  0.00     0.057 C
HETATM   11  C14 UNL     1       9.597   8.634  22.731  1.00  0.00    -0.016 C
HETATM   12  N1  UNL     1       9.937   9.859  22.591  1.00  0.00    -0.405 N
ATOM     13  H11 UNL     1      10.879  10.056  22.252  1.00  0.00     0.155 HD
ATOM     14  H12 UNL     1       9.211  10.532  22.840  1.00  0.00     0.155 HD
ENDROOT
BRANCH   9  15
HETATM   15  C10 UNL     1      11.973   5.768  23.013  1.00  0.00     0.016 C
BRANCH  15  16
HETATM   16  C11 UNL     1      12.339   5.901  21.569  1.00  0.00     0.113 C
BRANCH  16  17
HETATM   17  C12 UNL     1      12.720   4.597  20.963  1.00  0.00     0.172 C
HETATM   18  O1  UNL     1      13.083   4.590  19.761  1.00  0.00    -0.648 OA
HETATM   19  O2  UNL     1      12.697   3.394  21.650  1.00  0.00    -0.648 OA
ENDBRANCH  16  17
ENDBRANCH  15  16
ENDBRANCH   9  15
TORSDOF 3
ENDMDL