MODEL 1
REMARK VINA RESULT: -7.428218983      0.000      0.000
REMARK  5 active torsions:
REMARK  status: ('A' for Active; 'I' for Inactive)
REMARK    1  A    between atoms: C2_2  and  C3_3
REMARK    2  A    between atoms: C3_3  and  C4_4
REMARK    3  A    between atoms: C4_4  and  C5_5
REMARK    4  A    between atoms: C5_5  and  C6_6
REMARK    5  A    between atoms: C7_7  and  O1_8
ROOT
HETATM    1  C6  UNL     1      10.802   5.396  23.124  1.00  0.00     0.103 C
HETATM    2  C7  UNL     1      11.837   6.454  22.747  1.00  0.00     0.135 C
HETATM    3  C8  UNL     1      13.014   5.868  21.949  1.00  0.00     0.037 C
HETATM    4  C9  UNL     1      12.326   5.055  20.915  1.00  0.00    -0.010 C
HETATM    5  C10 UNL     1      12.946   4.604  19.686  1.00  0.00     0.008 C
HETATM    6  C11 UNL     1      11.822   4.623  18.633  1.00  0.00     0.029 C
HETATM    7  C12 UNL     1      10.717   3.691  18.860  1.00  0.00    -0.010 C
HETATM    8  C13 UNL     1       9.746   3.833  19.929  1.00  0.00     0.079 C
HETATM    9  N1  UNL     1       9.831   4.814  20.938  1.00  0.00    -0.393 N
ATOM     10  H1  UNL     1       9.489   5.769  20.829  1.00  0.00     0.159 HD
HETATM   11  C14 UNL     1      10.470   4.309  22.169  1.00  0.00     0.098 C
HETATM   12  C15 UNL     1      11.821   3.854  21.685  1.00  0.00     0.031 C
ENDROOT
BRANCH   1  13
HETATM   13  C5  UNL     1      10.266   5.539  24.279  1.00  0.00    -0.174 C
BRANCH  13  14
HETATM   14  C4  UNL     1       9.679   5.696  25.549  1.00  0.00     0.080 C
BRANCH  14  15
HETATM   15  C3  UNL     1       8.697   6.855  25.653  1.00  0.00     0.011 C
BRANCH  15  16
HETATM   16  C2  UNL     1       7.998   6.892  26.966  1.00  0.00    -0.004 C
HETATM   17  C1  UNL     1       8.271   5.595  27.712  1.00  0.00     0.005 C
ENDBRANCH  15  16
ENDBRANCH  14  15
ENDBRANCH  13  14
ENDBRANCH   1  13
BRANCH   2  18
HETATM   18  O1  UNL     1      11.180   7.415  21.996  1.00  0.00    -0.394 OA
ATOM     19  H1  UNL     1      11.646   7.489  21.171  1.00  0.00     0.210 HD
ENDBRANCH   2  18
TORSDOF 5
ENDMDL