MODEL 5
REMARK VINA RESULT: -5.467794208      1.689      4.189
REMARK  4 active torsions:
REMARK  status: ('A' for Active; 'I' for Inactive)
REMARK    1  A    between atoms: C5_5  and  C7_7
REMARK    2  A    between atoms: C7_7  and  C8_8
REMARK    3  A    between atoms: C8_8  and  C9_9
REMARK    4  A    between atoms: C9_9  and  O1_10
ROOT
HETATM    1  C1  UNL     1      11.968   2.242  20.590  1.00  0.00     0.017 C
HETATM    2  C2  UNL     1      11.561   3.727  20.617  1.00  0.00    -0.023 C
HETATM    3  C3  UNL     1      12.868   4.467  20.341  1.00  0.00     0.017 C
HETATM    4  C4  UNL     1      11.179   4.008  22.042  1.00  0.00     0.022 C
HETATM    5  C5  UNL     1      10.105   5.010  22.218  1.00  0.00    -0.019 C
HETATM    6  C6  UNL     1       9.597   4.889  23.662  1.00  0.00     0.018 C
HETATM    7  C10 UNL     1       8.952   4.671  21.328  1.00  0.00     0.026 C
HETATM    8  C11 UNL     1       8.305   3.367  21.684  1.00  0.00     0.038 C
HETATM    9  C12 UNL     1       7.818   5.702  21.465  1.00  0.00     0.038 C
HETATM   10  N1  UNL     1       9.361   4.661  19.989  1.00  0.00    -0.404 N
ATOM     11  H1  UNL     1       8.806   5.150  19.286  1.00  0.00     0.154 HD
HETATM   12  C13 UNL     1      10.520   3.987  19.609  1.00  0.00     0.026 C
HETATM   13  C14 UNL     1      10.095   2.660  18.953  1.00  0.00     0.038 C
HETATM   14  C15 UNL     1      11.106   4.772  18.416  1.00  0.00     0.038 C
ENDROOT
BRANCH   5  15
HETATM   15  C7  UNL     1      10.587   6.400  22.048  1.00  0.00     0.014 C
BRANCH  15  16
HETATM   16  C8  UNL     1      11.555   6.844  23.123  1.00  0.00     0.027 C
BRANCH  16  17
HETATM   17  C9  UNL     1      12.452   7.896  22.450  1.00  0.00     0.164 C
BRANCH  17  18
HETATM   18  O1  UNL     1      13.667   7.345  22.075  1.00  0.00    -0.401 OA
ATOM     19  H1  UNL     1      13.619   6.977  21.201  1.00  0.00     0.209 HD
ENDBRANCH  17  18
ENDBRANCH  16  17
ENDBRANCH  15  16
ENDBRANCH   5  15
TORSDOF 4
ENDMDL