MODEL 2
REMARK VINA RESULT: -7.697318015      2.659      6.170
REMARK  4 active torsions:
REMARK  status: ('A' for Active; 'I' for Inactive)
REMARK    1  A    between atoms: C2_2  and  C3_3
REMARK    2  A    between atoms: C3_3  and  C4_4
REMARK    3  A    between atoms: C5_7  and  C6_8
REMARK    4  A    between atoms: C14_18  and  O1_19
ROOT
HETATM    1  C4  UNL     1       8.473   7.552  24.614  1.00  0.00     0.065 A
HETATM    2  N1  UNL     1       9.340   6.603  24.216  1.00  0.00    -0.345 N
ATOM      3  H1  UNL     1       9.651   5.825  24.798  1.00  0.00     0.167 HD
HETATM    4  C5  UNL     1       9.741   6.811  22.953  1.00  0.00     0.087 A
HETATM    5  N2  UNL     1       9.112   7.920  22.544  1.00  0.00    -0.325 N
ATOM      6  H2  UNL     1       9.211   8.341  21.621  1.00  0.00     0.169 HD
HETATM    7  C14 UNL     1       8.329   8.397  23.534  1.00  0.00     0.164 A
ENDROOT
BRANCH   4   8
HETATM    8  C6  UNL     1      10.715   5.942  22.178  1.00  0.00     0.054 C
HETATM    9  C7  UNL     1      12.023   6.417  22.652  1.00  0.00     0.023 C
HETATM   10  C8  UNL     1      13.271   6.002  21.809  1.00  0.00     0.080 C
HETATM   11  C9  UNL     1      12.978   4.698  21.378  1.00  0.00    -0.183 C
HETATM   12  C10 UNL     1      13.049   3.467  20.711  1.00  0.00     0.080 C
HETATM   13  C11 UNL     1      11.703   2.759  21.081  1.00  0.00     0.011 C
HETATM   14  C12 UNL     1      10.524   3.626  21.190  1.00  0.00     0.002 C
HETATM   15  C13 UNL     1      10.259   4.512  22.374  1.00  0.00     0.012 C
ENDBRANCH   4   8
BRANCH   1  16
HETATM   16  C3  UNL     1       7.801   7.666  25.956  1.00  0.00     0.088 C
BRANCH  16  17
HETATM   17  C2  UNL     1       8.612   6.959  27.004  1.00  0.00    -0.031 C
HETATM   18  C1  UNL     1       8.283   5.757  27.452  1.00  0.00     0.007 C
ENDBRANCH  16  17
ENDBRANCH   1  16
BRANCH   7  19
HETATM   19  O1  UNL     1       7.538   9.516  23.478  1.00  0.00    -0.345 OA
ATOM     20  H1  UNL     1       7.495  10.140  22.762  1.00  0.00     0.219 HD
ENDBRANCH   7  19
TORSDOF 4
ENDMDL