MODEL 5
REMARK VINA RESULT: -7.066082248      2.715      5.066
REMARK  4 active torsions:
REMARK  status: ('A' for Active; 'I' for Inactive)
REMARK    1  A    between atoms: O1_2  and  C2_3
REMARK    2  A    between atoms: C2_3  and  C5_6
REMARK    3  A    between atoms: C6_9  and  O2_10
REMARK    4  A    between atoms: C8_13  and  C9_14
ROOT
HETATM    1  C5  UNL     1       9.637   7.191  23.874  1.00  0.00     0.052 A
HETATM    2  N1  UNL     1       9.139   8.446  23.733  1.00  0.00    -0.338 N
ATOM      3  H1  UNL     1       8.310   8.799  24.211  1.00  0.00     0.168 HD
HETATM    4  C6  UNL     1       9.887   9.158  22.878  1.00  0.00     0.140 A
HETATM    5  C7  UNL     1      10.904   8.344  22.445  1.00  0.00     0.065 A
HETATM    6  C8  UNL     1      10.742   7.102  23.075  1.00  0.00    -0.024 A
ENDROOT
BRANCH   6   7
HETATM    7  C9  UNL     1      11.672   5.969  22.851  1.00  0.00     0.021 C
HETATM    8  C10 UNL     1      11.251   5.335  21.509  1.00  0.00     0.009 C
HETATM    9  C11 UNL     1      11.991   4.065  21.242  1.00  0.00     0.001 C
HETATM   10  C12 UNL     1      13.465   4.415  21.138  1.00  0.00     0.000 C
HETATM   11  C13 UNL     1      13.700   5.882  21.336  1.00  0.00     0.001 C
HETATM   12  C14 UNL     1      13.100   6.434  22.610  1.00  0.00     0.009 C
ENDBRANCH   6   7
BRANCH   1  13
HETATM   13  C2  UNL     1       9.021   6.113  24.689  1.00  0.00     0.095 C
HETATM   14  C3  UNL     1       8.587   4.986  23.718  1.00  0.00     0.052 C
HETATM   15  C4  UNL     1       9.837   5.526  25.768  1.00  0.00     0.052 C
BRANCH  13  16
HETATM   16  O1  UNL     1       7.797   6.595  25.183  1.00  0.00    -0.379 OA
HETATM   17  C1  UNL     1       7.687   6.591  26.543  1.00  0.00     0.203 C
ENDBRANCH  13  16
ENDBRANCH   1  13
BRANCH   4  18
HETATM   18  O2  UNL     1       9.660  10.477  22.510  1.00  0.00    -0.346 OA
ATOM     19  H2  UNL     1      10.176  11.225  22.786  1.00  0.00     0.219 HD
ENDBRANCH   4  18
TORSDOF 4
ENDMDL