MODEL 4
REMARK VINA RESULT: -6.330342464      2.017      3.338
REMARK  11 active torsions:
REMARK  status: ('A' for Active; 'I' for Inactive)
REMARK    1  A    between atoms: C3_3  and  C4_4
REMARK    2  A    between atoms: C5_5  and  N1_6
REMARK    3  A    between atoms: N1_6  and  C6_8
REMARK    4  A    between atoms: C6_8  and  O1_12
REMARK    5  A    between atoms: O1_12  and  N3_13
REMARK    6  A    between atoms: C9_18  and  N5_19
REMARK    7  A    between atoms: N5_19  and  C10_21
REMARK    8  A    between atoms: C10_21  and  C11_22
REMARK    9  A    between atoms: C11_22  and  C12_23
REMARK   10  A    between atoms: C12_23  and  C13_24
REMARK   11  A    between atoms: C13_24  and  C14_25
ROOT
HETATM    1  C1  UNL     1      -4.863 -19.019   8.234  1.00  0.00     0.113 C
HETATM    2  C2  UNL     1      -6.213 -18.621   8.650  1.00  0.00    -0.097 C
HETATM    3  C3  UNL     1      -7.326 -18.276   9.004  1.00  0.00    -0.014 C
ENDROOT
BRANCH   3   4
HETATM    4  C4  UNL     1      -8.619 -17.852   9.407  1.00  0.00     0.008 C
HETATM    5  C5  UNL     1      -9.720 -17.483   9.738  1.00  0.00     0.028 C
BRANCH   5   6
HETATM    6  N1  UNL     1     -10.984 -17.040  10.121  1.00  0.00    -0.279 N
ATOM      7  H1  UNL     1     -11.242 -16.984  11.106  1.00  0.00     0.180 HD
BRANCH   6   8
HETATM    8  C6  UNL     1     -11.901 -16.667   9.108  1.00  0.00     0.249 C
HETATM    9  N2  UNL     1     -13.045 -16.116   9.338  1.00  0.00    -0.363 N
ATOM     10  H22 UNL     1     -13.323 -15.929  10.301  1.00  0.00     0.159 HD
ATOM     11  H21 UNL     1     -13.706 -15.848   8.609  1.00  0.00     0.159 HD
BRANCH   8  12
HETATM   12  O1  UNL     1     -11.520 -16.923   7.789  1.00  0.00    -0.183 OA
BRANCH  12  13
HETATM   13  N3  UNL     1     -11.571 -15.916   6.851  1.00  0.00    -0.079 N
HETATM   14  C7  UNL     1     -12.695 -15.541   6.017  1.00  0.00     0.196 C
HETATM   15  C8  UNL     1     -12.364 -14.134   5.624  1.00  0.00     0.161 C
HETATM   16  N4  UNL     1     -10.950 -14.029   5.826  1.00  0.00    -0.223 N
HETATM   17  C9  UNL     1     -10.504 -15.032   6.517  1.00  0.00     0.696 C
ATOM     18  H4  UNL     1     -10.370 -13.267   5.474  1.00  0.00     0.177 HD
BRANCH  17  19
HETATM   19  N5  UNL     1      -9.154 -15.234   6.892  1.00  0.00    -0.225 N
ATOM     20  H5  UNL     1      -8.920 -15.384   7.873  1.00  0.00     0.177 HD
BRANCH  19  21
HETATM   21  C10 UNL     1      -8.115 -15.229   5.906  1.00  0.00     0.138 C
BRANCH  21  22
HETATM   22  C11 UNL     1      -7.640 -13.788   5.681  1.00  0.00     0.020 C
BRANCH  22  23
HETATM   23  C12 UNL     1      -7.792 -13.382   4.262  1.00  0.00     0.002 C
BRANCH  23  24
HETATM   24  C13 UNL     1      -8.374 -14.345   3.306  1.00  0.00     0.008 C
BRANCH  24  25
HETATM   25  C14 UNL     1      -7.907 -14.355   1.906  1.00  0.00    -0.051 C
HETATM   26  C15 UNL     1      -8.263 -15.503   1.040  1.00  0.00     0.014 C
HETATM   27  C16 UNL     1      -8.451 -13.071   1.235  1.00  0.00     0.014 C
HETATM   28  C17 UNL     1      -6.377 -14.173   1.840  1.00  0.00     0.014 C
ENDBRANCH  24  25
ENDBRANCH  23  24
ENDBRANCH  22  23
ENDBRANCH  21  22
ENDBRANCH  19  21
ENDBRANCH  17  19
ENDBRANCH  12  13
ENDBRANCH   8  12
ENDBRANCH   6   8
ENDBRANCH   5   6
ENDBRANCH   3   4
TORSDOF 11
ENDMDL