MODEL 5
REMARK VINA RESULT: -6.245288384      2.992      6.912
REMARK  6 active torsions:
REMARK  status: ('A' for Active; 'I' for Inactive)
REMARK    1  A    between atoms: C2_2  and  C3_3
REMARK    2  A    between atoms: C3_3  and  C4_4
REMARK    3  A    between atoms: C3_3  and  N1_6
REMARK    4  A    between atoms: N1_6  and  C6_8
REMARK    5  A    between atoms: C8_12  and  N3_13
REMARK    6  A    between atoms: N3_13  and  C9_15
ROOT
HETATM    1  C6  UNL     1      -8.016 -14.326   5.318  1.00  0.00     0.678 A
HETATM    2  N2  UNL     1      -7.338 -15.218   6.061  1.00  0.00    -0.200 N
ATOM      3  H2  UNL     1      -6.337 -15.316   5.890  1.00  0.00     0.183 HD
HETATM    4  C7  UNL     1      -7.887 -15.988   7.012  1.00  0.00     0.137 A
HETATM    5  C8  UNL     1      -9.262 -15.830   7.221  1.00  0.00     0.065 A
HETATM    6  C13 UNL     1      -9.965 -14.918   6.464  1.00  0.00     0.137 A
HETATM    7  N5  UNL     1      -9.342 -14.176   5.521  1.00  0.00    -0.200 N
ATOM      8  H5  UNL     1      -9.872 -13.505   4.965  1.00  0.00     0.183 HD
ENDROOT
BRANCH   5   9
HETATM    9  N3  UNL     1      -9.869 -16.626   8.216  1.00  0.00    -0.344 N
ATOM     10  H3  UNL     1      -9.331 -17.026   8.985  1.00  0.00     0.167 HD
BRANCH   9  11
HETATM   11  C9  UNL     1     -11.294 -16.847   8.089  1.00  0.00     0.081 C
HETATM   12  N4  UNL     1     -12.190 -16.755   8.956  1.00  0.00    -0.376 N
HETATM   13  C10 UNL     1     -13.486 -17.050   8.456  1.00  0.00     0.176 C
ATOM     14  H4  UNL     1     -12.008 -16.496   9.926  1.00  0.00     0.160 HD
HETATM   15  C11 UNL     1     -13.339 -16.979   6.961  1.00  0.00     0.182 C
HETATM   16  F1  UNL     1     -14.073 -17.982   6.334  1.00  0.00    -0.228 F
HETATM   17 BR1  UNL     1     -13.911 -15.277   6.297  1.00  0.00    -0.046 Br
HETATM   18  C12 UNL     1     -11.874 -17.238   6.787  1.00  0.00     0.133 C
ENDBRANCH   9  11
ENDBRANCH   5   9
BRANCH   1  19
HETATM   19  N1  UNL     1      -7.449 -13.614   4.421  1.00  0.00    -0.221 N
ATOM     20  H1  UNL     1      -6.654 -13.032   4.685  1.00  0.00     0.178 HD
BRANCH  19  21
HETATM   21  C3  UNL     1      -7.895 -13.601   3.043  1.00  0.00     0.098 C
BRANCH  21  22
HETATM   22  C2  UNL     1      -8.024 -15.043   2.558  1.00  0.00     0.021 C
HETATM   23  C1  UNL     1      -9.426 -15.288   2.051  1.00  0.00     0.007 C
ENDBRANCH  21  22
BRANCH  21  24
HETATM   24  C4  UNL     1      -6.918 -12.837   2.177  1.00  0.00     0.021 C
HETATM   25  C5  UNL     1      -5.724 -13.654   1.801  1.00  0.00     0.007 C
ENDBRANCH  21  24
ENDBRANCH  19  21
ENDBRANCH   1  19
TORSDOF 6
ENDMDL