MODEL 1
REMARK VINA RESULT: -6.008278345      0.000      0.000
REMARK  7 active torsions:
REMARK  status: ('A' for Active; 'I' for Inactive)
REMARK    1  A    between atoms: C2_2  and  O1_3
REMARK    2  A    between atoms: O1_3  and  C3_4
REMARK    3  A    between atoms: C3_4  and  C4_6
REMARK    4  A    between atoms: C5_9  and  S1_10
REMARK    5  A    between atoms: S1_10  and  C6_11
REMARK    6  A    between atoms: C6_11  and  C7_12
REMARK    7  A    between atoms: C10_17  and  N3_18
ROOT
HETATM    1  C4  UNL     1      -8.130 -15.856   6.880  1.00  0.00     0.131 A
HETATM    2  N1  UNL     1      -7.687 -15.031   5.942  1.00  0.00    -0.331 N
ATOM      3  H1  UNL     1      -6.682 -15.002   5.769  1.00  0.00     0.168 HD
HETATM    4  C5  UNL     1      -8.477 -14.231   5.202  1.00  0.00     0.146 A
HETATM    5  N2  UNL     1      -9.801 -14.257   5.416  1.00  0.00    -0.322 N
ATOM      6  H2  UNL     1     -10.416 -13.658   4.865  1.00  0.00     0.169 HD
HETATM    7  C10 UNL     1     -10.330 -15.079   6.364  1.00  0.00     0.120 A
HETATM    8  C11 UNL     1      -9.488 -15.891   7.110  1.00  0.00     0.087 A
HETATM    9 BR1  UNL     1     -10.213 -17.038   8.431  1.00  0.00    -0.044 Br
ENDROOT
BRANCH   1  10
HETATM   10  C3  UNL     1      -7.210 -16.699   7.649  1.00  0.00     0.311 C
HETATM   11  O2  UNL     1      -6.638 -16.210   8.657  1.00  0.00    -0.258 OA
BRANCH  10  12
HETATM   12  O1  UNL     1      -6.934 -17.999   7.324  1.00  0.00    -0.317 OA
BRANCH  12  13
HETATM   13  C2  UNL     1      -6.284 -18.900   8.227  1.00  0.00     0.175 C
HETATM   14  C1  UNL     1      -5.300 -19.777   7.527  1.00  0.00     0.034 C
ENDBRANCH  12  13
ENDBRANCH  10  12
ENDBRANCH   1  10
BRANCH   4  15
HETATM   15  S1  UNL     1      -7.844 -13.132   3.945  1.00  0.00    -0.093 SA
BRANCH  15  16
HETATM   16  C6  UNL     1      -6.910 -14.095   2.758  1.00  0.00     0.086 C
BRANCH  16  17
HETATM   17  C7  UNL     1      -7.653 -14.330   1.462  1.00  0.00    -0.013 C
HETATM   18  C8  UNL     1      -8.597 -15.503   1.558  1.00  0.00     0.010 C
HETATM   19  C9  UNL     1      -8.436 -13.080   1.134  1.00  0.00     0.010 C
ENDBRANCH  16  17
ENDBRANCH  15  16
ENDBRANCH   4  15
BRANCH   7  20
HETATM   20  N3  UNL     1     -11.605 -15.075   6.541  1.00  0.00    -0.384 N
ATOM     21  H32 UNL     1     -12.221 -15.721   6.046  1.00  0.00     0.157 HD
ATOM     22  H31 UNL     1     -12.005 -14.404   7.197  1.00  0.00     0.157 HD
ENDBRANCH   7  20
TORSDOF 7
ENDMDL