MODEL 3
REMARK VINA RESULT: -6.696430931      1.816      3.123
REMARK  7 active torsions:
REMARK  status: ('A' for Active; 'I' for Inactive)
REMARK    1  A    between atoms: N1_2  and  C2_3
REMARK    2  A    between atoms: N1_2  and  C6_7
REMARK    3  A    between atoms: C2_3  and  C3_4
REMARK    4  A    between atoms: C7_10  and  N3_11
REMARK    5  A    between atoms: C10_14  and  C11_15
REMARK    6  A    between atoms: C11_15  and  O1_16
REMARK    7  A    between atoms: C15_22  and  N4_23
ROOT
HETATM    1  C6  UNL     1     -10.153 -17.218   9.271  1.00  0.00     0.683 A
HETATM    2  N2  UNL     1      -9.543 -16.719   8.158  1.00  0.00    -0.175 N
ATOM      3  H2  UNL     1      -8.531 -16.814   8.074  1.00  0.00     0.186 HD
HETATM    4  C7  UNL     1     -10.217 -16.105   7.161  1.00  0.00     0.144 A
HETATM    5  C14 UNL     1     -11.576 -16.002   7.325  1.00  0.00     0.122 A
HETATM    6 CL1  UNL     1     -12.555 -15.243   6.116  1.00  0.00    -0.076 Cl
HETATM    7  C15 UNL     1     -12.206 -16.511   8.462  1.00  0.00     0.140 A
HETATM    8  N5  UNL     1     -11.499 -17.115   9.430  1.00  0.00    -0.175 N
ATOM      9  H5  UNL     1     -11.958 -17.488  10.261  1.00  0.00     0.186 HD
ENDROOT
BRANCH   4  10
HETATM   10  N3  UNL     1      -9.590 -15.581   6.013  1.00  0.00    -0.365 N
HETATM   11  C8  UNL     1     -10.260 -15.222   4.787  1.00  0.00     0.125 C
HETATM   12  C9  UNL     1      -9.315 -15.222   3.608  1.00  0.00     0.026 C
HETATM   13  C10 UNL     1      -8.096 -14.385   3.825  1.00  0.00     0.012 C
HETATM   14  C12 UNL     1      -7.898 -14.093   5.283  1.00  0.00     0.026 C
HETATM   15  C13 UNL     1      -8.154 -15.380   6.039  1.00  0.00     0.125 C
BRANCH  13  16
HETATM   16  C11 UNL     1      -8.093 -13.130   2.980  1.00  0.00     0.168 C
BRANCH  16  17
HETATM   17  O1  UNL     1      -6.789 -12.676   2.841  1.00  0.00    -0.400 OA
ATOM     18  H1  UNL     1      -6.334 -13.220   2.208  1.00  0.00     0.209 HD
ENDBRANCH  16  17
ENDBRANCH  13  16
ENDBRANCH   4  10
BRANCH   1  19
HETATM   19  N1  UNL     1      -9.410 -17.847  10.296  1.00  0.00    -0.222 N
HETATM   20  C1  UNL     1      -8.139 -18.443  10.001  1.00  0.00     0.168 C
BRANCH  19  21
HETATM   21  C2  UNL     1      -9.930 -17.892  11.633  1.00  0.00     0.145 C
BRANCH  21  22
HETATM   22  C3  UNL     1      -9.427 -19.136  12.365  1.00  0.00     0.004 A
HETATM   23  C4  UNL     1      -8.792 -18.980  13.693  1.00  0.00     0.007 A
HETATM   24  C5  UNL     1     -10.196 -19.523  13.632  1.00  0.00     0.007 A
ENDBRANCH  21  22
ENDBRANCH  19  21
ENDBRANCH   1  19
BRANCH   7  25
HETATM   25  N4  UNL     1     -13.496 -16.388   8.568  1.00  0.00    -0.384 N
ATOM     26  H42 UNL     1     -14.059 -17.155   8.938  1.00  0.00     0.157 HD
ATOM     27  H41 UNL     1     -13.930 -15.513   8.276  1.00  0.00     0.157 HD
ENDBRANCH   7  25
TORSDOF 7
ENDMDL