MODEL 5
REMARK VINA RESULT: -7.664351044      3.268      5.825
REMARK  5 active torsions:
REMARK  status: ('A' for Active; 'I' for Inactive)
REMARK    1  A    between atoms: C4_5  and  N1_6
REMARK    2  A    between atoms: N1_6  and  C5_8
REMARK    3  A    between atoms: C5_8  and  C6_9
REMARK    4  A    between atoms: C5_8  and  C11_16
REMARK    5  A    between atoms: C11_16  and  C12_17
ROOT
HETATM    1  C5  UNL     1      -9.021 -15.708   6.423  1.00  0.00     0.102 C
ENDROOT
BRANCH   1   2
HETATM    2  N1  UNL     1      -8.958 -16.174   5.037  1.00  0.00    -0.384 N
ATOM      3  H1  UNL     1      -9.059 -17.173   4.859  1.00  0.00     0.160 HD
BRANCH   2   4
HETATM    4  C4  UNL     1      -8.765 -15.316   3.930  1.00  0.00     0.028 A
HETATM    5  C3  UNL     1      -9.061 -15.637   2.623  1.00  0.00     0.032 A
HETATM    6  C2  UNL     1      -8.830 -14.783   1.578  1.00  0.00     0.044 A
HETATM    7  C1  UNL     1      -8.277 -13.543   1.820  1.00  0.00     0.116 A
HETATM    8  F1  UNL     1      -8.042 -12.682   0.772  1.00  0.00    -0.206 F
HETATM    9  C17 UNL     1      -7.961 -13.173   3.110  1.00  0.00     0.044 A
HETATM   10  C16 UNL     1      -8.218 -14.071   4.121  1.00  0.00     0.032 A
ENDBRANCH   2   4
ENDBRANCH   1   2
BRANCH   1  11
HETATM   11  C6  UNL     1     -10.381 -16.166   6.970  1.00  0.00     0.016 C
HETATM   12  C7  UNL     1     -11.482 -15.196   6.841  1.00  0.00     0.051 C
HETATM   13  C8  UNL     1     -12.779 -15.817   6.350  1.00  0.00     0.056 C
HETATM   14  N2  UNL     1     -13.057 -17.121   6.786  1.00  0.00    -0.402 N
HETATM   15  C9  UNL     1     -12.014 -17.883   7.347  1.00  0.00     0.119 C
ATOM     16  H2  UNL     1     -13.996 -17.510   6.700  1.00  0.00     0.158 HD
HETATM   17  C10 UNL     1     -10.732 -17.569   6.558  1.00  0.00     0.026 C
ENDBRANCH   1  11
BRANCH   1  18
HETATM   18  C11 UNL     1      -7.900 -16.264   7.232  1.00  0.00     0.041 C
HETATM   19  C13 UNL     1      -7.429 -17.663   6.923  1.00  0.00     0.020 C
HETATM   20  C14 UNL     1      -7.313 -17.887   8.438  1.00  0.00     0.002 C
HETATM   21  C15 UNL     1      -8.395 -16.824   8.564  1.00  0.00     0.020 C
BRANCH  18  22
HETATM   22  C12 UNL     1      -6.769 -15.350   7.521  1.00  0.00     0.120 A
HETATM   23  N3  UNL     1      -5.747 -15.627   8.375  1.00  0.00    -0.270 N
HETATM   24  N4  UNL     1      -4.925 -14.586   8.380  1.00  0.00    -0.005 NA
ATOM     25  H3  UNL     1      -5.632 -16.484   8.917  1.00  0.00     0.185 HD
HETATM   26  N5  UNL     1      -5.388 -13.659   7.559  1.00  0.00    -0.225 N
HETATM   27  N6  UNL     1      -6.496 -14.142   7.055  1.00  0.00    -0.274 N
ATOM     28  H5  UNL     1      -4.967 -12.752   7.358  1.00  0.00     0.205 HD
ATOM     29  H6  UNL     1      -7.081 -13.645   6.382  1.00  0.00     0.189 HD
ENDBRANCH  18  22
ENDBRANCH   1  18
TORSDOF 5
ENDMDL