MODEL 5
REMARK VINA RESULT: -6.366783869      2.549      3.817
REMARK  6 active torsions:
REMARK  status: ('A' for Active; 'I' for Inactive)
REMARK    1  A    between atoms: N1_1  and  C1_4
REMARK    2  A    between atoms: C2_9  and  S1_10
REMARK    3  A    between atoms: S1_10  and  C3_11
REMARK    4  A    between atoms: C3_11  and  C4_12
REMARK    5  A    between atoms: C4_12  and  N4_13
REMARK    6  A    between atoms: N4_13  and  C5_16
ROOT
HETATM    1  C3  UNL     1      -7.817 -16.822   8.430  1.00  0.00     0.109 C
ENDROOT
BRANCH   1   2
HETATM    2  S1  UNL     1      -8.837 -17.892   9.495  1.00  0.00    -0.102 SA
BRANCH   2   3
HETATM    3  C2  UNL     1     -10.537 -17.318   9.309  1.00  0.00     0.130 A
HETATM    4  N3  UNL     1     -11.298 -16.662  10.166  1.00  0.00    -0.286 N
HETATM    5  N2  UNL     1     -12.485 -16.336   9.861  1.00  0.00    -0.279 N
ATOM      6  H3  UNL     1     -10.927 -16.416  11.084  1.00  0.00     0.188 HD
HETATM    7  C1  UNL     1     -12.954 -16.668   8.655  1.00  0.00     0.159 A
ATOM      8  H2  UNL     1     -13.071 -15.829  10.524  1.00  0.00     0.189 HD
HETATM    9  S2  UNL     1     -11.610 -17.474   7.969  1.00  0.00    -0.027 SA
BRANCH   7  10
HETATM   10  N1  UNL     1     -14.137 -16.425   8.158  1.00  0.00    -0.379 N
ATOM     11  H12 UNL     1     -14.734 -15.603   8.247  1.00  0.00     0.158 HD
ATOM     12  H11 UNL     1     -14.706 -17.032   7.567  1.00  0.00     0.158 HD
ENDBRANCH   7  10
ENDBRANCH   2   3
ENDBRANCH   1   2
BRANCH   1  13
HETATM   13  C4  UNL     1      -7.506 -17.533   7.119  1.00  0.00     0.243 C
BRANCH  13  14
HETATM   14  N4  UNL     1      -8.355 -17.017   6.065  1.00  0.00    -0.069 N
ATOM     15  H42 UNL     1      -7.905 -17.107   5.154  1.00  0.00     0.277 HD
ATOM     16  H41 UNL     1      -9.160 -17.624   5.912  1.00  0.00     0.277 HD
BRANCH  14  17
HETATM   17  C5  UNL     1      -8.767 -15.665   6.305  1.00  0.00     0.204 C
HETATM   18  C6  UNL     1     -10.081 -15.377   5.640  1.00  0.00     0.018 C
HETATM   19  C7  UNL     1      -9.766 -15.258   4.180  1.00  0.00     0.012 C
HETATM   20  C9  UNL     1     -10.042 -13.839   5.643  1.00  0.00     0.012 C
HETATM   21  C8  UNL     1      -8.911 -14.072   4.635  1.00  0.00     0.003 C
HETATM   22  C10 UNL     1      -7.869 -14.704   5.495  1.00  0.00     0.093 C
HETATM   23 BR1  UNL     1      -7.148 -13.389   6.702  1.00  0.00    -0.089 Br
ENDBRANCH  14  17
ENDBRANCH  13  14
ENDBRANCH   1  13
TORSDOF 6
ENDMDL