MODEL 1
REMARK VINA RESULT: -6.424334058      0.000      0.000
REMARK  7 active torsions:
REMARK  status: ('A' for Active; 'I' for Inactive)
REMARK    1  A    between atoms: C2_2  and  O1_3
REMARK    2  A    between atoms: C2_2  and  C9_14
REMARK    3  A    between atoms: O1_3  and  C3_4
REMARK    4  A    between atoms: C3_4  and  C4_5
REMARK    5  A    between atoms: C4_5  and  C5_6
REMARK    6  A    between atoms: C11_18  and  N3_19
REMARK    7  A    between atoms: C12_24  and  C13_25
ROOT
HETATM    1  C9  UNL     1      -8.937 -15.237   5.708  1.00  0.00     0.011 A
HETATM    2  C10 UNL     1      -9.104 -16.606   6.014  1.00  0.00     0.117 A
HETATM    3  N2  UNL     1      -8.327 -17.268   6.867  1.00  0.00    -0.202 N
ATOM      4  H2  UNL     1      -8.497 -18.258   7.047  1.00  0.00     0.183 HD
HETATM    5  C11 UNL     1      -7.330 -16.641   7.483  1.00  0.00     0.675 A
HETATM    6  N4  UNL     1      -7.138 -15.355   7.224  1.00  0.00    -0.193 N
ATOM      7  H4  UNL     1      -6.372 -14.880   7.702  1.00  0.00     0.184 HD
HETATM    8  C12 UNL     1      -7.911 -14.616   6.348  1.00  0.00     0.059 A
ENDROOT
BRANCH   1   9
HETATM    9  C2  UNL     1      -9.877 -14.660   4.800  1.00  0.00     0.153 C
HETATM   10  C1  UNL     1      -9.590 -15.319   3.353  1.00  0.00     0.045 C
BRANCH   9  11
HETATM   11  O1  UNL     1     -11.174 -15.188   5.074  1.00  0.00    -0.381 OA
BRANCH  11  12
HETATM   12  C3  UNL     1     -12.031 -14.292   5.683  1.00  0.00     0.170 C
BRANCH  12  13
HETATM   13  C4  UNL     1     -13.346 -14.988   5.922  1.00  0.00     0.061 C
BRANCH  13  14
HETATM   14  C5  UNL     1     -13.190 -15.966   7.062  1.00  0.00     0.211 C
HETATM   15  C6  UNL     1     -13.347 -17.392   6.557  1.00  0.00     0.200 C
HETATM   16  O2  UNL     1     -12.247 -18.121   6.916  1.00  0.00    -0.387 OA
HETATM   17  C7  UNL     1     -12.079 -18.165   8.282  1.00  0.00     0.195 C
HETATM   18  C8  UNL     1     -11.911 -16.779   8.853  1.00  0.00     0.259 C
HETATM   19  N1  UNL     1     -11.941 -15.832   7.739  1.00  0.00    -0.067 N
ATOM     20  H12 UNL     1     -11.143 -15.940   7.114  1.00  0.00     0.277 HD
ATOM     21  H11 UNL     1     -11.757 -14.874   8.036  1.00  0.00     0.277 HD
ENDBRANCH  13  14
ENDBRANCH  12  13
ENDBRANCH  11  12
ENDBRANCH   9  11
ENDBRANCH   1   9
BRANCH   8  22
HETATM   22  C13 UNL     1      -7.594 -13.210   6.108  1.00  0.00     0.073 C
HETATM   23  C14 UNL     1      -8.520 -12.184   6.641  1.00  0.00     0.039 C
HETATM   24  C15 UNL     1      -7.259 -12.956   4.635  1.00  0.00     0.039 C
HETATM   25 CL1  UNL     1      -6.027 -12.873   6.942  1.00  0.00    -0.113 Cl
ENDBRANCH   8  22
BRANCH   5  26
HETATM   26  N3  UNL     1      -6.545 -17.227   8.315  1.00  0.00    -0.234 N
ATOM     27  H32 UNL     1      -6.692 -18.217   8.512  1.00  0.00     0.174 HD
ATOM     28  H31 UNL     1      -5.781 -16.746   8.789  1.00  0.00     0.174 HD
ENDBRANCH   5  26
TORSDOF 7
ENDMDL