MODEL 4
REMARK VINA RESULT: -6.596940176      2.732      4.860
REMARK  7 active torsions:
REMARK  status: ('A' for Active; 'I' for Inactive)
REMARK    1  A    between atoms: C2_2  and  C3_3
REMARK    2  A    between atoms: C3_3  and  C4_4
REMARK    3  A    between atoms: C3_3  and  N1_7
REMARK    4  A    between atoms: C4_4  and  O1_5
REMARK    5  A    between atoms: N1_7  and  C5_9
REMARK    6  A    between atoms: C8_17  and  O2_18
REMARK    7  A    between atoms: C10_22  and  N5_23
ROOT
HETATM    1  C5  UNL     1      -8.169 -14.810   6.797  1.00  0.00     0.132 A
HETATM    2  N2  UNL     1      -6.960 -14.234   6.634  1.00  0.00    -0.284 N
ATOM      3  H2  UNL     1      -6.774 -13.400   6.078  1.00  0.00     0.188 HD
HETATM    4  N3  UNL     1      -6.053 -14.921   7.307  1.00  0.00    -0.295 N
ATOM      5  H3  UNL     1      -5.059 -14.699   7.351  1.00  0.00     0.187 HD
HETATM    6  C6  UNL     1      -6.642 -15.955   7.922  1.00  0.00     0.108 A
HETATM    7  C7  UNL     1      -6.111 -16.926   8.734  1.00  0.00     0.196 A
HETATM    8  F1  UNL     1      -4.790 -16.982   9.043  1.00  0.00    -0.199 F
HETATM    9  C8  UNL     1      -6.993 -17.861   9.232  1.00  0.00     0.185 A
HETATM   10  N4  UNL     1      -8.295 -17.838   8.949  1.00  0.00    -0.320 N
ATOM     11  H4  UNL     1      -8.897 -18.559   9.349  1.00  0.00     0.169 HD
HETATM   12  C10 UNL     1      -8.860 -16.880   8.139  1.00  0.00     0.121 A
HETATM   13  C15 UNL     1      -8.010 -15.936   7.630  1.00  0.00     0.084 A
ENDROOT
BRANCH   1  14
HETATM   14  N1  UNL     1      -9.304 -14.490   6.355  1.00  0.00    -0.368 N
ATOM     15  H1  UNL     1      -9.969 -14.160   7.055  1.00  0.00     0.161 HD
BRANCH  14  16
HETATM   16  C3  UNL     1      -9.793 -14.524   5.011  1.00  0.00     0.106 C
BRANCH  16  17
HETATM   17  C2  UNL     1     -11.230 -14.924   4.869  1.00  0.00     0.023 C
HETATM   18  C1  UNL     1     -12.079 -14.018   5.736  1.00  0.00     0.007 C
ENDBRANCH  16  17
BRANCH  16  19
HETATM   19  C4  UNL     1      -8.844 -15.245   4.093  1.00  0.00     0.189 C
BRANCH  19  20
HETATM   20  O1  UNL     1      -9.401 -15.629   2.884  1.00  0.00    -0.399 OA
ATOM     21  H1  UNL     1      -9.323 -16.556   2.694  1.00  0.00     0.209 HD
ENDBRANCH  19  20
ENDBRANCH  16  19
ENDBRANCH  14  16
ENDBRANCH   1  14
BRANCH  12  22
HETATM   22  N5  UNL     1     -10.234 -16.926   7.846  1.00  0.00    -0.366 N
HETATM   23  C11 UNL     1     -11.349 -16.319   8.535  1.00  0.00     0.124 C
HETATM   24  C12 UNL     1     -12.584 -17.027   8.094  1.00  0.00     0.021 C
HETATM   25  C13 UNL     1     -12.127 -18.095   7.154  1.00  0.00     0.021 C
HETATM   26  C14 UNL     1     -10.780 -17.649   6.702  1.00  0.00     0.124 C
ENDBRANCH  12  22
BRANCH   9  27
HETATM   27  O2  UNL     1      -6.500 -18.851  10.051  1.00  0.00    -0.338 OA
HETATM   28  C9  UNL     1      -6.142 -20.136   9.592  1.00  0.00     0.211 C
ENDBRANCH   9  27
TORSDOF 7
ENDMDL