MODEL 1
REMARK VINA RESULT: -8.204476735      0.000      0.000
REMARK  7 active torsions:
REMARK  status: ('A' for Active; 'I' for Inactive)
REMARK    1  A    between atoms: O1_1  and  C1_3
REMARK    2  A    between atoms: C1_3  and  C2_4
REMARK    3  A    between atoms: N1_5  and  C3_7
REMARK    4  A    between atoms: C4_8  and  C5_9
REMARK    5  A    between atoms: C5_9  and  O2_10
REMARK    6  A    between atoms: N2_14  and  C7_15
REMARK    7  A    between atoms: C7_15  and  C8_16
ROOT
HETATM    1  C3  UNL     1      -9.813 -16.957   8.087  1.00  0.00     0.060 A
HETATM    2  C4  UNL     1      -8.671 -16.822   7.311  1.00  0.00     0.044 A
HETATM    3  C6  UNL     1      -8.740 -16.234   6.052  1.00  0.00     0.107 A
HETATM    4  N2  UNL     1      -9.859 -15.766   5.505  1.00  0.00    -0.340 N
HETATM    5  C14 UNL     1     -10.981 -15.879   6.234  1.00  0.00     0.136 A
HETATM    6  N3  UNL     1     -12.280 -15.508   6.014  1.00  0.00    -0.285 N
ATOM      7  H3  UNL     1     -12.619 -15.050   5.169  1.00  0.00     0.188 HD
HETATM    8  N4  UNL     1     -13.032 -15.829   7.053  1.00  0.00    -0.309 N
ATOM      9  H4  UNL     1     -14.034 -15.654   7.126  1.00  0.00     0.186 HD
HETATM   10  C15 UNL     1     -12.284 -16.417   7.998  1.00  0.00     0.124 A
HETATM   11  C16 UNL     1     -10.999 -16.442   7.473  1.00  0.00     0.054 A
ENDROOT
BRANCH   4  12
HETATM   12  C7  UNL     1      -9.918 -15.179   4.207  1.00  0.00     0.134 C
BRANCH  12  13
HETATM   13  C8  UNL     1      -8.608 -14.853   3.551  1.00  0.00     0.004 C
HETATM   14  C9  UNL     1      -8.147 -13.432   3.721  1.00  0.00     0.006 C
HETATM   15  C10 UNL     1      -6.919 -13.316   2.800  1.00  0.00     0.000 C
HETATM   16  C11 UNL     1      -7.477 -13.201   1.412  1.00  0.00     0.000 C
HETATM   17  C12 UNL     1      -8.428 -14.292   1.107  1.00  0.00     0.000 C
HETATM   18  C13 UNL     1      -8.544 -15.353   2.163  1.00  0.00     0.006 C
ENDBRANCH  12  13
ENDBRANCH   4  12
BRANCH   2  19
HETATM   19  C5  UNL     1      -7.334 -17.250   7.817  1.00  0.00     0.342 C
HETATM   20  F1  UNL     1      -6.864 -18.299   7.060  1.00  0.00    -0.214 F
BRANCH  19  21
HETATM   21  O2  UNL     1      -6.377 -16.273   7.804  1.00  0.00    -0.363 OA
ATOM     22  H2  UNL     1      -6.384 -15.718   7.033  1.00  0.00     0.213 HD
ENDBRANCH  19  21
ENDBRANCH   2  19
BRANCH   1  23
HETATM   23  N1  UNL     1      -9.890 -17.490   9.169  1.00  0.00    -0.366 N
HETATM   24  C2  UNL     1      -9.537 -17.922  10.378  1.00  0.00     0.087 C
ATOM     25  H1  UNL     1     -10.852 -17.827   9.133  1.00  0.00     0.165 HD
BRANCH  24  26
HETATM   26  C1  UNL     1     -10.188 -17.211  11.580  1.00  0.00     0.208 C
BRANCH  26  27
HETATM   27  O1  UNL     1     -11.466 -16.824  11.179  1.00  0.00    -0.396 OA
ATOM     28  H1  UNL     1     -11.363 -16.061  10.622  1.00  0.00     0.209 HD
ENDBRANCH  26  27
ENDBRANCH  24  26
ENDBRANCH   1  23
TORSDOF 7
ENDMDL