MODEL 5
REMARK VINA RESULT: -6.576870460      0.741      1.312
REMARK  7 active torsions:
REMARK  status: ('A' for Active; 'I' for Inactive)
REMARK    1  A    between atoms: C2_2  and  N1_4
REMARK    2  A    between atoms: C6_9  and  N3_10
REMARK    3  A    between atoms: C7_15  and  O1_16
REMARK    4  A    between atoms: O1_16  and  C8_17
REMARK    5  A    between atoms: C8_17  and  C9_18
REMARK    6  A    between atoms: C9_18  and  C10_19
REMARK    7  A    between atoms: C10_19  and  O2_20
ROOT
HETATM    1  N1  UNL     1      -8.971 -14.149   4.457  1.00  0.00     0.142 N
HETATM    2  C4  UNL     1      -9.609 -15.413   4.897  1.00  0.00     0.336 C
HETATM    3  C5  UNL     1      -8.605 -15.882   5.903  1.00  0.00     0.070 A
HETATM    4  N2  UNL     1      -8.239 -17.082   6.356  1.00  0.00    -0.193 N
ATOM      5  H2  UNL     1      -8.706 -17.913   5.995  1.00  0.00     0.184 HD
HETATM    6  C6  UNL     1      -7.268 -17.224   7.279  1.00  0.00     0.678 A
HETATM    7  N4  UNL     1      -6.644 -16.137   7.763  1.00  0.00    -0.170 N
ATOM      8  H4  UNL     1      -5.910 -16.257   8.461  1.00  0.00     0.186 HD
HETATM    9  C7  UNL     1      -6.964 -14.870   7.345  1.00  0.00     0.171 A
HETATM   10  C14 UNL     1      -7.946 -14.739   6.415  1.00  0.00     0.088 A
HETATM   11  C15 UNL     1      -8.608 -13.616   5.754  1.00  0.00     0.329 C
HETATM   12  C16 UNL     1      -8.030 -12.283   5.816  1.00  0.00     0.093 C
HETATM   13  F1  UNL     1      -9.873 -13.514   6.423  1.00  0.00    -0.203 F
ENDROOT
BRANCH   9  14
HETATM   14  O1  UNL     1      -6.275 -13.801   7.885  1.00  0.00    -0.334 OA
BRANCH  14  15
HETATM   15  C8  UNL     1      -4.927 -14.035   8.254  1.00  0.00     0.189 C
BRANCH  15  16
HETATM   16  C9  UNL     1      -4.160 -12.805   8.612  1.00  0.00     0.003 C
HETATM   17  C11 UNL     1      -3.069 -13.050   9.591  1.00  0.00     0.014 C
HETATM   18  C12 UNL     1      -2.151 -12.206   8.704  1.00  0.00     0.002 C
HETATM   19  C13 UNL     1      -3.140 -12.378   7.564  1.00  0.00     0.014 C
BRANCH  16  20
HETATM   20  C10 UNL     1      -5.043 -11.610   8.920  1.00  0.00     0.175 C
BRANCH  20  21
HETATM   21  O2  UNL     1      -5.705 -11.869  10.117  1.00  0.00    -0.400 OA
ATOM     22  H2  UNL     1      -5.786 -12.811  10.204  1.00  0.00     0.209 HD
ENDBRANCH  20  21
ENDBRANCH  16  20
ENDBRANCH  15  16
ENDBRANCH  14  15
ENDBRANCH   9  14
BRANCH   6  23
HETATM   23  N3  UNL     1      -6.891 -18.375   7.741  1.00  0.00    -0.234 N
ATOM     24  H32 UNL     1      -6.815 -18.468   8.753  1.00  0.00     0.174 HD
ATOM     25  H31 UNL     1      -6.672 -19.172   7.142  1.00  0.00     0.174 HD
ENDBRANCH   6  23
BRANCH   1  26
HETATM   26  C2  UNL     1      -7.855 -14.444   3.594  1.00  0.00     0.220 C
HETATM   27  C1  UNL     1      -8.328 -15.300   2.398  1.00  0.00     0.042 C
HETATM   28  C3  UNL     1      -7.387 -13.156   2.954  1.00  0.00     0.042 C
ENDBRANCH   1  26
TORSDOF 7
ENDMDL