MODEL 1
REMARK VINA RESULT: -6.201425973      0.000      0.000
REMARK  6 active torsions:
REMARK  status: ('A' for Active; 'I' for Inactive)
REMARK    1  A    between atoms: O1_2  and  C2_3
REMARK    2  A    between atoms: C5_8  and  O4_9
REMARK    3  A    between atoms: C6_11  and  O5_12
REMARK    4  A    between atoms: C10_16  and  O6_17
REMARK    5  A    between atoms: C15_24  and  C16_25
REMARK    6  A    between atoms: C16_25  and  C17_26
ROOT
HETATM    1  C2  UNL     1      19.494  25.665  31.945  1.00  0.00     0.265 C
HETATM    2  O2  UNL     1      18.826  24.773  31.069  1.00  0.00    -0.358 OA
HETATM    3  C3  UNL     1      19.059  25.256  29.808  1.00  0.00     0.218 C
HETATM    4  C4  UNL     1      20.344  24.668  29.297  1.00  0.00     0.177 A
HETATM    5  O3  UNL     1      20.684  25.260  28.096  1.00  0.00    -0.328 OA
HETATM    6  C5  UNL     1      21.480  25.421  29.155  1.00  0.00     0.227 A
HETATM    7  C6  UNL     1      21.555  26.558  30.118  1.00  0.00     0.187 C
HETATM    8  C8  UNL     1      21.953  25.909  31.425  1.00  0.00     0.049 C
HETATM    9  C9  UNL     1      20.922  25.148  32.144  1.00  0.00     0.073 C
HETATM   10  C10 UNL     1      20.971  23.676  32.135  1.00  0.00     0.138 C
HETATM   11  C11 UNL     1      20.552  22.853  31.051  1.00  0.00     0.079 C
HETATM   12  C12 UNL     1      21.387  21.630  30.968  1.00  0.00     0.015 C
HETATM   13  C13 UNL     1      22.074  21.639  29.862  1.00  0.00     0.040 C
HETATM   14  C14 UNL     1      23.052  20.565  29.397  1.00  0.00     0.076 C
HETATM   15  O7  UNL     1      21.769  22.796  29.176  1.00  0.00    -0.341 OA
HETATM   16  C15 UNL     1      20.491  23.276  29.643  1.00  0.00     0.118 C
ENDROOT
BRANCH  16  17
HETATM   17  C16 UNL     1      19.554  22.402  28.806  1.00  0.00     0.070 C
BRANCH  17  18
HETATM   18  C17 UNL     1      19.889  22.448  27.382  1.00  0.00    -0.022 C
HETATM   19  C18 UNL     1      19.419  21.696  26.413  1.00  0.00    -0.091 C
HETATM   20  C19 UNL     1      18.414  20.609  26.605  1.00  0.00     0.042 C
HETATM   21  C20 UNL     1      19.872  21.875  24.981  1.00  0.00     0.042 C
ENDBRANCH  17  18
ENDBRANCH  16  17
BRANCH   6  22
HETATM   22  O4  UNL     1      22.749  24.854  28.987  1.00  0.00    -0.361 OA
ATOM     23  H4  UNL     1      23.512  25.364  28.742  1.00  0.00     0.213 HD
ENDBRANCH   6  22
BRANCH  10  24
HETATM   24  O6  UNL     1      22.298  23.328  32.522  1.00  0.00    -0.394 OA
ATOM     25  H6  UNL     1      22.327  23.424  33.467  1.00  0.00     0.210 HD
ENDBRANCH  10  24
BRANCH   7  26
HETATM   26  O5  UNL     1      22.692  27.318  29.741  1.00  0.00    -0.385 OA
HETATM   27  C7  UNL     1      22.361  28.282  28.784  1.00  0.00     0.202 C
ENDBRANCH   7  26
BRANCH   1  28
HETATM   28  O1  UNL     1      18.749  25.572  33.135  1.00  0.00    -0.366 OA
HETATM   29  C1  UNL     1      18.960  26.675  33.954  1.00  0.00     0.204 C
ENDBRANCH   1  28
TORSDOF 6
ENDMDL