MODEL 2
REMARK VINA RESULT: -8.798085637      3.109      8.273
REMARK  6 active torsions:
REMARK  status: ('A' for Active; 'I' for Inactive)
REMARK    1  A    between atoms: C9_12  and  C10_13
REMARK    2  A    between atoms: C10_13  and  C11_14
REMARK    3  A    between atoms: C14_17  and  C16_19
REMARK    4  A    between atoms: C16_19  and  N1_20
REMARK    5  A    between atoms: C18_27  and  C19_28
REMARK    6  A    between atoms: C19_28  and  O6_29
ROOT
HETATM    1  C1  UNL     1      20.145  21.205  29.365  1.00  0.00     0.040 C
HETATM    2  C2  UNL     1      20.219  22.381  30.315  1.00  0.00     0.133 C
HETATM    3  O1  UNL     1      18.986  23.027  30.466  1.00  0.00    -0.315 OA
HETATM    4  C3  UNL     1      19.222  24.364  30.762  1.00  0.00     0.268 C
HETATM    5  O2  UNL     1      18.341  25.217  31.121  1.00  0.00    -0.264 OA
HETATM    6  C4  UNL     1      20.681  24.651  30.588  1.00  0.00     0.057 C
HETATM    7  C5  UNL     1      21.391  24.675  31.891  1.00  0.00     0.027 C
HETATM    8  C6  UNL     1      21.079  23.495  29.706  1.00  0.00     0.035 C
HETATM    9  C7  UNL     1      20.500  23.887  28.378  1.00  0.00     0.041 C
HETATM   10  C8  UNL     1      20.246  25.355  28.400  1.00  0.00     0.128 C
HETATM   11  O3  UNL     1      20.958  26.057  27.444  1.00  0.00    -0.380 OA
HETATM   12  C9  UNL     1      22.284  26.024  27.898  1.00  0.00     0.129 C
HETATM   13  C18 UNL     1      22.246  26.189  29.346  1.00  0.00     0.046 C
HETATM   14  C20 UNL     1      20.815  25.830  29.706  1.00  0.00     0.041 C
ENDROOT
BRANCH  12  15
HETATM   15  C10 UNL     1      23.131  26.830  27.028  1.00  0.00     0.047 C
BRANCH  15  16
HETATM   16  C11 UNL     1      24.595  26.615  26.993  1.00  0.00     0.088 C
HETATM   17  C12 UNL     1      25.401  27.899  27.042  1.00  0.00     0.018 C
HETATM   18  C13 UNL     1      26.853  27.505  26.735  1.00  0.00     0.041 C
HETATM   19  C14 UNL     1      26.952  27.239  25.256  1.00  0.00     0.090 C
HETATM   20  C15 UNL     1      27.957  26.140  24.949  1.00  0.00     0.048 C
HETATM   21  O4  UNL     1      25.697  26.775  24.803  1.00  0.00    -0.308 OA
HETATM   22  C17 UNL     1      24.886  26.050  25.630  1.00  0.00     0.264 C
HETATM   23  O5  UNL     1      24.368  24.954  25.342  1.00  0.00    -0.265 OA
BRANCH  19  24
HETATM   24  C16 UNL     1      27.400  28.472  24.501  1.00  0.00     0.267 C
BRANCH  24  25
HETATM   25  N1  UNL     1      27.084  28.372  23.094  1.00  0.00    -0.076 N
ATOM     26  H13 UNL     1      27.889  28.062  22.551  1.00  0.00     0.274 HD
ATOM     27  H12 UNL     1      26.458  27.588  22.906  1.00  0.00     0.274 HD
ATOM     28  H11 UNL     1      26.705  29.248  22.736  1.00  0.00     0.274 HD
ENDBRANCH  24  25
ENDBRANCH  19  24
ENDBRANCH  15  16
ENDBRANCH  12  15
BRANCH  13  29
HETATM   29  C19 UNL     1      22.643  27.517  29.915  1.00  0.00     0.171 C
BRANCH  29  30
HETATM   30  O6  UNL     1      21.509  28.351  30.057  1.00  0.00    -0.400 OA
ATOM     31  H6  UNL     1      21.428  28.928  29.306  1.00  0.00     0.209 HD
ENDBRANCH  29  30
ENDBRANCH  13  29
TORSDOF 6
ENDMDL