MODEL 4
REMARK VINA RESULT: -6.353308863      5.347      9.731
REMARK  7 active torsions:
REMARK  status: ('A' for Active; 'I' for Inactive)
REMARK    1  A    between atoms: C2_2  and  C3_3
REMARK    2  A    between atoms: C3_3  and  O2_5
REMARK    3  A    between atoms: O2_5  and  C4_6
REMARK    4  A    between atoms: C5_7  and  O3_8
REMARK    5  A    between atoms: O3_8  and  C6_9
REMARK    6  A    between atoms: C12_16  and  O5_17
REMARK    7  A    between atoms: C18_26  and  O8_28
ROOT
HETATM    1  C4  UNL     1      21.136  23.917  28.679  1.00  0.00     0.170 C
HETATM    2  C5  UNL     1      19.971  23.174  28.218  1.00  0.00     0.166 C
HETATM    3  C8  UNL     1      19.830  21.716  28.601  1.00  0.00     0.069 C
HETATM    4  C9  UNL     1      19.494  21.781  30.102  1.00  0.00    -0.071 C
HETATM    5  C10 UNL     1      18.200  21.272  30.487  1.00  0.00     0.044 C
HETATM    6  C11 UNL     1      20.316  22.202  31.008  1.00  0.00     0.011 C
HETATM    7  C12 UNL     1      19.628  22.129  32.268  1.00  0.00     0.300 C
HETATM    8  O6  UNL     1      20.213  23.274  33.026  1.00  0.00    -0.285 OA
HETATM    9  C13 UNL     1      20.521  24.467  32.393  1.00  0.00     0.270 C
HETATM   10  O7  UNL     1      20.625  25.405  33.248  1.00  0.00    -0.264 OA
HETATM   11  C14 UNL     1      20.753  24.926  31.018  1.00  0.00     0.050 C
HETATM   12  C15 UNL     1      19.419  25.455  30.530  1.00  0.00     0.026 C
HETATM   13  C16 UNL     1      21.548  26.227  31.198  1.00  0.00     0.026 C
HETATM   14  C17 UNL     1      21.511  24.073  30.095  1.00  0.00     0.074 C
HETATM   15  C18 UNL     1      21.734  22.670  30.739  1.00  0.00     0.090 C
HETATM   16  C19 UNL     1      22.634  22.662  31.888  1.00  0.00     0.051 C
ENDROOT
BRANCH   1  17
HETATM   17  O2  UNL     1      21.148  25.179  28.037  1.00  0.00    -0.313 OA
BRANCH  17  18
HETATM   18  C3  UNL     1      22.232  25.824  27.523  1.00  0.00     0.258 C
HETATM   19  O1  UNL     1      22.890  25.221  26.621  1.00  0.00    -0.265 OA
BRANCH  18  20
HETATM   20  C2  UNL     1      22.702  27.161  27.927  1.00  0.00     0.106 C
HETATM   21  C1  UNL     1      24.155  27.372  27.635  1.00  0.00     0.015 C
ENDBRANCH  18  20
ENDBRANCH  17  18
ENDBRANCH   1  17
BRANCH   2  22
HETATM   22  O3  UNL     1      19.936  23.317  26.787  1.00  0.00    -0.313 OA
BRANCH  22  23
HETATM   23  C6  UNL     1      20.312  22.309  25.931  1.00  0.00     0.255 C
HETATM   24  C7  UNL     1      19.324  21.583  25.120  1.00  0.00     0.126 C
HETATM   25  O4  UNL     1      21.522  22.021  25.857  1.00  0.00    -0.266 OA
ENDBRANCH  22  23
ENDBRANCH   2  22
BRANCH  15  26
HETATM   26  O8  UNL     1      22.334  21.941  29.726  1.00  0.00    -0.385 OA
ATOM     27  H8  UNL     1      22.671  21.110  30.039  1.00  0.00     0.211 HD
ENDBRANCH  15  26
BRANCH   7  28
HETATM   28  O5  UNL     1      18.305  22.474  32.348  1.00  0.00    -0.367 OA
ATOM     29  H5  UNL     1      17.716  21.975  32.901  1.00  0.00     0.213 HD
ENDBRANCH   7  28
TORSDOF 7
ENDMDL