MODEL 3
REMARK VINA RESULT: -5.973724469      6.735      9.736
REMARK  6 active torsions:
REMARK  status: ('A' for Active; 'I' for Inactive)
REMARK    1  A    between atoms: C8_9  and  O2_10
REMARK    2  A    between atoms: O2_10  and  C9_11
REMARK    3  A    between atoms: C13_17  and  C14_18
REMARK    4  A    between atoms: C18_23  and  C19_24
REMARK    5  A    between atoms: C19_24  and  O6_25
REMARK    6  A    between atoms: C20_27  and  O7_28
ROOT
HETATM    1  C1  UNL     1      20.379  18.776  27.987  1.00  0.00     0.036 C
HETATM    2  C2  UNL     1      21.474  19.661  27.519  1.00  0.00    -0.023 C
HETATM    3  C3  UNL     1      21.842  20.736  28.188  1.00  0.00    -0.018 C
HETATM    4  C4  UNL     1      22.835  21.815  28.057  1.00  0.00     0.184 C
HETATM    5  O1  UNL     1      22.802  21.994  29.433  1.00  0.00    -0.363 OA
HETATM    6  C5  UNL     1      21.518  21.507  29.427  1.00  0.00     0.091 C
HETATM    7  C6  UNL     1      21.255  20.546  30.555  1.00  0.00     0.052 C
HETATM    8  C7  UNL     1      20.448  22.466  29.075  1.00  0.00     0.078 C
HETATM    9  C8  UNL     1      19.927  23.293  30.216  1.00  0.00     0.178 C
HETATM   10  C11 UNL     1      20.807  24.467  30.585  1.00  0.00     0.124 A
HETATM   11  C12 UNL     1      21.484  24.468  31.932  1.00  0.00     0.052 C
HETATM   12  O4  UNL     1      20.095  25.756  30.341  1.00  0.00    -0.352 OA
HETATM   13  C13 UNL     1      21.240  25.285  29.552  1.00  0.00     0.159 A
HETATM   14  C17 UNL     1      20.842  24.760  28.210  1.00  0.00     0.178 C
HETATM   15  O5  UNL     1      20.514  25.540  27.362  1.00  0.00    -0.293 OA
HETATM   16  C18 UNL     1      20.844  23.298  27.902  1.00  0.00     0.083 C
HETATM   17  C20 UNL     1      22.211  22.994  27.347  1.00  0.00     0.170 C
ENDROOT
BRANCH   9  18
HETATM   18  O2  UNL     1      19.678  22.498  31.356  1.00  0.00    -0.313 OA
BRANCH  18  19
HETATM   19  C9  UNL     1      18.480  22.509  32.067  1.00  0.00     0.255 C
HETATM   20  C10 UNL     1      18.392  21.722  33.304  1.00  0.00     0.126 C
HETATM   21  O3  UNL     1      17.548  23.200  31.594  1.00  0.00    -0.266 OA
ENDBRANCH  18  19
ENDBRANCH   9  18
BRANCH  16  22
HETATM   22  C19 UNL     1      19.768  23.108  26.820  1.00  0.00     0.184 C
BRANCH  22  23
HETATM   23  O6  UNL     1      19.056  21.969  27.159  1.00  0.00    -0.400 OA
ATOM     24  H6  UNL     1      19.369  21.271  26.596  1.00  0.00     0.209 HD
ENDBRANCH  22  23
ENDBRANCH  16  22
BRANCH  13  25
HETATM   25  C14 UNL     1      22.362  26.236  29.646  1.00  0.00     0.023 C
HETATM   26  C15 UNL     1      21.837  27.601  30.102  1.00  0.00     0.013 C
HETATM   27  C16 UNL     1      23.177  26.416  28.384  1.00  0.00     0.013 C
ENDBRANCH  13  25
BRANCH  17  28
HETATM   28  O7  UNL     1      22.176  22.761  25.965  1.00  0.00    -0.391 OA
ATOM     29  H7  UNL     1      23.045  22.548  25.647  1.00  0.00     0.210 HD
ENDBRANCH  17  28
TORSDOF 6
ENDMDL