MODEL 4
REMARK VINA RESULT: -7.454786206      1.454      2.063
REMARK  8 active torsions:
REMARK  status: ('A' for Active; 'I' for Inactive)
REMARK    1  A    between atoms: C2_2  and  C3_3
REMARK    2  A    between atoms: C3_3  and  C4_4
REMARK    3  A    between atoms: C4_4  and  O2_6
REMARK    4  A    between atoms: O2_6  and  C5_7
REMARK    5  A    between atoms: C6_8  and  O3_9
REMARK    6  A    between atoms: C9_13  and  C10_14
REMARK    7  A    between atoms: C10_14  and  O5_16
REMARK    8  A    between atoms: C20_27  and  O7_28
ROOT
HETATM    1  C5  UNL     1      25.704  27.777  26.158  1.00  0.00     0.190 C
HETATM    2  C6  UNL     1      26.910  27.483  25.330  1.00  0.00     0.154 C
HETATM    3  C7  UNL     1      27.404  28.790  24.735  1.00  0.00     0.027 C
HETATM    4  C8  UNL     1      28.185  28.390  23.490  1.00  0.00     0.014 C
HETATM    5  C9  UNL     1      28.231  29.483  25.759  1.00  0.00     0.100 C
HETATM    6  C12 UNL     1      27.505  30.511  26.573  1.00  0.00    -0.024 C
HETATM    7  C13 UNL     1      28.404  30.798  27.782  1.00  0.00     0.016 C
HETATM    8  C14 UNL     1      27.235  31.787  25.859  1.00  0.00     0.018 C
HETATM    9  C15 UNL     1      25.871  32.389  26.104  1.00  0.00     0.079 C
HETATM   10  C16 UNL     1      25.417  32.203  27.496  1.00  0.00     0.131 C
HETATM   11  O6  UNL     1      24.800  33.032  28.116  1.00  0.00    -0.298 OA
HETATM   12  C17 UNL     1      25.742  30.897  28.199  1.00  0.00     0.058 C
HETATM   13  C18 UNL     1      24.481  30.516  28.909  1.00  0.00     0.018 C
HETATM   14  C19 UNL     1      26.170  29.976  27.096  1.00  0.00     0.037 C
HETATM   15  C20 UNL     1      26.180  28.531  27.413  1.00  0.00     0.155 C
ENDROOT
BRANCH   1  16
HETATM   16  O2  UNL     1      25.084  26.563  26.511  1.00  0.00    -0.311 OA
BRANCH  16  17
HETATM   17  C4  UNL     1      23.987  26.068  25.791  1.00  0.00     0.259 C
HETATM   18  O1  UNL     1      22.854  26.376  26.236  1.00  0.00    -0.265 OA
BRANCH  17  19
HETATM   19  C3  UNL     1      24.157  25.229  24.581  1.00  0.00     0.111 C
BRANCH  19  20
HETATM   20  C2  UNL     1      25.310  24.256  24.701  1.00  0.00     0.005 C
HETATM   21  C1  UNL     1      26.184  24.468  23.458  1.00  0.00     0.005 C
ENDBRANCH  19  20
ENDBRANCH  17  19
ENDBRANCH  16  17
ENDBRANCH   1  16
BRANCH   2  22
HETATM   22  O3  UNL     1      27.865  26.904  26.157  1.00  0.00    -0.392 OA
ATOM     23  H3  UNL     1      27.436  26.233  26.674  1.00  0.00     0.210 HD
ENDBRANCH   2  22
BRANCH  15  24
HETATM   24  O7  UNL     1      25.285  28.140  28.407  1.00  0.00    -0.392 OA
ATOM     25  H7  UNL     1      25.147  27.215  28.246  1.00  0.00     0.210 HD
ENDBRANCH  15  24
BRANCH   5  26
HETATM   26  C10 UNL     1      29.450  30.067  25.167  1.00  0.00     0.263 C
HETATM   27  O4  UNL     1      30.602  29.783  25.554  1.00  0.00    -0.265 OA
BRANCH  26  28
HETATM   28  O5  UNL     1      29.411  30.999  24.110  1.00  0.00    -0.326 OA
HETATM   29  C11 UNL     1      30.069  32.247  24.205  1.00  0.00     0.213 C
ENDBRANCH  26  28
ENDBRANCH   5  26
TORSDOF 8
ENDMDL