MODEL 5
REMARK VINA RESULT: -6.979333938      2.613      5.390
REMARK  7 active torsions:
REMARK  status: ('A' for Active; 'I' for Inactive)
REMARK    1  A    between atoms: C2_2  and  C3_3
REMARK    2  A    between atoms: C3_3  and  O1_4
REMARK    3  A    between atoms: C3_3  and  C4_6
REMARK    4  A    between atoms: C7_9  and  C8_10
REMARK    5  A    between atoms: C10_13  and  C11_14
REMARK    6  A    between atoms: C11_14  and  N1_15
REMARK    7  A    between atoms: C19_26  and  O6_27
ROOT
HETATM    1  C4  UNL     1      25.129  27.316  27.433  1.00  0.00     0.030 C
HETATM    2  C5  UNL     1      25.629  26.135  26.774  1.00  0.00     0.011 C
HETATM    3  C6  UNL     1      26.870  25.925  26.014  1.00  0.00     0.042 C
HETATM    4  C7  UNL     1      27.233  26.885  24.896  1.00  0.00     0.100 C
HETATM    5  O2  UNL     1      28.642  27.162  24.847  1.00  0.00    -0.370 OA
HETATM    6  C10 UNL     1      28.926  28.140  23.928  1.00  0.00     0.153 C
HETATM    7  C14 UNL     1      27.968  29.337  23.880  1.00  0.00     0.069 C
HETATM    8  C15 UNL     1      27.473  29.450  25.210  1.00  0.00     0.171 C
HETATM    9  O3  UNL     1      26.541  30.297  25.736  1.00  0.00    -0.344 OA
HETATM   10  C16 UNL     1      26.049  29.697  26.951  1.00  0.00     0.200 C
HETATM   11  C17 UNL     1      25.466  30.793  27.768  1.00  0.00     0.082 C
HETATM   12  O4  UNL     1      27.161  29.090  27.490  1.00  0.00    -0.199 OA
HETATM   13  O5  UNL     1      27.344  28.028  26.796  1.00  0.00    -0.218 OA
HETATM   14  C18 UNL     1      26.804  28.125  25.465  1.00  0.00     0.179 C
HETATM   15  C19 UNL     1      25.364  28.293  25.284  1.00  0.00     0.171 C
HETATM   16  C20 UNL     1      25.015  28.627  26.749  1.00  0.00     0.089 C
ENDROOT
BRANCH   1  17
HETATM   17  C3  UNL     1      23.787  26.990  28.066  1.00  0.00     0.144 C
BRANCH  17  18
HETATM   18  C2  UNL     1      23.038  28.027  28.698  1.00  0.00    -0.005 C
HETATM   19  C1  UNL     1      22.306  27.820  29.785  1.00  0.00     0.009 C
ENDBRANCH  17  18
BRANCH  17  20
HETATM   20  O1  UNL     1      22.978  26.441  27.034  1.00  0.00    -0.391 OA
ATOM     21  H1  UNL     1      23.171  25.512  26.980  1.00  0.00     0.210 HD
ENDBRANCH  17  20
ENDBRANCH   1  17
BRANCH  15  22
HETATM   22  O6  UNL     1      24.543  27.437  24.711  1.00  0.00    -0.392 OA
ATOM     23  H6  UNL     1      24.131  27.534  23.861  1.00  0.00     0.210 HD
ENDBRANCH  15  22
BRANCH   4  24
HETATM   24  C8  UNL     1      26.932  26.321  23.594  1.00  0.00     0.037 C
HETATM   25  C9  UNL     1      26.725  24.788  23.634  1.00  0.00     0.008 C
ENDBRANCH   4  24
BRANCH   6  26
HETATM   26  C11 UNL     1      30.297  28.700  24.332  1.00  0.00     0.303 C
BRANCH  26  27
HETATM   27  N1  UNL     1      30.151  30.020  24.917  1.00  0.00     0.082 N
HETATM   28  C12 UNL     1      30.505  30.052  26.318  1.00  0.00     0.309 C
HETATM   29  C13 UNL     1      30.958  30.965  24.173  1.00  0.00     0.309 C
ENDBRANCH  26  27
ENDBRANCH   6  26
TORSDOF 7
ENDMDL