MODEL 5
REMARK VINA RESULT: -6.079036944      5.575      9.971
REMARK  7 active torsions:
REMARK  status: ('A' for Active; 'I' for Inactive)
REMARK    1  A    between atoms: C2_2  and  C4_4
REMARK    2  A    between atoms: C4_4  and  C5_5
REMARK    3  A    between atoms: C7_7  and  O1_8
REMARK    4  A    between atoms: C9_11  and  O2_12
REMARK    5  A    between atoms: C12_16  and  C13_17
REMARK    6  A    between atoms: C13_17  and  O4_19
REMARK    7  A    between atoms: C16_22  and  C17_23
ROOT
HETATM    1  C5  UNL     1      20.522  22.267  28.922  1.00  0.00     0.001 C
HETATM    2  C6  UNL     1      21.610  21.419  28.195  1.00  0.00     0.019 C
HETATM    3  C7  UNL     1      20.017  21.387  29.994  1.00  0.00     0.130 C
HETATM    4  C8  UNL     1      20.146  21.748  31.419  1.00  0.00     0.065 C
HETATM    5  C9  UNL     1      20.570  23.096  31.824  1.00  0.00     0.130 C
HETATM    6  C10 UNL     1      20.512  24.071  30.709  1.00  0.00     0.010 C
HETATM    7  C11 UNL     1      19.054  24.386  30.479  1.00  0.00     0.020 C
HETATM    8  C12 UNL     1      21.151  25.381  31.071  1.00  0.00     0.098 C
HETATM    9  C15 UNL     1      20.725  26.450  30.076  1.00  0.00     0.035 C
HETATM   10  C16 UNL     1      21.152  25.997  28.717  1.00  0.00     0.126 C
HETATM   11  C19 UNL     1      21.496  24.576  28.565  1.00  0.00     0.148 C
HETATM   12  O6  UNL     1      22.096  24.345  27.513  1.00  0.00    -0.296 OA
HETATM   13  C20 UNL     1      21.208  23.495  29.499  1.00  0.00     0.038 C
HETATM   14  C21 UNL     1      22.580  22.981  29.930  1.00  0.00     0.025 C
ENDROOT
BRANCH   1  15
HETATM   15  C4  UNL     1      19.553  22.553  27.824  1.00  0.00     0.046 C
BRANCH  15  16
HETATM   16  C2  UNL     1      19.216  21.510  26.846  1.00  0.00    -0.092 C
HETATM   17  C1  UNL     1      19.575  21.746  25.562  1.00  0.00     0.014 C
HETATM   18  C3  UNL     1      18.525  20.229  27.020  1.00  0.00     0.042 C
ENDBRANCH  15  16
ENDBRANCH   1  15
BRANCH   3  19
HETATM   19  O1  UNL     1      20.513  20.048  29.871  1.00  0.00    -0.395 OA
ATOM     20  H1  UNL     1      21.240  19.880  30.460  1.00  0.00     0.210 HD
ENDBRANCH   3  19
BRANCH   5  21
HETATM   21  O2  UNL     1      21.779  23.128  32.528  1.00  0.00    -0.395 OA
ATOM     22  H2  UNL     1      21.761  23.670  33.308  1.00  0.00     0.210 HD
ENDBRANCH   5  21
BRANCH   8  23
HETATM   23  C13 UNL     1      20.883  25.860  32.426  1.00  0.00     0.263 C
HETATM   24  O3  UNL     1      21.847  25.988  33.282  1.00  0.00    -0.265 OA
BRANCH  23  25
HETATM   25  O4  UNL     1      19.660  26.227  32.968  1.00  0.00    -0.326 OA
HETATM   26  C14 UNL     1      19.069  25.659  34.105  1.00  0.00     0.213 C
ENDBRANCH  23  25
ENDBRANCH   8  23
BRANCH  10  27
HETATM   27  C17 UNL     1      22.220  26.892  28.161  1.00  0.00     0.134 C
HETATM   28  C18 UNL     1      23.213  27.559  29.021  1.00  0.00     0.091 C
HETATM   29  O5  UNL     1      22.248  27.056  26.964  1.00  0.00    -0.298 OA
ENDBRANCH  10  27
TORSDOF 7
ENDMDL