MODEL 4
REMARK VINA RESULT: -6.696800783      6.471     10.240
REMARK  8 active torsions:
REMARK  status: ('A' for Active; 'I' for Inactive)
REMARK    1  A    between atoms: C2_2  and  O2_4
REMARK    2  A    between atoms: O2_4  and  C3_5
REMARK    3  A    between atoms: C3_5  and  C4_6
REMARK    4  A    between atoms: C13_16  and  O4_18
REMARK    5  A    between atoms: C15_20  and  C16_21
REMARK    6  A    between atoms: C16_21  and  O5_22
REMARK    7  A    between atoms: C18_25  and  O6_26
REMARK    8  A    between atoms: O6_26  and  C19_27
ROOT
HETATM    1  C4  UNL     1      20.166  24.765  30.915  1.00  0.00     0.080 C
HETATM    2  C5  UNL     1      20.489  23.569  31.783  1.00  0.00     0.141 C
HETATM    3  O3  UNL     1      19.971  23.314  32.858  1.00  0.00    -0.297 OA
HETATM    4  C6  UNL     1      21.518  22.752  31.146  1.00  0.00     0.080 C
HETATM    5  C7  UNL     1      22.130  23.770  30.209  1.00  0.00     0.022 C
HETATM    6  C8  UNL     1      20.971  24.658  29.722  1.00  0.00     0.014 C
HETATM    7  C9  UNL     1      21.666  25.882  29.205  1.00  0.00     0.005 C
HETATM    8  C10 UNL     1      22.891  25.410  28.404  1.00  0.00     0.006 C
HETATM    9  C11 UNL     1      22.419  24.644  27.206  1.00  0.00     0.003 C
HETATM   10  C12 UNL     1      21.405  23.605  27.483  1.00  0.00     0.038 C
HETATM   11  C13 UNL     1      20.344  24.021  28.509  1.00  0.00     0.063 C
HETATM   12  C14 UNL     1      19.402  24.906  27.756  1.00  0.00     0.046 C
HETATM   13  C15 UNL     1      22.064  26.853  30.276  1.00  0.00     0.016 C
HETATM   14  C17 UNL     1      20.777  27.181  31.011  1.00  0.00     0.041 C
HETATM   15  C18 UNL     1      20.518  25.929  31.834  1.00  0.00     0.151 C
ENDROOT
BRANCH   1  16
HETATM   16  C3  UNL     1      18.675  24.762  30.828  1.00  0.00     0.199 C
BRANCH  16  17
HETATM   17  O2  UNL     1      18.109  25.756  31.709  1.00  0.00    -0.320 OA
BRANCH  17  18
HETATM   18  C2  UNL     1      17.213  25.442  32.684  1.00  0.00     0.254 C
HETATM   19  C1  UNL     1      16.796  26.459  33.694  1.00  0.00     0.126 C
HETATM   20  O1  UNL     1      16.745  24.277  32.717  1.00  0.00    -0.266 OA
ENDBRANCH  17  18
ENDBRANCH  16  17
ENDBRANCH   1  16
BRANCH  15  21
HETATM   21  O6  UNL     1      21.691  25.705  32.586  1.00  0.00    -0.315 OA
BRANCH  21  22
HETATM   22  C19 UNL     1      21.853  26.280  33.836  1.00  0.00     0.255 C
HETATM   23  C20 UNL     1      20.706  26.518  34.758  1.00  0.00     0.126 C
HETATM   24  O7  UNL     1      23.021  26.602  34.181  1.00  0.00    -0.266 OA
ENDBRANCH  21  22
ENDBRANCH  15  21
BRANCH  11  25
HETATM   25  O4  UNL     1      19.740  22.782  28.843  1.00  0.00    -0.389 OA
ATOM     26  H4  UNL     1      19.296  22.837  29.681  1.00  0.00     0.210 HD
ENDBRANCH  11  25
BRANCH  13  27
HETATM   27  C16 UNL     1      22.636  28.123  29.798  1.00  0.00     0.169 C
BRANCH  27  28
HETATM   28  O5  UNL     1      21.887  28.780  28.839  1.00  0.00    -0.400 OA
ATOM     29  H5  UNL     1      21.449  29.568  29.139  1.00  0.00     0.209 HD
ENDBRANCH  27  28
ENDBRANCH  13  27
TORSDOF 8
ENDMDL