MODEL 1
REMARK VINA RESULT: -7.382280822      0.000      0.000
REMARK  5 active torsions:
REMARK  status: ('A' for Active; 'I' for Inactive)
REMARK    1  A    between atoms: C2_2  and  C10_12
REMARK    2  A    between atoms: C10_12  and  C11_13
REMARK    3  A    between atoms: C10_12  and  N1_26
REMARK    4  A    between atoms: C17_20  and  O4_21
REMARK    5  A    between atoms: C17_20  and  C18_23
ROOT
HETATM    1  C10 UNL     1      22.010  26.429  27.972  1.00  0.00     0.191 C
ENDROOT
BRANCH   1   2
HETATM    2  C2  UNL     1      21.997  26.785  29.379  1.00  0.00    -0.023 C
HETATM    3  C1  UNL     1      22.073  28.241  29.719  1.00  0.00     0.048 C
HETATM    4  C3  UNL     1      21.906  25.970  30.394  1.00  0.00     0.074 C
HETATM    5  C4  UNL     1      21.890  26.552  31.789  1.00  0.00     0.232 C
HETATM    6  O2  UNL     1      21.822  24.596  30.233  1.00  0.00    -0.352 OA
HETATM    7  O1  UNL     1      20.583  26.356  32.261  1.00  0.00    -0.384 OA
HETATM    8  C5  UNL     1      20.351  25.089  32.718  1.00  0.00     0.179 C
HETATM    9  C6  UNL     1      19.906  24.124  31.646  1.00  0.00    -0.004 C
HETATM   10  C7  UNL     1      19.284  22.941  32.366  1.00  0.00     0.019 C
HETATM   11  C8  UNL     1      18.814  24.716  30.774  1.00  0.00     0.019 C
HETATM   12  C9  UNL     1      21.051  23.590  30.835  1.00  0.00     0.186 C
ENDBRANCH   1   2
BRANCH   1  13
HETATM   13  C11 UNL     1      23.446  26.200  27.468  1.00  0.00     0.026 A
HETATM   14  C12 UNL     1      23.556  25.083  26.492  1.00  0.00     0.008 A
HETATM   15  C13 UNL     1      24.232  25.621  25.256  1.00  0.00     0.011 A
HETATM   16  C14 UNL     1      24.402  27.098  25.438  1.00  0.00     0.066 A
HETATM   17  C15 UNL     1      23.912  27.455  26.812  1.00  0.00     0.026 A
HETATM   18  C17 UNL     1      25.845  27.537  25.468  1.00  0.00     0.257 C
HETATM   19  C16 UNL     1      25.106  28.087  27.503  1.00  0.00     0.177 C
HETATM   20  O3  UNL     1      25.943  28.492  26.477  1.00  0.00    -0.346 OA
BRANCH  18  21
HETATM   21  O4  UNL     1      26.141  28.131  24.247  1.00  0.00    -0.357 OA
ATOM     22  H4  UNL     1      26.769  28.828  24.401  1.00  0.00     0.213 HD
ENDBRANCH  18  21
BRANCH  18  23
HETATM   23  C18 UNL     1      26.787  26.461  25.765  1.00  0.00     0.239 C
HETATM   24  O5  UNL     1      27.204  26.246  26.928  1.00  0.00    -0.644 OA
HETATM   25  O6  UNL     1      27.245  25.644  24.748  1.00  0.00    -0.644 OA
ENDBRANCH  18  23
ENDBRANCH   1  13
BRANCH   1  26
HETATM   26  N1  UNL     1      21.239  25.312  27.545  1.00  0.00    -0.146 N
HETATM   27  O7  UNL     1      19.973  25.370  27.432  1.00  0.00    -0.536 OA
HETATM   28  O8  UNL     1      21.736  24.062  27.208  1.00  0.00    -0.536 OA
ENDBRANCH   1  26
TORSDOF 5
ENDMDL