MODEL 2
REMARK VINA RESULT: -6.341373027      7.059      9.960
REMARK  8 active torsions:
REMARK  status: ('A' for Active; 'I' for Inactive)
REMARK    1  A    between atoms: C11_11  and  O1_12
REMARK    2  A    between atoms: O1_12  and  C12_13
REMARK    3  A    between atoms: C15_17  and  O3_18
REMARK    4  A    between atoms: O3_18  and  C16_19
REMARK    5  A    between atoms: C16_19  and  C17_21
REMARK    6  A    between atoms: C20_24  and  O5_25
REMARK    7  A    between atoms: C20_24  and  C21_27
REMARK    8  A    between atoms: C21_27  and  O6_28
ROOT
HETATM    1  C1  UNL     1      21.457  27.255  29.535  1.00  0.00     0.017 C
HETATM    2  C2  UNL     1      21.222  26.336  30.463  1.00  0.00    -0.059 C
HETATM    3  C3  UNL     1      21.967  26.471  31.740  1.00  0.00     0.043 C
HETATM    4  C4  UNL     1      21.515  25.521  32.818  1.00  0.00     0.027 C
HETATM    5  C5  UNL     1      20.867  26.158  33.996  1.00  0.00     0.009 C
HETATM    6  C6  UNL     1      19.668  27.020  33.782  1.00  0.00     0.010 C
HETATM    7  C7  UNL     1      18.455  26.162  33.636  1.00  0.00     0.018 A
HETATM    8  C8  UNL     1      17.113  26.690  33.582  1.00  0.00    -0.025 A
HETATM    9  C9  UNL     1      16.947  26.475  32.296  1.00  0.00    -0.022 A
HETATM   10  C10 UNL     1      18.276  25.935  32.179  1.00  0.00     0.046 A
HETATM   11  C11 UNL     1      18.488  24.546  31.731  1.00  0.00     0.150 C
HETATM   12  C14 UNL     1      19.936  24.328  31.246  1.00  0.00     0.087 C
HETATM   13  C15 UNL     1      20.250  25.277  30.138  1.00  0.00     0.170 C
HETATM   14  C20 UNL     1      20.948  24.249  32.318  1.00  0.00     0.091 C
ENDROOT
BRANCH  13  15
HETATM   15  O3  UNL     1      20.748  24.598  28.974  1.00  0.00    -0.308 OA
BRANCH  15  16
HETATM   16  C16 UNL     1      19.963  24.393  27.858  1.00  0.00     0.283 C
HETATM   17  O4  UNL     1      19.208  25.318  27.473  1.00  0.00    -0.260 OA
BRANCH  16  18
HETATM   18  C17 UNL     1      19.973  23.150  27.115  1.00  0.00     0.078 C
HETATM   19  C18 UNL     1      19.605  22.029  27.698  1.00  0.00    -0.025 C
HETATM   20  C19 UNL     1      19.594  20.721  26.990  1.00  0.00     0.036 C
ENDBRANCH  16  18
ENDBRANCH  15  16
ENDBRANCH  13  15
BRANCH  11  21
HETATM   21  O1  UNL     1      18.140  23.572  32.666  1.00  0.00    -0.315 OA
BRANCH  21  22
HETATM   22  C12 UNL     1      16.903  22.948  32.665  1.00  0.00     0.255 C
HETATM   23  C13 UNL     1      15.982  22.968  33.826  1.00  0.00     0.126 C
HETATM   24  O2  UNL     1      16.589  22.342  31.593  1.00  0.00    -0.266 OA
ENDBRANCH  21  22
ENDBRANCH  11  21
BRANCH  14  25
HETATM   25  O5  UNL     1      20.404  23.536  33.403  1.00  0.00    -0.387 OA
ATOM     26  H5  UNL     1      20.595  22.612  33.289  1.00  0.00     0.210 HD
ENDBRANCH  14  25
BRANCH  14  27
HETATM   27  C21 UNL     1      22.072  23.329  31.838  1.00  0.00     0.202 C
BRANCH  27  28
HETATM   28  O6  UNL     1      22.798  22.735  32.833  1.00  0.00    -0.398 OA
ATOM     29  H6  UNL     1      23.741  22.774  32.721  1.00  0.00     0.209 HD
ENDBRANCH  27  28
ENDBRANCH  14  27
TORSDOF 8
ENDMDL