MODEL 1
REMARK VINA RESULT: -7.338715123      0.000      0.000
REMARK  19 active torsions:
REMARK  status: ('A' for Active; 'I' for Inactive)
REMARK    1  A    between atoms: C2_2  and  O2_4
REMARK    2  A    between atoms: O2_4  and  C3_5
REMARK    3  A    between atoms: C4_6  and  O3_7
REMARK    4  A    between atoms: O3_7  and  C5_8
REMARK    5  A    between atoms: C5_8  and  C6_10
REMARK    6  A    between atoms: C6_10  and  C7_11
REMARK    7  A    between atoms: C11_16  and  O5_17
REMARK    8  A    between atoms: C12_19  and  O6_20
REMARK    9  A    between atoms: C13_22  and  O7_23
REMARK   10  A    between atoms: C14_25  and  O8_26
REMARK   11  A    between atoms: O8_26  and  C15_27
REMARK   12  A    between atoms: C17_30  and  C18_31
REMARK   13  A    between atoms: C17_30  and  O11_34
REMARK   14  A    between atoms: C18_31  and  O10_32
REMARK   15  A    between atoms: O11_34  and  C19_35
REMARK   16  A    between atoms: C21_38  and  O13_39
REMARK   17  A    between atoms: C22_41  and  O14_42
REMARK   18  A    between atoms: C23_44  and  O15_45
REMARK   19  A    between atoms: C24_47  and  O16_48
ROOT
HETATM    1  C7  UNL     1      35.245  -7.012  12.861  1.00  0.00     0.050 C
HETATM    2  C8  UNL     1      35.272  -7.432  14.312  1.00  0.00     0.031 C
HETATM    3  C9  UNL     1      35.024  -8.255  12.024  1.00  0.00     0.031 C
HETATM    4  C10 UNL     1      34.117  -6.107  12.677  1.00  0.00     0.069 C
HETATM    5  N1  UNL     1      33.231  -5.379  12.545  1.00  0.00    -0.196 NA
ENDROOT
BRANCH   1   6
HETATM    6  C6  UNL     1      36.546  -6.373  12.439  1.00  0.00     0.135 C
BRANCH   6   7
HETATM    7  C5  UNL     1      37.043  -5.419  13.471  1.00  0.00     0.261 C
HETATM    8  O4  UNL     1      37.942  -5.751  14.283  1.00  0.00    -0.265 OA
BRANCH   7   9
HETATM    9  O3  UNL     1      36.525  -4.140  13.563  1.00  0.00    -0.310 OA
BRANCH   9  10
HETATM   10  C4  UNL     1      37.035  -3.148  12.698  1.00  0.00     0.195 C
HETATM   11  C3  UNL     1      37.825  -2.098  13.435  1.00  0.00     0.195 C
HETATM   12  C14 UNL     1      38.372  -1.127  12.411  1.00  0.00     0.188 C
HETATM   13  C13 UNL     1      37.172  -0.340  11.886  1.00  0.00     0.181 C
HETATM   14  C12 UNL     1      36.278  -1.346  11.173  1.00  0.00     0.180 C
HETATM   15  C11 UNL     1      35.809  -2.428  12.121  1.00  0.00     0.181 C
BRANCH  11  16
HETATM   16  O2  UNL     1      38.837  -2.643  14.254  1.00  0.00    -0.311 OA
BRANCH  16  17
HETATM   17  C2  UNL     1      38.917  -2.453  15.616  1.00  0.00     0.255 C
HETATM   18  C1  UNL     1      38.415  -1.233  16.300  1.00  0.00     0.126 C
HETATM   19  O1  UNL     1      39.448  -3.377  16.298  1.00  0.00    -0.266 OA
ENDBRANCH  16  17
ENDBRANCH  11  16
BRANCH  12  20
HETATM   20  O8  UNL     1      39.235  -0.263  13.094  1.00  0.00    -0.348 OA
BRANCH  20  21
HETATM   21  C15 UNL     1      38.979   1.074  12.797  1.00  0.00     0.292 C
HETATM   22  O9  UNL     1      39.974   1.605  12.001  1.00  0.00    -0.355 OA
HETATM   23  C16 UNL     1      40.193   2.904  12.363  1.00  0.00     0.214 C
HETATM   24  C17 UNL     1      39.290   3.280  13.490  1.00  0.00     0.137 C
HETATM   25  C24 UNL     1      38.895   1.922  14.035  1.00  0.00     0.212 C
BRANCH  24  26
HETATM   26  C18 UNL     1      40.007   4.027  14.594  1.00  0.00     0.207 C
BRANCH  26  27
HETATM   27  O10 UNL     1      39.912   3.344  15.784  1.00  0.00    -0.398 OA
ATOM     28  H10 UNL     1      40.775   3.166  16.139  1.00  0.00     0.209 HD
ENDBRANCH  26  27
ENDBRANCH  24  26
BRANCH  24  29
HETATM   29  O11 UNL     1      38.133   3.924  13.095  1.00  0.00    -0.340 OA
BRANCH  29  30
HETATM   30  C19 UNL     1      38.101   5.253  13.455  1.00  0.00     0.292 C
HETATM   31  O12 UNL     1      38.243   6.107  12.349  1.00  0.00    -0.356 OA
HETATM   32  C20 UNL     1      38.477   7.382  12.848  1.00  0.00     0.205 C
HETATM   33  C21 UNL     1      37.309   7.936  13.624  1.00  0.00     0.173 C
HETATM   34  C22 UNL     1      36.903   6.969  14.714  1.00  0.00     0.182 C
HETATM   35  C23 UNL     1      36.747   5.598  14.067  1.00  0.00     0.204 C
BRANCH  33  36
HETATM   36  O13 UNL     1      36.207   8.208  12.851  1.00  0.00    -0.391 OA
ATOM     37  H13 UNL     1      35.668   7.448  12.668  1.00  0.00     0.210 HD
ENDBRANCH  33  36
BRANCH  34  38
HETATM   38  O14 UNL     1      37.872   6.875  15.717  1.00  0.00    -0.390 OA
ATOM     39  H14 UNL     1      37.608   6.283  16.412  1.00  0.00     0.210 HD
ENDBRANCH  34  38
BRANCH  35  40
HETATM   40  O15 UNL     1      35.837   5.727  13.033  1.00  0.00    -0.388 OA
ATOM     41  H15 UNL     1      35.096   5.166  13.228  1.00  0.00     0.210 HD
ENDBRANCH  35  40
ENDBRANCH  29  30
ENDBRANCH  24  29
BRANCH  25  42
HETATM   42  O16 UNL     1      37.619   1.958  14.583  1.00  0.00    -0.387 OA
ATOM     43  H16 UNL     1      37.511   1.356  15.310  1.00  0.00     0.210 HD
ENDBRANCH  25  42
ENDBRANCH  20  21
ENDBRANCH  12  20
BRANCH  13  44
HETATM   44  O7  UNL     1      36.462   0.151  12.962  1.00  0.00    -0.390 OA
ATOM     45  H7  UNL     1      36.772   1.034  13.127  1.00  0.00     0.210 HD
ENDBRANCH  13  44
BRANCH  14  46
HETATM   46  O6  UNL     1      35.158  -0.649  10.735  1.00  0.00    -0.390 OA
ATOM     47  H6  UNL     1      35.106  -0.744   9.791  1.00  0.00     0.210 HD
ENDBRANCH  14  46
BRANCH  15  48
HETATM   48  O5  UNL     1      35.049  -3.326  11.374  1.00  0.00    -0.390 OA
ATOM     49  H5  UNL     1      34.214  -2.930  11.153  1.00  0.00     0.210 HD
ENDBRANCH  15  48
ENDBRANCH   9  10
ENDBRANCH   7   9
ENDBRANCH   6   7
ENDBRANCH   1   6
TORSDOF 19
ENDMDL