MODEL 5
REMARK VINA RESULT: -5.843342314      3.735      8.152
REMARK  18 active torsions:
REMARK  status: ('A' for Active; 'I' for Inactive)
REMARK    1  A    between atoms: O1_2  and  C2_3
REMARK    2  A    between atoms: C2_3  and  O2_4
REMARK    3  A    between atoms: O2_4  and  C3_5
REMARK    4  A    between atoms: C4_6  and  O3_7
REMARK    5  A    between atoms: C5_9  and  O4_10
REMARK    6  A    between atoms: C6_12  and  O5_13
REMARK    7  A    between atoms: O5_13  and  C7_14
REMARK    8  A    between atoms: C9_17  and  O7_18
REMARK    9  A    between atoms: C10_20  and  O8_21
REMARK   10  A    between atoms: C12_23  and  O9_24
REMARK   11  A    between atoms: O9_24  and  C13_25
REMARK   12  A    between atoms: C13_25  and  C14_27
REMARK   13  A    between atoms: C18_31  and  O11_32
REMARK   14  A    between atoms: O11_32  and  C19_33
REMARK   15  A    between atoms: C21_36  and  O13_37
REMARK   16  A    between atoms: C22_39  and  O14_40
REMARK   17  A    between atoms: C23_42  and  O15_43
REMARK   18  A    between atoms: C24_45  and  O16_46
ROOT
HETATM    1  C3  UNL     1      37.874   5.449  13.482  1.00  0.00     0.186 C
HETATM    2  C4  UNL     1      39.206   5.559  14.074  1.00  0.00     0.181 C
HETATM    3  C5  UNL     1      40.108   4.421  13.568  1.00  0.00     0.181 C
HETATM    4  C6  UNL     1      39.488   3.192  14.241  1.00  0.00     0.187 C
HETATM    5  C18 UNL     1      38.223   2.919  13.504  1.00  0.00     0.187 C
HETATM    6  C24 UNL     1      37.464   4.081  13.015  1.00  0.00     0.181 C
ENDROOT
BRANCH   4   7
HETATM    7  O5  UNL     1      40.380   2.155  14.207  1.00  0.00    -0.348 OA
BRANCH   7   8
HETATM    8  C7  UNL     1      40.691   1.802  15.515  1.00  0.00     0.292 C
HETATM    9  O6  UNL     1      40.119   2.836  16.302  1.00  0.00    -0.356 OA
HETATM   10  C8  UNL     1      40.570   2.799  17.604  1.00  0.00     0.205 C
HETATM   11  C9  UNL     1      39.950   1.550  18.238  1.00  0.00     0.173 C
HETATM   12  C10 UNL     1      40.487   0.372  17.463  1.00  0.00     0.185 C
HETATM   13  C12 UNL     1      40.098   0.534  15.999  1.00  0.00     0.218 C
BRANCH  11  14
HETATM   14  O7  UNL     1      40.323   1.526  19.563  1.00  0.00    -0.391 OA
ATOM     15  H7  UNL     1      40.397   0.615  19.824  1.00  0.00     0.210 HD
ENDBRANCH  11  14
BRANCH  12  16
HETATM   16  O8  UNL     1      41.853   0.310  17.650  1.00  0.00    -0.385 OA
HETATM   17  C11 UNL     1      42.263  -0.893  18.228  1.00  0.00     0.202 C
ENDBRANCH  12  16
BRANCH  13  18
HETATM   18  O9  UNL     1      40.476  -0.636  15.346  1.00  0.00    -0.308 OA
BRANCH  18  19
HETATM   19  C13 UNL     1      39.721  -1.779  15.501  1.00  0.00     0.267 C
HETATM   20  O10 UNL     1      38.478  -1.641  15.703  1.00  0.00    -0.264 OA
BRANCH  19  21
HETATM   21  C14 UNL     1      40.248  -3.161  15.454  1.00  0.00     0.037 C
HETATM   22  C15 UNL     1      41.655  -3.190  14.854  1.00  0.00     0.025 C
HETATM   23  C16 UNL     1      39.358  -3.987  14.573  1.00  0.00     0.025 C
HETATM   24  C17 UNL     1      40.376  -3.760  16.834  1.00  0.00     0.025 C
ENDBRANCH  19  21
ENDBRANCH  18  19
ENDBRANCH  13  18
ENDBRANCH   7   8
ENDBRANCH   4   7
BRANCH   3  25
HETATM   25  O4  UNL     1      39.936   4.371  12.189  1.00  0.00    -0.390 OA
ATOM     26  H4  UNL     1      40.722   3.970  11.837  1.00  0.00     0.210 HD
ENDBRANCH   3  25
BRANCH   5  27
HETATM   27  O11 UNL     1      38.527   2.047  12.447  1.00  0.00    -0.348 OA
BRANCH  27  28
HETATM   28  C19 UNL     1      37.777   0.892  12.437  1.00  0.00     0.291 C
HETATM   29  O12 UNL     1      38.413  -0.226  11.972  1.00  0.00    -0.356 OA
HETATM   30  C20 UNL     1      37.750  -1.350  12.359  1.00  0.00     0.205 C
HETATM   31  C21 UNL     1      36.292  -1.252  12.568  1.00  0.00     0.173 C
HETATM   32  C22 UNL     1      35.603  -0.071  12.016  1.00  0.00     0.182 C
HETATM   33  C23 UNL     1      36.523   1.041  11.569  1.00  0.00     0.204 C
BRANCH  31  34
HETATM   34  O13 UNL     1      36.058  -1.284  13.963  1.00  0.00    -0.391 OA
ATOM     35  H13 UNL     1      35.117  -1.291  14.096  1.00  0.00     0.210 HD
ENDBRANCH  31  34
BRANCH  32  36
HETATM   36  O14 UNL     1      34.774  -0.447  10.930  1.00  0.00    -0.390 OA
ATOM     37  H14 UNL     1      34.632   0.293  10.351  1.00  0.00     0.210 HD
ENDBRANCH  32  36
BRANCH  33  38
HETATM   38  O15 UNL     1      36.894   0.772  10.265  1.00  0.00    -0.388 OA
ATOM     39  H15 UNL     1      36.437   1.392   9.709  1.00  0.00     0.210 HD
ENDBRANCH  33  38
ENDBRANCH  27  28
ENDBRANCH   5  27
BRANCH   2  40
HETATM   40  O3  UNL     1      39.217   5.521  15.471  1.00  0.00    -0.390 OA
ATOM     41  H3  UNL     1      39.455   4.677  15.836  1.00  0.00     0.210 HD
ENDBRANCH   2  40
BRANCH   6  42
HETATM   42  O16 UNL     1      36.090   3.865  13.272  1.00  0.00    -0.390 OA
ATOM     43  H16 UNL     1      35.950   2.983  13.596  1.00  0.00     0.210 HD
ENDBRANCH   6  42
BRANCH   1  44
HETATM   44  O2  UNL     1      36.897   5.863  14.384  1.00  0.00    -0.356 OA
BRANCH  44  45
HETATM   45  C2  UNL     1      36.177   6.959  14.010  1.00  0.00     0.337 C
BRANCH  45  46
HETATM   46  O1  UNL     1      35.228   6.825  13.044  1.00  0.00    -0.372 OA
HETATM   47  C1  UNL     1      34.639   7.977  12.610  1.00  0.00     0.204 C
ENDBRANCH  45  46
ENDBRANCH  44  45
ENDBRANCH   1  44
TORSDOF 18
ENDMDL