MODEL 3
REMARK VINA RESULT: -6.652951160      1.583      4.172
REMARK  16 active torsions:
REMARK  status: ('A' for Active; 'I' for Inactive)
REMARK    1  A    between atoms: C3_4  and  O2_5
REMARK    2  A    between atoms: O2_5  and  C4_6
REMARK    3  A    between atoms: C5_7  and  O3_8
REMARK    4  A    between atoms: O3_8  and  C6_9
REMARK    5  A    between atoms: C8_13  and  O6_14
REMARK    6  A    between atoms: O6_14  and  C9_15
REMARK    7  A    between atoms: C10_16  and  O7_17
REMARK    8  A    between atoms: C11_19  and  O8_20
REMARK    9  A    between atoms: C12_22  and  O9_23
REMARK   10  A    between atoms: C14_27  and  O11_28
REMARK   11  A    between atoms: O11_28  and  C15_29
REMARK   12  A    between atoms: C19_35  and  O14_36
REMARK   13  A    between atoms: C20_38  and  O15_39
REMARK   14  A    between atoms: C21_41  and  O16_42
REMARK   15  A    between atoms: C22_44  and  O17_45
REMARK   16  A    between atoms: C23_47  and  O18_48
ROOT
HETATM    1  C4  UNL     1      41.453   4.834  10.871  1.00  0.00     0.211 C
HETATM    2  C5  UNL     1      40.966   4.466  12.284  1.00  0.00     0.295 C
HETATM    3  O13 UNL     1      41.966   4.376  13.202  1.00  0.00    -0.351 OA
HETATM    4  C17 UNL     1      42.890   3.418  12.866  1.00  0.00     0.152 C
HETATM    5  C18 UNL     1      42.272   2.044  13.065  1.00  0.00     0.042 C
HETATM    6  C19 UNL     1      43.477   3.584  11.489  1.00  0.00     0.178 C
HETATM    7  C20 UNL     1      42.377   3.702  10.462  1.00  0.00     0.183 C
ENDROOT
BRANCH   2   8
HETATM    8  O3  UNL     1      40.037   3.465  12.260  1.00  0.00    -0.324 OA
BRANCH   8   9
HETATM    9  C6  UNL     1      39.105   3.487  13.260  1.00  0.00     0.320 C
HETATM   10  O4  UNL     1      38.801   4.771  13.711  1.00  0.00    -0.332 OA
HETATM   11  C7  UNL     1      37.960   5.245  12.714  1.00  0.00     0.344 C
HETATM   12  O5  UNL     1      37.320   4.174  12.118  1.00  0.00    -0.332 OA
HETATM   13  C8  UNL     1      37.720   3.032  12.856  1.00  0.00     0.318 C
BRANCH  13  14
HETATM   14  O6  UNL     1      37.678   1.962  12.007  1.00  0.00    -0.348 OA
BRANCH  14  15
HETATM   15  C9  UNL     1      37.491   0.781  12.708  1.00  0.00     0.167 C
HETATM   16  C10 UNL     1      36.344  -0.006  12.109  1.00  0.00     0.179 C
HETATM   17  C11 UNL     1      35.991  -1.166  12.968  1.00  0.00     0.180 C
HETATM   18  C12 UNL     1      37.110  -1.685  13.822  1.00  0.00     0.179 C
HETATM   19  C13 UNL     1      38.469  -1.461  13.227  1.00  0.00     0.167 C
HETATM   20  O10 UNL     1      38.653  -1.886  11.939  1.00  0.00    -0.352 OA
HETATM   21  C16 UNL     1      38.732  -0.019  12.882  1.00  0.00     0.105 C
HETATM   22  C14 UNL     1      39.297  -0.676  11.662  1.00  0.00     0.278 C
BRANCH  16  23
HETATM   23  O7  UNL     1      36.540  -0.310  10.769  1.00  0.00    -0.390 OA
ATOM     24  H7  UNL     1      36.082  -1.098  10.498  1.00  0.00     0.210 HD
ENDBRANCH  16  23
BRANCH  17  25
HETATM   25  O8  UNL     1      35.444  -2.173  12.145  1.00  0.00    -0.390 OA
ATOM     26  H8  UNL     1      34.499  -2.152  12.239  1.00  0.00     0.210 HD
ENDBRANCH  17  25
BRANCH  18  27
HETATM   27  O9  UNL     1      37.104  -1.147  15.108  1.00  0.00    -0.390 OA
ATOM     28  H9  UNL     1      37.289  -0.216  15.119  1.00  0.00     0.210 HD
ENDBRANCH  18  27
BRANCH  22  29
HETATM   29  O11 UNL     1      40.708  -0.749  11.752  1.00  0.00    -0.296 OA
BRANCH  29  30
HETATM   30  C15 UNL     1      41.517  -0.625  10.641  1.00  0.00     0.400 C
HETATM   31  O12 UNL     1      41.854  -1.702  10.070  1.00  0.00    -0.276 OA
ENDBRANCH  29  30
ENDBRANCH  22  29
ENDBRANCH  14  15
ENDBRANCH  13  14
ENDBRANCH   8   9
ENDBRANCH   2   8
BRANCH   1  32
HETATM   32  O2  UNL     1      42.219   5.981  10.900  1.00  0.00    -0.346 OA
BRANCH  32  33
HETATM   33  C3  UNL     1      41.830   6.974  10.035  1.00  0.00     0.292 C
HETATM   34  O1  UNL     1      41.560   6.444   8.761  1.00  0.00    -0.351 OA
HETATM   35  C2  UNL     1      41.027   7.381   7.905  1.00  0.00     0.152 C
HETATM   36  C1  UNL     1      40.485   6.665   6.689  1.00  0.00     0.042 C
HETATM   37  C23 UNL     1      42.099   8.385   7.541  1.00  0.00     0.178 C
HETATM   38  C22 UNL     1      43.311   8.244   8.432  1.00  0.00     0.183 C
HETATM   39  C21 UNL     1      42.949   7.977   9.862  1.00  0.00     0.204 C
BRANCH  37  40
HETATM   40  O18 UNL     1      42.508   8.090   6.238  1.00  0.00    -0.390 OA
ATOM     41  H18 UNL     1      43.389   7.741   6.296  1.00  0.00     0.210 HD
ENDBRANCH  37  40
BRANCH  38  42
HETATM   42  O17 UNL     1      44.018   9.445   8.366  1.00  0.00    -0.390 OA
ATOM     43  H17 UNL     1      44.179   9.654   7.453  1.00  0.00     0.210 HD
ENDBRANCH  38  42
BRANCH  39  44
HETATM   44  O16 UNL     1      44.126   7.519  10.500  1.00  0.00    -0.388 OA
ATOM     45  H16 UNL     1      44.786   7.289   9.856  1.00  0.00     0.210 HD
ENDBRANCH  39  44
ENDBRANCH  32  33
ENDBRANCH   1  32
BRANCH   7  46
HETATM   46  O15 UNL     1      42.904   3.909   9.188  1.00  0.00    -0.390 OA
ATOM     47  H15 UNL     1      42.784   3.146   8.634  1.00  0.00     0.210 HD
ENDBRANCH   7  46
BRANCH   6  48
HETATM   48  O14 UNL     1      44.246   2.447  11.237  1.00  0.00    -0.390 OA
ATOM     49  H14 UNL     1      45.118   2.749  11.009  1.00  0.00     0.210 HD
ENDBRANCH   6  48
TORSDOF 16
ENDMDL