MODEL 4
REMARK VINA RESULT: -7.623561725      4.757     11.843
REMARK  17 active torsions:
REMARK  status: ('A' for Active; 'I' for Inactive)
REMARK    1  A    between atoms: C2_2  and  O2_4
REMARK    2  A    between atoms: O2_4  and  C3_5
REMARK    3  A    between atoms: C4_7  and  C5_8
REMARK    4  A    between atoms: C5_8  and  O4_9
REMARK    5  A    between atoms: O4_9  and  C6_10
REMARK    6  A    between atoms: C7_11  and  O5_12
REMARK    7  A    between atoms: C8_14  and  O6_15
REMARK    8  A    between atoms: C9_17  and  O7_18
REMARK    9  A    between atoms: O7_18  and  C10_19
REMARK   10  A    between atoms: C15_26  and  O10_27
REMARK   11  A    between atoms: C16_29  and  O11_30
REMARK   12  A    between atoms: C17_32  and  O12_33
REMARK   13  A    between atoms: C18_35  and  O13_36
REMARK   14  A    between atoms: O13_36  and  C19_37
REMARK   15  A    between atoms: C22_41  and  O15_42
REMARK   16  A    between atoms: C23_44  and  O16_45
REMARK   17  A    between atoms: C24_47  and  O17_48
ROOT
HETATM    1  C3  UNL     1      39.719   3.292  13.304  1.00  0.00     0.301 C
HETATM    2  O3  UNL     1      39.400   2.009  12.966  1.00  0.00    -0.348 OA
HETATM    3  C4  UNL     1      38.026   1.840  13.053  1.00  0.00     0.180 C
HETATM    4  C17 UNL     1      37.421   3.222  12.879  1.00  0.00     0.183 C
HETATM    5  C18 UNL     1      38.467   4.067  13.575  1.00  0.00     0.211 C
ENDROOT
BRANCH   3   6
HETATM    6  C5  UNL     1      37.480   1.007  11.920  1.00  0.00     0.203 C
BRANCH   6   7
HETATM    7  O4  UNL     1      37.629  -0.302  12.201  1.00  0.00    -0.378 OA
BRANCH   7   8
HETATM    8  C6  UNL     1      36.516  -1.081  12.374  1.00  0.00     0.184 C
HETATM    9  C7  UNL     1      36.439  -1.757  13.704  1.00  0.00     0.181 C
HETATM   10  C8  UNL     1      35.411  -2.850  13.450  1.00  0.00     0.181 C
HETATM   11  C9  UNL     1      35.828  -3.346  12.054  1.00  0.00     0.184 C
HETATM   12  C16 UNL     1      36.318  -2.129  11.342  1.00  0.00     0.181 C
BRANCH   9  13
HETATM   13  O5  UNL     1      37.602  -2.367  14.112  1.00  0.00    -0.390 OA
ATOM     14  H5  UNL     1      37.483  -3.194  14.561  1.00  0.00     0.210 HD
ENDBRANCH   9  13
BRANCH  10  15
HETATM   15  O6  UNL     1      35.462  -3.862  14.376  1.00  0.00    -0.390 OA
ATOM     16  H6  UNL     1      35.211  -4.706  14.019  1.00  0.00     0.210 HD
ENDBRANCH  10  15
BRANCH  11  17
HETATM   17  O7  UNL     1      34.774  -3.999  11.480  1.00  0.00    -0.367 OA
BRANCH  17  18
HETATM   18  C10 UNL     1      35.026  -5.312  11.202  1.00  0.00     0.211 C
HETATM   19  C11 UNL     1      36.269  -5.865  11.905  1.00  0.00     0.206 C
HETATM   20  O8  UNL     1      36.096  -7.232  11.888  1.00  0.00    -0.375 OA
HETATM   21  C12 UNL     1      34.772  -7.546  11.762  1.00  0.00     0.215 C
HETATM   22  C13 UNL     1      33.975  -7.725  13.021  1.00  0.00     0.155 C
HETATM   23  C15 UNL     1      33.991  -6.248  11.782  1.00  0.00     0.220 C
HETATM   24  C14 UNL     1      34.688  -8.516  14.087  1.00  0.00     0.042 C
HETATM   25  O9  UNL     1      33.996  -6.342  13.172  1.00  0.00    -0.343 OA
BRANCH  23  26
HETATM   26  O10 UNL     1      32.775  -6.282  11.161  1.00  0.00    -0.361 OA
ATOM     27  H10 UNL     1      32.067  -5.806  11.579  1.00  0.00     0.213 HD
ENDBRANCH  23  26
ENDBRANCH  17  18
ENDBRANCH  11  17
BRANCH  12  28
HETATM   28  O11 UNL     1      35.418  -1.664  10.384  1.00  0.00    -0.390 OA
ATOM     29  H11 UNL     1      35.642  -2.035   9.539  1.00  0.00     0.210 HD
ENDBRANCH  12  28
ENDBRANCH   7   8
ENDBRANCH   6   7
ENDBRANCH   3   6
BRANCH   4  30
HETATM   30  O12 UNL     1      36.195   3.271  13.508  1.00  0.00    -0.390 OA
ATOM     31  H12 UNL     1      35.685   3.990  13.153  1.00  0.00     0.210 HD
ENDBRANCH   4  30
BRANCH   1  32
HETATM   32  O2  UNL     1      40.660   3.387  14.354  1.00  0.00    -0.287 OA
BRANCH  32  33
HETATM   33  C2  UNL     1      40.311   3.419  15.690  1.00  0.00     0.257 C
HETATM   34  C1  UNL     1      40.463   4.698  16.461  1.00  0.00     0.126 C
HETATM   35  O1  UNL     1      39.875   2.363  16.208  1.00  0.00    -0.266 OA
ENDBRANCH  32  33
ENDBRANCH   1  32
BRANCH   5  36
HETATM   36  O13 UNL     1      38.539   5.348  13.037  1.00  0.00    -0.346 OA
BRANCH  36  37
HETATM   37  C19 UNL     1      38.178   6.351  13.934  1.00  0.00     0.292 C
HETATM   38  O14 UNL     1      36.944   6.818  13.547  1.00  0.00    -0.351 OA
HETATM   39  C20 UNL     1      36.838   8.177  13.443  1.00  0.00     0.152 C
HETATM   40  C21 UNL     1      35.390   8.552  13.232  1.00  0.00     0.042 C
HETATM   41  C22 UNL     1      37.306   8.824  14.735  1.00  0.00     0.178 C
HETATM   42  C23 UNL     1      38.790   8.584  14.814  1.00  0.00     0.183 C
HETATM   43  C24 UNL     1      39.249   7.396  14.039  1.00  0.00     0.204 C
BRANCH  41  44
HETATM   44  O15 UNL     1      36.676   8.221  15.819  1.00  0.00    -0.390 OA
ATOM     45  H15 UNL     1      36.467   8.877  16.475  1.00  0.00     0.210 HD
ENDBRANCH  41  44
BRANCH  42  46
HETATM   46  O16 UNL     1      39.487   9.726  14.355  1.00  0.00    -0.390 OA
ATOM     47  H16 UNL     1      39.779  10.246  15.094  1.00  0.00     0.210 HD
ENDBRANCH  42  46
BRANCH  43  48
HETATM   48  O17 UNL     1      39.772   7.742  12.785  1.00  0.00    -0.388 OA
ATOM     49  H17 UNL     1      40.197   8.592  12.797  1.00  0.00     0.210 HD
ENDBRANCH  43  48
ENDBRANCH  36  37
ENDBRANCH   5  36
TORSDOF 17
ENDMDL