MODEL 2
REMARK VINA RESULT: -7.669473931      1.931      4.306
REMARK  16 active torsions:
REMARK  status: ('A' for Active; 'I' for Inactive)
REMARK    1  A    between atoms: O1_2  and  C2_3
REMARK    2  A    between atoms: C3_4  and  O2_5
REMARK    3  A    between atoms: O2_5  and  C4_6
REMARK    4  A    between atoms: C6_9  and  O4_10
REMARK    5  A    between atoms: O4_10  and  C7_11
REMARK    6  A    between atoms: C7_11  and  C8_12
REMARK    7  A    between atoms: C9_14  and  O6_15
REMARK    8  A    between atoms: O6_15  and  C10_16
REMARK    9  A    between atoms: C15_23  and  O9_24
REMARK   10  A    between atoms: C16_26  and  O10_27
REMARK   11  A    between atoms: C17_29  and  O11_30
REMARK   12  A    between atoms: C18_32  and  O12_33
REMARK   13  A    between atoms: C19_35  and  O13_36
REMARK   14  A    between atoms: C20_38  and  O14_39
REMARK   15  A    between atoms: C23_44  and  O16_45
REMARK   16  A    between atoms: C24_47  and  O17_48
ROOT
HETATM    1  O4  UNL     1      40.279   1.588  13.784  1.00  0.00    -0.378 OA
ENDROOT
BRANCH   1   2
HETATM    2  C6  UNL     1      40.770   0.812  14.770  1.00  0.00     0.176 C
HETATM    3  C5  UNL     1      41.128  -0.592  14.340  1.00  0.00     0.205 C
HETATM    4  O3  UNL     1      40.378  -1.487  15.089  1.00  0.00    -0.356 OA
HETATM    5  C4  UNL     1      39.007  -1.322  14.927  1.00  0.00     0.294 C
HETATM    6  C20 UNL     1      38.568  -0.021  15.611  1.00  0.00     0.204 C
HETATM    7  C19 UNL     1      39.849   0.699  15.976  1.00  0.00     0.182 C
BRANCH   5   8
HETATM    8  O2  UNL     1      38.730  -1.286  13.565  1.00  0.00    -0.326 OA
BRANCH   8   9
HETATM    9  C3  UNL     1      37.360  -1.453  13.396  1.00  0.00     0.295 C
HETATM   10  C2  UNL     1      36.866  -0.800  12.135  1.00  0.00     0.207 C
HETATM   11  C24 UNL     1      35.981  -1.669  11.303  1.00  0.00     0.183 C
HETATM   12  C23 UNL     1      35.170  -2.656  12.087  1.00  0.00     0.178 C
HETATM   13  C21 UNL     1      35.784  -3.040  13.397  1.00  0.00     0.152 C
HETATM   14  O15 UNL     1      37.160  -2.850  13.290  1.00  0.00    -0.351 OA
HETATM   15  C22 UNL     1      35.488  -4.491  13.754  1.00  0.00     0.042 C
BRANCH  10  16
HETATM   16  O1  UNL     1      36.222   0.403  12.350  1.00  0.00    -0.383 OA
HETATM   17  C1  UNL     1      37.033   1.507  12.245  1.00  0.00     0.202 C
ENDBRANCH  10  16
BRANCH  11  18
HETATM   18  O17 UNL     1      35.059  -0.856  10.603  1.00  0.00    -0.390 OA
ATOM     19  H17 UNL     1      34.543  -1.401  10.020  1.00  0.00     0.210 HD
ENDBRANCH  11  18
BRANCH  12  20
HETATM   20  O16 UNL     1      35.067  -3.832  11.318  1.00  0.00    -0.390 OA
ATOM     21  H16 UNL     1      35.328  -3.610  10.432  1.00  0.00     0.210 HD
ENDBRANCH  12  20
ENDBRANCH   8   9
ENDBRANCH   5   8
BRANCH   6  22
HETATM   22  O14 UNL     1      37.853  -0.280  16.767  1.00  0.00    -0.388 OA
ATOM     23  H14 UNL     1      37.938   0.432  17.391  1.00  0.00     0.210 HD
ENDBRANCH   6  22
BRANCH   7  24
HETATM   24  O13 UNL     1      39.629   1.913  16.593  1.00  0.00    -0.390 OA
ATOM     25  H13 UNL     1      40.002   1.954  17.466  1.00  0.00     0.210 HD
ENDBRANCH   7  24
ENDBRANCH   1   2
BRANCH   1  26
HETATM   26  C7  UNL     1      41.076   2.286  12.960  1.00  0.00     0.203 C
BRANCH  26  27
HETATM   27  C8  UNL     1      40.659   3.715  12.776  1.00  0.00     0.179 C
HETATM   28  O5  UNL     1      40.508   4.163  11.503  1.00  0.00    -0.348 OA
HETATM   29  C9  UNL     1      40.713   5.545  11.443  1.00  0.00     0.292 C
HETATM   30  C16 UNL     1      40.097   6.265  12.600  1.00  0.00     0.204 C
HETATM   31  C17 UNL     1      38.949   5.416  13.103  1.00  0.00     0.183 C
HETATM   32  C18 UNL     1      39.410   4.052  13.565  1.00  0.00     0.180 C
BRANCH  29  33
HETATM   33  O6  UNL     1      40.071   5.976  10.283  1.00  0.00    -0.349 OA
BRANCH  33  34
HETATM   34  C10 UNL     1      40.937   6.225   9.246  1.00  0.00     0.177 C
HETATM   35  C11 UNL     1      40.092   6.234   7.964  1.00  0.00     0.206 C
HETATM   36  O7  UNL     1      40.833   6.615   6.863  1.00  0.00    -0.350 OA
HETATM   37  C12 UNL     1      41.263   7.917   6.955  1.00  0.00     0.188 A
HETATM   38  C13 UNL     1      40.534   9.074   6.528  1.00  0.00     0.240 A
HETATM   39  O8  UNL     1      41.618   8.598   5.781  1.00  0.00    -0.348 OA
HETATM   40  C14 UNL     1      42.227   8.046   8.102  1.00  0.00     0.105 C
HETATM   41  C15 UNL     1      41.592   7.578   9.396  1.00  0.00     0.154 C
BRANCH  41  42
HETATM   42  O9  UNL     1      40.665   8.536   9.770  1.00  0.00    -0.393 OA
ATOM     43  H9  UNL     1      40.432   9.087   9.032  1.00  0.00     0.210 HD
ENDBRANCH  41  42
ENDBRANCH  33  34
ENDBRANCH  29  33
BRANCH  30  44
HETATM   44  O10 UNL     1      39.566   7.465  12.134  1.00  0.00    -0.388 OA
ATOM     45  H10 UNL     1      38.813   7.686  12.670  1.00  0.00     0.210 HD
ENDBRANCH  30  44
BRANCH  31  46
HETATM   46  O11 UNL     1      38.108   5.191  11.998  1.00  0.00    -0.390 OA
ATOM     47  H11 UNL     1      38.445   4.420  11.557  1.00  0.00     0.210 HD
ENDBRANCH  31  46
BRANCH  32  48
HETATM   48  O12 UNL     1      39.715   4.173  14.923  1.00  0.00    -0.390 OA
ATOM     49  H12 UNL     1      39.991   3.334  15.274  1.00  0.00     0.210 HD
ENDBRANCH  32  48
ENDBRANCH  26  27
ENDBRANCH   1  26
TORSDOF 16
ENDMDL