MODEL 3
REMARK VINA RESULT: -7.236722925      1.535      2.352
REMARK  16 active torsions:
REMARK  status: ('A' for Active; 'I' for Inactive)
REMARK    1  A    between atoms: O1_2  and  C2_3
REMARK    2  A    between atoms: C3_6  and  O2_7
REMARK    3  A    between atoms: C5_9  and  O3_10
REMARK    4  A    between atoms: O3_10  and  C6_11
REMARK    5  A    between atoms: C8_15  and  O6_16
REMARK    6  A    between atoms: O6_16  and  C9_17
REMARK    7  A    between atoms: C10_18  and  O7_19
REMARK    8  A    between atoms: C11_21  and  O8_22
REMARK    9  A    between atoms: C12_24  and  O9_25
REMARK   10  A    between atoms: C13_27  and  O10_28
REMARK   11  A    between atoms: O10_28  and  C14_29
REMARK   12  A    between atoms: C17_33  and  O12_34
REMARK   13  A    between atoms: C18_36  and  O13_37
REMARK   14  A    between atoms: C19_39  and  O14_40
REMARK   15  A    between atoms: C20_42  and  O15_43
REMARK   16  A    between atoms: C21_45  and  O16_46
ROOT
HETATM    1  C9  UNL     1      41.570   6.082  10.465  1.00  0.00     0.187 C
HETATM    2  C10 UNL     1      41.911   5.219   9.296  1.00  0.00     0.181 C
HETATM    3  C11 UNL     1      42.027   5.933   7.989  1.00  0.00     0.180 C
HETATM    4  C12 UNL     1      43.058   7.028   8.180  1.00  0.00     0.181 C
HETATM    5  C13 UNL     1      42.433   8.025   9.113  1.00  0.00     0.187 C
HETATM    6  C20 UNL     1      42.181   7.437  10.475  1.00  0.00     0.181 C
ENDROOT
BRANCH   1   7
HETATM    7  O6  UNL     1      41.865   5.365  11.627  1.00  0.00    -0.348 OA
BRANCH   7   8
HETATM    8  C8  UNL     1      40.752   4.884  12.261  1.00  0.00     0.296 C
HETATM    9  O5  UNL     1      39.545   5.327  11.722  1.00  0.00    -0.334 OA
HETATM   10  C7  UNL     1      38.488   5.131  12.608  1.00  0.00     0.344 C
HETATM   11  O4  UNL     1      38.820   4.246  13.602  1.00  0.00    -0.334 OA
HETATM   12  C6  UNL     1      39.370   3.049  13.086  1.00  0.00     0.299 C
HETATM   13  C21 UNL     1      40.678   3.380  12.363  1.00  0.00     0.228 C
BRANCH  12  14
HETATM   14  O3  UNL     1      38.415   2.510  12.260  1.00  0.00    -0.324 OA
BRANCH  14  15
HETATM   15  C5  UNL     1      38.173   1.177  12.460  1.00  0.00     0.312 C
HETATM   16  C3  UNL     1      36.733   0.762  12.355  1.00  0.00     0.277 C
HETATM   17  N1  UNL     1      36.539  -0.507  13.060  1.00  0.00    -0.342 N
HETATM   18  C2  UNL     1      37.467  -1.128  13.684  1.00  0.00     0.144 C
ATOM     19  H1  UNL     1      35.607  -0.920  13.055  1.00  0.00     0.164 HD
HETATM   20  C22 UNL     1      38.815  -0.552  13.707  1.00  0.00     0.195 C
HETATM   21  O17 UNL     1      38.694   0.844  13.717  1.00  0.00    -0.344 OA
HETATM   22  C23 UNL     1      39.547  -0.963  14.944  1.00  0.00     0.048 C
BRANCH  16  23
HETATM   23  O2  UNL     1      36.360   0.523  11.035  1.00  0.00    -0.366 OA
HETATM   24  C4  UNL     1      35.365  -0.440  11.019  1.00  0.00     0.204 C
ENDBRANCH  16  23
BRANCH  18  25
HETATM   25  O1  UNL     1      37.124  -2.320  14.303  1.00  0.00    -0.342 OA
HETATM   26  C1  UNL     1      36.313  -3.298  13.649  1.00  0.00     0.211 C
ENDBRANCH  18  25
ENDBRANCH  14  15
ENDBRANCH  12  14
BRANCH  13  27
HETATM   27  O16 UNL     1      41.718   2.942  13.182  1.00  0.00    -0.386 OA
ATOM     28  H16 UNL     1      41.998   2.099  12.848  1.00  0.00     0.210 HD
ENDBRANCH  13  27
ENDBRANCH   7   8
ENDBRANCH   1   7
BRANCH   2  29
HETATM   29  O7  UNL     1      43.102   4.518   9.488  1.00  0.00    -0.390 OA
ATOM     30  H7  UNL     1      42.951   3.632   9.793  1.00  0.00     0.210 HD
ENDBRANCH   2  29
BRANCH   6  31
HETATM   31  O15 UNL     1      43.417   7.365  11.123  1.00  0.00    -0.390 OA
ATOM     32  H15 UNL     1      43.422   7.989  11.839  1.00  0.00     0.210 HD
ENDBRANCH   6  31
BRANCH   3  33
HETATM   33  O8  UNL     1      40.839   6.376   7.469  1.00  0.00    -0.390 OA
ATOM     34  H8  UNL     1      40.085   6.247   8.033  1.00  0.00     0.210 HD
ENDBRANCH   3  33
BRANCH   5  35
HETATM   35  O10 UNL     1      41.234   8.447   8.572  1.00  0.00    -0.348 OA
BRANCH  35  36
HETATM   36  C14 UNL     1      41.313   9.697   7.937  1.00  0.00     0.292 C
HETATM   37  O11 UNL     1      40.888  10.614   8.874  1.00  0.00    -0.351 OA
HETATM   38  C15 UNL     1      40.509  11.837   8.425  1.00  0.00     0.152 C
HETATM   39  C16 UNL     1      41.067  12.915   9.365  1.00  0.00     0.042 C
HETATM   40  C17 UNL     1      40.834  12.197   7.025  1.00  0.00     0.178 C
HETATM   41  C18 UNL     1      40.615  11.070   6.044  1.00  0.00     0.183 C
HETATM   42  C19 UNL     1      40.385   9.751   6.759  1.00  0.00     0.204 C
BRANCH  40  43
HETATM   43  O12 UNL     1      42.085  12.771   6.950  1.00  0.00    -0.390 OA
ATOM     44  H12 UNL     1      42.390  13.021   7.814  1.00  0.00     0.210 HD
ENDBRANCH  40  43
BRANCH  41  45
HETATM   45  O13 UNL     1      39.536  11.293   5.193  1.00  0.00    -0.390 OA
ATOM     46  H13 UNL     1      39.105  12.125   5.352  1.00  0.00     0.210 HD
ENDBRANCH  41  45
BRANCH  42  47
HETATM   47  O14 UNL     1      39.074   9.812   7.280  1.00  0.00    -0.388 OA
ATOM     48  H14 UNL     1      38.633  10.521   6.826  1.00  0.00     0.210 HD
ENDBRANCH  42  47
ENDBRANCH  35  36
ENDBRANCH   5  35
BRANCH   4  49
HETATM   49  O9  UNL     1      43.511   7.590   7.024  1.00  0.00    -0.390 OA
ATOM     50  H9  UNL     1      43.906   6.979   6.413  1.00  0.00     0.210 HD
ENDBRANCH   4  49
TORSDOF 16
ENDMDL