MODEL 1
REMARK VINA RESULT: -7.295639542      0.000      0.000
REMARK  16 active torsions:
REMARK  status: ('A' for Active; 'I' for Inactive)
REMARK    1  A    between atoms: O1_2  and  C2_3
REMARK    2  A    between atoms: C3_4  and  O2_5
REMARK    3  A    between atoms: O2_5  and  C4_6
REMARK    4  A    between atoms: C7_10  and  O4_11
REMARK    5  A    between atoms: C8_13  and  O5_14
REMARK    6  A    between atoms: C13_23  and  O9_24
REMARK    7  A    between atoms: O9_24  and  C14_25
REMARK    8  A    between atoms: C15_26  and  O10_27
REMARK    9  A    between atoms: C16_29  and  O11_30
REMARK   10  A    between atoms: C17_32  and  O12_33
REMARK   11  A    between atoms: C18_35  and  O13_36
REMARK   12  A    between atoms: O13_36  and  C19_37
REMARK   13  A    between atoms: C21_40  and  C22_41
REMARK   14  A    between atoms: C22_41  and  O15_42
REMARK   15  A    between atoms: C23_44  and  O16_45
REMARK   16  A    between atoms: C24_47  and  O17_48
ROOT
HETATM    1  C2  UNL     1      38.271  -2.530  14.217  1.00  0.00     0.207 C
HETATM    2  C3  UNL     1      37.153  -3.055  13.396  1.00  0.00     0.294 C
HETATM    3  O8  UNL     1      36.761  -2.027  12.516  1.00  0.00    -0.356 OA
HETATM    4  C12 UNL     1      37.829  -1.286  12.040  1.00  0.00     0.205 C
HETATM    5  C13 UNL     1      38.376  -0.358  13.138  1.00  0.00     0.177 C
HETATM    6  C24 UNL     1      37.974  -1.025  14.432  1.00  0.00     0.183 C
ENDROOT
BRANCH   5   7
HETATM    7  O9  UNL     1      39.745  -0.400  13.028  1.00  0.00    -0.370 OA
BRANCH   7   8
HETATM    8  C14 UNL     1      40.323   0.849  13.259  1.00  0.00     0.185 C
HETATM    9  C15 UNL     1      41.778   0.639  13.497  1.00  0.00     0.181 C
HETATM   10  C16 UNL     1      42.255   0.243  12.092  1.00  0.00     0.180 C
HETATM   11  C17 UNL     1      41.487   1.209  11.220  1.00  0.00     0.181 C
HETATM   12  C18 UNL     1      40.272   1.646  11.985  1.00  0.00     0.187 C
BRANCH   9  13
HETATM   13  O10 UNL     1      42.097  -0.335  14.415  1.00  0.00    -0.390 OA
ATOM     14  H10 UNL     1      41.562  -0.352  15.200  1.00  0.00     0.210 HD
ENDBRANCH   9  13
BRANCH  10  15
HETATM   15  O11 UNL     1      41.879  -1.069  11.821  1.00  0.00    -0.390 OA
ATOM     16  H11 UNL     1      41.705  -1.168  10.892  1.00  0.00     0.210 HD
ENDBRANCH  10  15
BRANCH  11  17
HETATM   17  O12 UNL     1      41.156   0.601  10.003  1.00  0.00    -0.390 OA
ATOM     18  H12 UNL     1      40.303   0.186  10.066  1.00  0.00     0.210 HD
ENDBRANCH  11  17
BRANCH  12  19
HETATM   19  O13 UNL     1      40.168   2.996  12.153  1.00  0.00    -0.347 OA
BRANCH  19  20
HETATM   20  C19 UNL     1      39.182   3.461  12.945  1.00  0.00     0.298 C
HETATM   21  O14 UNL     1      37.930   2.979  12.419  1.00  0.00    -0.329 OA
HETATM   22  C20 UNL     1      36.956   3.847  12.953  1.00  0.00     0.146 C
HETATM   23  C21 UNL     1      37.497   5.019  13.220  1.00  0.00    -0.002 C
HETATM   24  C23 UNL     1      38.927   4.946  12.840  1.00  0.00     0.206 C
BRANCH  23  25
HETATM   25  C22 UNL     1      36.781   6.192  13.796  1.00  0.00     0.203 C
BRANCH  25  26
HETATM   26  O15 UNL     1      35.469   6.226  13.301  1.00  0.00    -0.397 OA
ATOM     27  H15 UNL     1      35.113   7.101  13.408  1.00  0.00     0.209 HD
ENDBRANCH  25  26
ENDBRANCH  23  25
BRANCH  24  28
HETATM   28  O16 UNL     1      39.149   5.426  11.551  1.00  0.00    -0.386 OA
ATOM     29  H16 UNL     1      39.358   6.352  11.546  1.00  0.00     0.210 HD
ENDBRANCH  24  28
ENDBRANCH  19  20
ENDBRANCH  12  19
ENDBRANCH   7   8
ENDBRANCH   5   7
BRANCH   6  30
HETATM   30  O17 UNL     1      36.599  -0.886  14.589  1.00  0.00    -0.390 OA
ATOM     31  H17 UNL     1      36.450  -0.398  15.390  1.00  0.00     0.210 HD
ENDBRANCH   6  30
BRANCH   1  32
HETATM   32  O1  UNL     1      38.412  -3.052  15.476  1.00  0.00    -0.383 OA
HETATM   33  C1  UNL     1      39.462  -2.405  16.121  1.00  0.00     0.202 C
ENDBRANCH   1  32
BRANCH   2  34
HETATM   34  O2  UNL     1      37.379  -4.231  12.721  1.00  0.00    -0.323 OA
BRANCH  34  35
HETATM   35  C4  UNL     1      36.363  -5.124  12.930  1.00  0.00     0.328 C
HETATM   36  O3  UNL     1      35.669  -5.430  11.751  1.00  0.00    -0.348 OA
HETATM   37  C5  UNL     1      34.488  -6.064  12.021  1.00  0.00     0.152 C
HETATM   38  C6  UNL     1      34.374  -7.269  11.103  1.00  0.00     0.042 C
HETATM   39  C7  UNL     1      34.267  -6.440  13.445  1.00  0.00     0.181 C
HETATM   40  C8  UNL     1      35.488  -7.054  14.105  1.00  0.00     0.216 C
HETATM   41  C9  UNL     1      36.761  -6.448  13.519  1.00  0.00     0.244 A
HETATM   42  O6  UNL     1      37.149  -7.292  12.491  1.00  0.00    -0.347 OA
HETATM   43  O7  UNL     1      37.770  -6.362  14.424  1.00  0.00    -0.347 OA
HETATM   44  C10 UNL     1      38.432  -7.709  12.712  1.00  0.00     0.198 A
HETATM   45  C11 UNL     1      38.818  -7.155  14.043  1.00  0.00     0.198 A
BRANCH  39  46
HETATM   46  O4  UNL     1      33.275  -7.447  13.463  1.00  0.00    -0.390 OA
ATOM     47  H4  UNL     1      33.724  -8.285  13.455  1.00  0.00     0.210 HD
ENDBRANCH  39  46
BRANCH  40  48
HETATM   48  O5  UNL     1      35.454  -6.778  15.478  1.00  0.00    -0.387 OA
ATOM     49  H5  UNL     1      36.343  -6.680  15.798  1.00  0.00     0.210 HD
ENDBRANCH  40  48
ENDBRANCH  34  35
ENDBRANCH   2  34
TORSDOF 16
ENDMDL