MODEL 5
REMARK VINA RESULT: -7.127660333      0.783      1.090
REMARK  17 active torsions:
REMARK  status: ('A' for Active; 'I' for Inactive)
REMARK    1  A    between atoms: C2_2  and  O1_3
REMARK    2  A    between atoms: O1_3  and  C3_4
REMARK    3  A    between atoms: C3_4  and  C4_6
REMARK    4  A    between atoms: C5_7  and  C6_8
REMARK    5  A    between atoms: C7_10  and  O4_11
REMARK    6  A    between atoms: O4_11  and  C8_12
REMARK    7  A    between atoms: C9_13  and  O5_14
REMARK    8  A    between atoms: C10_16  and  O6_17
REMARK    9  A    between atoms: C11_19  and  O7_20
REMARK   10  A    between atoms: C12_22  and  O8_23
REMARK   11  A    between atoms: O8_23  and  C13_24
REMARK   12  A    between atoms: C16_28  and  O10_29
REMARK   13  A    between atoms: C17_31  and  O11_32
REMARK   14  A    between atoms: C18_34  and  O12_35
REMARK   15  A    between atoms: C19_37  and  O13_38
REMARK   16  A    between atoms: C20_41  and  O15_42
REMARK   17  A    between atoms: C20_41  and  C21_44
ROOT
HETATM    1  C8  UNL     1      38.107   0.150  13.409  1.00  0.00     0.189 C
HETATM    2  C9  UNL     1      38.212   0.658  12.012  1.00  0.00     0.181 C
HETATM    3  C10 UNL     1      36.826   0.645  11.413  1.00  0.00     0.180 C
HETATM    4  C11 UNL     1      36.396  -0.769  11.237  1.00  0.00     0.181 C
HETATM    5  C12 UNL     1      36.545  -1.627  12.480  1.00  0.00     0.187 C
HETATM    6  C19 UNL     1      37.704  -1.319  13.329  1.00  0.00     0.181 C
ENDROOT
BRANCH   1   7
HETATM    7  O4  UNL     1      39.296   0.166  14.101  1.00  0.00    -0.328 OA
BRANCH   7   8
HETATM    8  C7  UNL     1      39.400   1.215  15.046  1.00  0.00     0.417 C
HETATM    9  O3  UNL     1      40.650   1.773  15.042  1.00  0.00    -0.327 OA
HETATM   10  C6  UNL     1      40.707   2.978  15.768  1.00  0.00     0.181 C
HETATM   11  C23 UNL     1      40.308   2.619  17.166  1.00  0.00     0.190 A
HETATM   12  C22 UNL     1      40.831   1.178  17.340  1.00  0.00     0.223 A
HETATM   13  O17 UNL     1      41.106   2.196  18.161  1.00  0.00    -0.366 OA
HETATM   14  C20 UNL     1      39.628   0.335  17.235  1.00  0.00     0.250 C
HETATM   15  O14 UNL     1      38.860   0.777  16.188  1.00  0.00    -0.292 OA
BRANCH  10  16
HETATM   16  C5  UNL     1      39.864   4.038  15.216  1.00  0.00     0.014 C
HETATM   17  C4  UNL     1      40.144   4.565  14.048  1.00  0.00     0.081 C
BRANCH  17  18
HETATM   18  C3  UNL     1      39.358   5.621  13.428  1.00  0.00     0.282 C
HETATM   19  O2  UNL     1      39.785   6.814  13.565  1.00  0.00    -0.260 OA
BRANCH  18  20
HETATM   20  O1  UNL     1      38.203   5.378  12.716  1.00  0.00    -0.319 OA
BRANCH  20  21
HETATM   21  C2  UNL     1      36.963   5.163  13.354  1.00  0.00     0.174 C
HETATM   22  C1  UNL     1      36.601   3.709  13.378  1.00  0.00     0.034 C
ENDBRANCH  20  21
ENDBRANCH  18  20
ENDBRANCH  17  18
ENDBRANCH  10  16
BRANCH  14  23
HETATM   23  O15 UNL     1      38.881   0.314  18.434  1.00  0.00    -0.358 OA
ATOM     24  H15 UNL     1      39.356   0.742  19.137  1.00  0.00     0.213 HD
ENDBRANCH  14  23
BRANCH  14  25
HETATM   25  C21 UNL     1      40.059  -1.067  16.944  1.00  0.00     0.302 C
HETATM   26  O16 UNL     1      39.282  -1.966  16.713  1.00  0.00    -0.301 OA
ENDBRANCH  14  25
ENDBRANCH   7   8
ENDBRANCH   1   7
BRANCH   2  27
HETATM   27  O5  UNL     1      39.060  -0.156  11.289  1.00  0.00    -0.390 OA
ATOM     28  H5  UNL     1      38.586  -0.541  10.560  1.00  0.00     0.210 HD
ENDBRANCH   2  27
BRANCH   6  29
HETATM   29  O13 UNL     1      37.396  -1.659  14.666  1.00  0.00    -0.390 OA
ATOM     30  H13 UNL     1      38.092  -2.256  14.916  1.00  0.00     0.210 HD
ENDBRANCH   6  29
BRANCH   3  31
HETATM   31  O6  UNL     1      36.825   1.269  10.171  1.00  0.00    -0.390 OA
ATOM     32  H6  UNL     1      36.826   2.214  10.271  1.00  0.00     0.210 HD
ENDBRANCH   3  31
BRANCH   5  33
HETATM   33  O8  UNL     1      36.676  -2.936  11.999  1.00  0.00    -0.348 OA
BRANCH  33  34
HETATM   34  C13 UNL     1      35.603  -3.766  12.363  1.00  0.00     0.292 C
HETATM   35  O9  UNL     1      35.173  -4.321  11.157  1.00  0.00    -0.351 OA
HETATM   36  C14 UNL     1      34.400  -5.442  11.273  1.00  0.00     0.152 C
HETATM   37  C15 UNL     1      33.113  -5.236  12.006  1.00  0.00     0.042 C
HETATM   38  C16 UNL     1      35.171  -6.598  11.899  1.00  0.00     0.178 C
HETATM   39  C17 UNL     1      35.570  -6.143  13.262  1.00  0.00     0.183 C
HETATM   40  C18 UNL     1      36.113  -4.761  13.353  1.00  0.00     0.204 C
BRANCH  38  41
HETATM   41  O10 UNL     1      34.249  -7.645  12.033  1.00  0.00    -0.390 OA
ATOM     42  H10 UNL     1      34.742  -8.382  12.375  1.00  0.00     0.210 HD
ENDBRANCH  38  41
BRANCH  39  43
HETATM   43  O11 UNL     1      36.555  -7.019  13.754  1.00  0.00    -0.390 OA
ATOM     44  H11 UNL     1      36.309  -7.288  14.632  1.00  0.00     0.210 HD
ENDBRANCH  39  43
BRANCH  40  45
HETATM   45  O12 UNL     1      35.757  -4.265  14.638  1.00  0.00    -0.388 OA
ATOM     46  H12 UNL     1      36.573  -4.078  15.088  1.00  0.00     0.210 HD
ENDBRANCH  40  45
ENDBRANCH  33  34
ENDBRANCH   5  33
BRANCH   4  47
HETATM   47  O7  UNL     1      35.040  -0.773  10.910  1.00  0.00    -0.390 OA
ATOM     48  H7  UNL     1      34.838  -1.605  10.497  1.00  0.00     0.210 HD
ENDBRANCH   4  47
TORSDOF 17
ENDMDL