MODEL 5
REMARK VINA RESULT: -7.552892493      1.634     11.205
REMARK  16 active torsions:
REMARK  status: ('A' for Active; 'I' for Inactive)
REMARK    1  A    between atoms: C3_4  and  O2_5
REMARK    2  A    between atoms: O2_5  and  C4_6
REMARK    3  A    between atoms: C6_8  and  C7_9
REMARK    4  A    between atoms: C7_9  and  O3_10
REMARK    5  A    between atoms: O3_10  and  C8_11
REMARK    6  A    between atoms: C9_13  and  C10_14
REMARK    7  A    between atoms: C10_14  and  O5_15
REMARK    8  A    between atoms: O5_15  and  C11_16
REMARK    9  A    between atoms: C12_17  and  O6_18
REMARK   10  A    between atoms: C16_26  and  O10_27
REMARK   11  A    between atoms: C17_29  and  O11_30
REMARK   12  A    between atoms: C18_32  and  O12_33
REMARK   13  A    between atoms: C19_35  and  O13_36
REMARK   14  A    between atoms: C21_40  and  O15_41
REMARK   15  A    between atoms: C22_43  and  O16_44
REMARK   16  A    between atoms: C23_46  and  O17_47
ROOT
HETATM    1  C8  UNL     1      38.098   1.624  13.605  1.00  0.00     0.291 C
HETATM    2  O4  UNL     1      38.182   0.397  14.188  1.00  0.00    -0.348 OA
HETATM    3  C9  UNL     1      37.980  -0.684  13.356  1.00  0.00     0.179 C
HETATM    4  C17 UNL     1      37.861  -0.340  11.891  1.00  0.00     0.180 C
HETATM    5  C18 UNL     1      36.895   0.777  11.634  1.00  0.00     0.183 C
HETATM    6  C19 UNL     1      36.842   1.747  12.794  1.00  0.00     0.204 C
ENDROOT
BRANCH   1   7
HETATM    7  O3  UNL     1      39.216   1.911  12.822  1.00  0.00    -0.358 OA
BRANCH   7   8
HETATM    8  C7  UNL     1      40.272   2.399  13.581  1.00  0.00     0.178 C
BRANCH   8   9
HETATM    9  C6  UNL     1      41.563   1.995  12.943  1.00  0.00     0.038 C
HETATM   10  C5  UNL     1      42.374   3.167  12.456  1.00  0.00     0.069 C
HETATM   11  C4  UNL     1      41.988   3.204  10.997  1.00  0.00     0.263 C
HETATM   12  O14 UNL     1      41.644   1.939  10.616  1.00  0.00    -0.361 OA
HETATM   13  C20 UNL     1      41.403   1.166  11.722  1.00  0.00     0.178 C
BRANCH  11  14
HETATM   14  O2  UNL     1      42.937   3.803  10.192  1.00  0.00    -0.329 OA
BRANCH  14  15
HETATM   15  C3  UNL     1      42.422   4.801   9.384  1.00  0.00     0.294 C
HETATM   16  O1  UNL     1      43.243   4.909   8.249  1.00  0.00    -0.351 OA
HETATM   17  C2  UNL     1      42.534   5.715   7.345  1.00  0.00     0.152 C
HETATM   18  C1  UNL     1      43.212   5.648   5.996  1.00  0.00     0.042 C
HETATM   19  C23 UNL     1      42.606   7.123   7.851  1.00  0.00     0.178 C
HETATM   20  C22 UNL     1      42.061   7.279   9.245  1.00  0.00     0.183 C
HETATM   21  C21 UNL     1      42.325   6.108  10.125  1.00  0.00     0.204 C
BRANCH  19  22
HETATM   22  O17 UNL     1      43.951   7.499   7.879  1.00  0.00    -0.390 OA
ATOM     23  H17 UNL     1      44.170   7.730   8.774  1.00  0.00     0.210 HD
ENDBRANCH  19  22
BRANCH  20  24
HETATM   24  O16 UNL     1      40.668   7.407   9.118  1.00  0.00    -0.390 OA
ATOM     25  H16 UNL     1      40.462   7.380   8.191  1.00  0.00     0.210 HD
ENDBRANCH  20  24
BRANCH  21  26
HETATM   26  O15 UNL     1      43.546   6.325  10.770  1.00  0.00    -0.388 OA
ATOM     27  H15 UNL     1      43.365   6.760  11.595  1.00  0.00     0.210 HD
ENDBRANCH  21  26
ENDBRANCH  14  15
ENDBRANCH  11  14
ENDBRANCH   8   9
ENDBRANCH   7   8
ENDBRANCH   1   7
BRANCH   6  28
HETATM   28  O13 UNL     1      36.721   3.028  12.232  1.00  0.00    -0.388 OA
ATOM     29  H13 UNL     1      36.883   3.010  11.295  1.00  0.00     0.210 HD
ENDBRANCH   6  28
BRANCH   3  30
HETATM   30  C10 UNL     1      36.738  -1.477  13.782  1.00  0.00     0.203 C
BRANCH  30  31
HETATM   31  O5  UNL     1      36.898  -2.777  13.429  1.00  0.00    -0.376 OA
BRANCH  31  32
HETATM   32  C11 UNL     1      35.862  -3.640  13.607  1.00  0.00     0.208 C
HETATM   33  C12 UNL     1      36.281  -5.097  13.567  1.00  0.00     0.291 C
HETATM   34  O7  UNL     1      35.235  -5.788  14.179  1.00  0.00    -0.326 OA
HETATM   35  C13 UNL     1      34.103  -5.819  13.371  1.00  0.00     0.297 C
HETATM   36  O8  UNL     1      34.002  -6.943  12.614  1.00  0.00    -0.334 OA
HETATM   37  C15 UNL     1      33.910  -4.670  12.472  1.00  0.00     0.210 C
HETATM   38  C14 UNL     1      33.945  -6.544  11.303  1.00  0.00     0.342 C
HETATM   39  O9  UNL     1      34.283  -5.216  11.211  1.00  0.00    -0.354 OA
HETATM   40  C16 UNL     1      34.727  -3.456  12.661  1.00  0.00     0.185 C
BRANCH  33  41
HETATM   41  O6  UNL     1      37.421  -5.244  14.327  1.00  0.00    -0.368 OA
ATOM     42  H6  UNL     1      38.160  -5.361  13.741  1.00  0.00     0.212 HD
ENDBRANCH  33  41
BRANCH  40  43
HETATM   43  O10 UNL     1      35.156  -2.897  11.440  1.00  0.00    -0.390 OA
ATOM     44  H10 UNL     1      34.531  -3.061  10.743  1.00  0.00     0.210 HD
ENDBRANCH  40  43
ENDBRANCH  31  32
ENDBRANCH  30  31
ENDBRANCH   3  30
BRANCH   5  45
HETATM   45  O12 UNL     1      37.124   1.384  10.424  1.00  0.00    -0.390 OA
ATOM     46  H12 UNL     1      36.493   1.114   9.766  1.00  0.00     0.210 HD
ENDBRANCH   5  45
BRANCH   4  47
HETATM   47  O11 UNL     1      37.417  -1.453  11.158  1.00  0.00    -0.390 OA
ATOM     48  H11 UNL     1      37.908  -1.535  10.348  1.00  0.00     0.210 HD
ENDBRANCH   4  47
TORSDOF 16
ENDMDL