MODEL 2
REMARK VINA RESULT: -6.980952928      3.855      9.587
REMARK  16 active torsions:
REMARK  status: ('A' for Active; 'I' for Inactive)
REMARK    1  A    between atoms: O1_2  and  C2_3
REMARK    2  A    between atoms: C5_8  and  O4_9
REMARK    3  A    between atoms: O4_9  and  C6_10
REMARK    4  A    between atoms: C7_11  and  N1_12
REMARK    5  A    between atoms: C9_17  and  N2_18
REMARK    6  A    between atoms: C10_22  and  O5_23
REMARK    7  A    between atoms: O5_23  and  C11_24
REMARK    8  A    between atoms: C12_26  and  O7_27
REMARK    9  A    between atoms: O7_27  and  C13_28
REMARK   10  A    between atoms: C16_32  and  N3_33
REMARK   11  A    between atoms: C17_37  and  O9_38
REMARK   12  A    between atoms: C18_40  and  O10_41
REMARK   13  A    between atoms: C19_43  and  N4_44
REMARK   14  A    between atoms: C21_49  and  N5_50
REMARK   15  A    between atoms: C22_54  and  O11_55
REMARK   16  A    between atoms: C23_57  and  O12_58
ROOT
HETATM    1  C11 UNL     1      41.466   1.182  12.507  1.00  0.00     0.294 C
HETATM    2  O6  UNL     1      40.257   0.531  12.241  1.00  0.00    -0.327 OA
HETATM    3  C12 UNL     1      40.329  -0.843  12.234  1.00  0.00     0.296 C
HETATM    4  C19 UNL     1      41.721  -1.383  12.132  1.00  0.00     0.240 C
HETATM    5  C20 UNL     1      42.392  -0.606  11.001  1.00  0.00     0.075 C
HETATM    6  C21 UNL     1      42.399   0.864  11.332  1.00  0.00     0.240 C
ENDROOT
BRANCH   1   7
HETATM    7  O5  UNL     1      41.178   2.488  12.606  1.00  0.00    -0.349 OA
BRANCH   7   8
HETATM    8  C10 UNL     1      39.983   2.983  12.886  1.00  0.00     0.186 C
HETATM    9  C9  UNL     1      39.463   2.929  14.283  1.00  0.00     0.217 C
HETATM   10  C8  UNL     1      40.370   3.592  15.284  1.00  0.00     0.071 C
HETATM   11  C7  UNL     1      41.091   4.724  14.586  1.00  0.00     0.217 C
HETATM   12  C6  UNL     1      40.285   5.403  13.534  1.00  0.00     0.186 C
HETATM   13  C22 UNL     1      39.922   4.435  12.447  1.00  0.00     0.180 C
BRANCH   9  14
HETATM   14  N2  UNL     1      39.025   1.616  14.696  1.00  0.00    -0.072 N
ATOM     15  H23 UNL     1      39.820   1.038  14.968  1.00  0.00     0.274 HD
ATOM     16  H22 UNL     1      38.535   1.661  15.590  1.00  0.00     0.274 HD
ATOM     17  H21 UNL     1      38.455   1.144  13.993  1.00  0.00     0.274 HD
ENDBRANCH   9  14
BRANCH  11  18
HETATM   18  N1  UNL     1      41.621   5.595  15.610  1.00  0.00    -0.072 N
ATOM     19  H13 UNL     1      40.859   6.026  16.133  1.00  0.00     0.274 HD
ATOM     20  H12 UNL     1      42.056   5.043  16.350  1.00  0.00     0.274 HD
ATOM     21  H11 UNL     1      42.268   6.310  15.277  1.00  0.00     0.274 HD
ENDBRANCH  11  18
BRANCH  12  22
HETATM   22  O4  UNL     1      39.237   6.070  14.093  1.00  0.00    -0.348 OA
BRANCH  22  23
HETATM   23  C5  UNL     1      39.040   7.372  13.754  1.00  0.00     0.297 C
HETATM   24  O3  UNL     1      37.867   7.338  12.944  1.00  0.00    -0.329 OA
HETATM   25  C3  UNL     1      36.720   7.206  13.657  1.00  0.00     0.262 C
HETATM   26  O2  UNL     1      36.743   7.138  14.987  1.00  0.00    -0.329 OA
HETATM   27  C4  UNL     1      35.794   8.341  13.251  1.00  0.00     0.071 C
HETATM   28  C2  UNL     1      37.692   7.742  15.719  1.00  0.00     0.295 C
HETATM   29  C23 UNL     1      38.726   8.360  14.809  1.00  0.00     0.231 C
BRANCH  28  30
HETATM   30  O1  UNL     1      37.236   8.756  16.558  1.00  0.00    -0.363 OA
HETATM   31  C1  UNL     1      37.221   8.358  17.892  1.00  0.00     0.204 C
ENDBRANCH  28  30
BRANCH  29  32
HETATM   32  O12 UNL     1      39.769   8.938  15.468  1.00  0.00    -0.381 OA
HETATM   33  C24 UNL     1      40.903   9.077  14.672  1.00  0.00     0.202 C
ENDBRANCH  29  32
ENDBRANCH  22  23
ENDBRANCH  12  22
BRANCH  13  34
HETATM   34  O11 UNL     1      38.694   4.677  11.881  1.00  0.00    -0.390 OA
ATOM     35  H11 UNL     1      38.010   4.095  12.191  1.00  0.00     0.210 HD
ENDBRANCH  13  34
ENDBRANCH   7   8
ENDBRANCH   1   7
BRANCH   6  36
HETATM   36  N5  UNL     1      42.082   1.689  10.187  1.00  0.00    -0.070 N
ATOM     37  H53 UNL     1      42.437   2.639  10.297  1.00  0.00     0.274 HD
ATOM     38  H52 UNL     1      42.621   1.417   9.365  1.00  0.00     0.274 HD
ATOM     39  H51 UNL     1      41.079   1.680  10.001  1.00  0.00     0.274 HD
ENDBRANCH   6  36
BRANCH   3  40
HETATM   40  O7  UNL     1      39.616  -1.337  13.341  1.00  0.00    -0.327 OA
BRANCH  40  41
HETATM   41  C13 UNL     1      38.358  -1.780  13.022  1.00  0.00     0.294 C
HETATM   42  O8  UNL     1      37.800  -1.050  11.949  1.00  0.00    -0.351 OA
HETATM   43  C14 UNL     1      36.721  -1.704  11.409  1.00  0.00     0.153 C
HETATM   44  C15 UNL     1      35.598  -0.749  11.053  1.00  0.00     0.042 C
HETATM   45  C16 UNL     1      36.171  -2.814  12.236  1.00  0.00     0.243 C
HETATM   46  C17 UNL     1      36.164  -2.541  13.713  1.00  0.00     0.184 C
HETATM   47  C18 UNL     1      37.370  -1.711  14.137  1.00  0.00     0.204 C
BRANCH  45  48
HETATM   48  N3  UNL     1      34.778  -3.028  11.816  1.00  0.00    -0.070 N
ATOM     49  H33 UNL     1      34.354  -2.196  11.405  1.00  0.00     0.274 HD
ATOM     50  H32 UNL     1      34.697  -3.634  11.000  1.00  0.00     0.274 HD
ATOM     51  H31 UNL     1      34.266  -3.379  12.624  1.00  0.00     0.274 HD
ENDBRANCH  45  48
BRANCH  46  52
HETATM   52  O9  UNL     1      36.222  -3.782  14.360  1.00  0.00    -0.391 OA
ATOM     53  H9  UNL     1      37.096  -4.127  14.224  1.00  0.00     0.210 HD
ENDBRANCH  46  52
BRANCH  47  54
HETATM   54  O10 UNL     1      36.906  -0.382  14.200  1.00  0.00    -0.388 OA
ATOM     55  H10 UNL     1      37.532   0.108  14.721  1.00  0.00     0.210 HD
ENDBRANCH  47  54
ENDBRANCH  40  41
ENDBRANCH   3  40
BRANCH   4  56
HETATM   56  N4  UNL     1      41.698  -2.799  11.812  1.00  0.00    -0.070 N
ATOM     57  H43 UNL     1      42.067  -3.365  12.575  1.00  0.00     0.274 HD
ATOM     58  H42 UNL     1      40.747  -3.168  11.794  1.00  0.00     0.274 HD
ATOM     59  H41 UNL     1      42.190  -2.977  10.936  1.00  0.00     0.274 HD
ENDBRANCH   4  56
TORSDOF 16
ENDMDL