MODEL 4
REMARK VINA RESULT: -4.953733112      0.982      1.055
REMARK  5 active torsions:
REMARK  status: ('A' for Active; 'I' for Inactive)
REMARK    1  A    between atoms: N1_2  and  C2_4
REMARK    2  A    between atoms: N2_7  and  C5_8
REMARK    3  A    between atoms: C5_8  and  C6_9
REMARK    4  A    between atoms: C6_9  and  C7_10
REMARK    5  A    between atoms: C13_16  and  N3_17
ROOT
HETATM    1  C7  UNL     1     -39.790  17.059  14.670  1.00  0.00     0.051 C
HETATM    2  C8  UNL     1     -38.571  17.117  13.763  1.00  0.00    -0.023 C
HETATM    3  C9  UNL     1     -37.688  16.009  13.570  1.00  0.00    -0.029 C
HETATM    4  C10 UNL     1     -36.463  15.731  14.424  1.00  0.00     0.038 C
HETATM    5  C11 UNL     1     -36.829  15.578  15.942  1.00  0.00     0.086 C
HETATM    6  C12 UNL     1     -38.118  16.127  16.077  1.00  0.00    -0.150 C
HETATM    7  C13 UNL     1     -39.409  16.678  16.138  1.00  0.00     0.257 C
ENDROOT
BRANCH   1   8
HETATM    8  C6  UNL     1     -40.537  18.332  14.613  1.00  0.00     0.041 C
BRANCH   8   9
HETATM    9  C5  UNL     1     -41.959  18.244  14.208  1.00  0.00     0.273 C
BRANCH   9  10
HETATM   10  N2  UNL     1     -42.810  18.672  15.303  1.00  0.00     0.090 N
HETATM   11  C4  UNL     1     -43.532  17.579  15.868  1.00  0.00     0.274 C
HETATM   12  C3  UNL     1     -43.305  17.545  17.342  1.00  0.00     0.056 C
HETATM   13  C2  UNL     1     -42.735  18.935  17.655  1.00  0.00     0.106 C
HETATM   14  C14 UNL     1     -42.092  19.349  16.349  1.00  0.00     0.296 C
BRANCH  13  15
HETATM   15  N1  UNL     1     -43.834  19.761  18.040  1.00  0.00    -0.419 N
HETATM   16  C1  UNL     1     -44.709  19.189  19.011  1.00  0.00     0.140 C
ATOM     17  H1  UNL     1     -43.982  20.692  17.650  1.00  0.00     0.153 HD
ENDBRANCH  13  15
ENDBRANCH   9  10
ENDBRANCH   8   9
ENDBRANCH   1   8
BRANCH   7  18
HETATM   18  N3  UNL     1     -40.426  15.765  16.661  1.00  0.00    -0.065 N
ATOM     19  H33 UNL     1     -41.274  15.757  16.095  1.00  0.00     0.275 HD
ATOM     20  H32 UNL     1     -40.170  14.784  16.542  1.00  0.00     0.275 HD
ATOM     21  H31 UNL     1     -40.610  16.006  17.635  1.00  0.00     0.275 HD
ENDBRANCH   7  18
TORSDOF 5
ENDMDL