MODEL 5
REMARK VINA RESULT: -4.324472192      2.536      4.904
REMARK  5 active torsions:
REMARK  status: ('A' for Active; 'I' for Inactive)
REMARK    1  A    between atoms: N1_2  and  C2_5
REMARK    2  A    between atoms: C2_5  and  C3_6
REMARK    3  A    between atoms: C7_10  and  O1_11
REMARK    4  A    between atoms: C9_14  and  C10_15
REMARK    5  A    between atoms: C10_15  and  O2_16
ROOT
HETATM    1  C3  UNL     1     -40.273  15.810  17.802  1.00  0.00    -0.014 C
HETATM    2  C4  UNL     1     -39.523  16.017  19.115  1.00  0.00     0.017 C
HETATM    3  C5  UNL     1     -40.327  14.335  17.443  1.00  0.00     0.014 C
HETATM    4  C6  UNL     1     -40.310  14.268  15.934  1.00  0.00     0.039 C
HETATM    5  C7  UNL     1     -40.074  15.658  15.435  1.00  0.00     0.063 C
HETATM    6  C8  UNL     1     -39.114  15.714  14.265  1.00  0.00     0.045 C
HETATM    7  C9  UNL     1     -37.755  15.207  14.579  1.00  0.00     0.012 C
HETATM    8  C11 UNL     1     -37.394  15.289  16.036  1.00  0.00     0.007 C
HETATM    9  C12 UNL     1     -38.080  16.412  16.755  1.00  0.00     0.009 C
HETATM   10  C13 UNL     1     -39.568  16.403  16.632  1.00  0.00     0.030 C
ENDROOT
BRANCH   1  11
HETATM   11  C2  UNL     1     -41.668  16.297  18.005  1.00  0.00     0.241 C
BRANCH  11  12
HETATM   12  N1  UNL     1     -41.896  17.628  17.523  1.00  0.00    -0.078 N
HETATM   13  C1  UNL     1     -42.861  18.300  18.350  1.00  0.00     0.267 C
ATOM     14  H12 UNL     1     -42.166  17.636  16.540  1.00  0.00     0.276 HD
ATOM     15  H11 UNL     1     -41.028  18.157  17.444  1.00  0.00     0.276 HD
ENDBRANCH  11  12
ENDBRANCH   1  11
BRANCH   5  16
HETATM   16  O1  UNL     1     -41.275  16.227  14.951  1.00  0.00    -0.389 OA
ATOM     17  H1  UNL     1     -41.374  16.062  14.021  1.00  0.00     0.210 HD
ENDBRANCH   5  16
BRANCH   7  18
HETATM   18  C10 UNL     1     -36.759  15.976  13.713  1.00  0.00     0.168 C
BRANCH  18  19
HETATM   19  O2  UNL     1     -36.990  15.554  12.397  1.00  0.00    -0.400 OA
ATOM     20  H2  UNL     1     -37.726  16.067  12.085  1.00  0.00     0.209 HD
ENDBRANCH  18  19
ENDBRANCH   7  18
TORSDOF 5
ENDMDL