MODEL 4
REMARK VINA RESULT: -5.425581855      0.999      1.997
REMARK  3 active torsions:
REMARK  status: ('A' for Active; 'I' for Inactive)
REMARK    1  A    between atoms: C2_2  and  C3_3
REMARK    2  A    between atoms: C3_3  and  N1_4
REMARK       I    between atoms: N1_4  and  C4_6
REMARK       I    between atoms: C4_6  and  N2_8
REMARK    3  A    between atoms: N2_8  and  C5_10
ROOT
HETATM    1  N1  UNL     1     -38.661  17.299  14.497  1.00  0.00    -0.334 N
ATOM      2  H1  UNL     1     -38.138  17.798  13.777  1.00  0.00     0.165 HD
HETATM    3  C4  UNL     1     -39.991  17.691  14.758  1.00  0.00     0.317 C
HETATM    4  O1  UNL     1     -40.642  17.087  15.641  1.00  0.00    -0.247 OA
HETATM    5  N2  UNL     1     -40.570  18.753  14.024  1.00  0.00    -0.338 N
ATOM      6  H2  UNL     1     -40.021  19.232  13.309  1.00  0.00     0.164 HD
ENDROOT
BRANCH   1   7
HETATM    7  C3  UNL     1     -38.000  16.216  15.209  1.00  0.00     0.034 C
HETATM    8  C10 UNL     1     -38.370  14.890  14.572  1.00  0.00     0.031 C
HETATM    9  C11 UNL     1     -37.239  15.169  13.572  1.00  0.00     0.005 C
HETATM   10  C12 UNL     1     -36.577  15.955  14.714  1.00  0.00     0.031 C
BRANCH   7  11
HETATM   11  C2  UNL     1     -38.126  16.233  16.705  1.00  0.00     0.026 C
HETATM   12  C1  UNL     1     -38.128  14.855  17.293  1.00  0.00     0.007 C
ENDBRANCH   7  11
ENDBRANCH   1   7
BRANCH   5  13
HETATM   13  C5  UNL     1     -41.937  19.168  14.280  1.00  0.00     0.090 C
HETATM   14  C6  UNL     1     -42.802  17.929  14.240  1.00  0.00     0.051 C
HETATM   15  C7  UNL     1     -44.189  18.184  14.767  1.00  0.00     0.169 C
HETATM   16  O2  UNL     1     -44.261  19.215  15.673  1.00  0.00    -0.391 OA
HETATM   17  C8  UNL     1     -43.118  19.244  16.440  1.00  0.00     0.169 C
HETATM   18  C9  UNL     1     -42.020  19.877  15.613  1.00  0.00     0.051 C
ENDBRANCH   5  13
TORSDOF 3
ENDMDL