MODEL 3
REMARK VINA RESULT: -4.200526723      4.482      5.766
REMARK  6 active torsions:
REMARK  status: ('A' for Active; 'I' for Inactive)
REMARK    1  A    between atoms: C2_2  and  O1_3
REMARK    2  A    between atoms: C2_2  and  C3_5
REMARK    3  A    between atoms: C3_5  and  O2_6
REMARK    4  A    between atoms: C3_5  and  C4_8
REMARK    5  A    between atoms: C4_8  and  C5_9
REMARK    6  A    between atoms: C5_9  and  O3_10
ROOT
HETATM    1  C4  UNL     1     -43.344  17.571  16.392  1.00  0.00     0.019 C
HETATM    2  C6  UNL     1     -42.077  18.341  16.034  1.00  0.00    -0.005 C
HETATM    3  C7  UNL     1     -41.196  17.743  15.015  1.00  0.00     0.011 C
HETATM    4  C8  UNL     1     -42.369  19.816  15.833  1.00  0.00     0.005 C
HETATM    5  C9  UNL     1     -42.906  20.324  17.149  1.00  0.00     0.001 C
HETATM    6  C10 UNL     1     -43.003  19.298  18.204  1.00  0.00     0.010 C
HETATM    7  C11 UNL     1     -43.650  17.979  17.799  1.00  0.00    -0.035 C
HETATM    8  C12 UNL     1     -43.150  17.030  18.876  1.00  0.00     0.016 C
HETATM    9  C13 UNL     1     -45.115  18.159  18.141  1.00  0.00     0.016 C
ENDROOT
BRANCH   1  10
HETATM   10  C3  UNL     1     -44.491  17.917  15.525  1.00  0.00     0.158 C
BRANCH  10  11
HETATM   11  C2  UNL     1     -44.458  17.656  14.066  1.00  0.00     0.143 C
HETATM   12  C1  UNL     1     -45.614  16.847  13.518  1.00  0.00     0.042 C
BRANCH  11  13
HETATM   13  O1  UNL     1     -44.656  18.937  13.452  1.00  0.00    -0.393 OA
ATOM     14  H1  UNL     1     -45.513  19.190  13.775  1.00  0.00     0.210 HD
ENDBRANCH  11  13
ENDBRANCH  10  11
BRANCH  10  15
HETATM   15  O2  UNL     1     -45.679  17.333  15.940  1.00  0.00    -0.392 OA
ATOM     16  H2  UNL     1     -45.420  16.463  16.217  1.00  0.00     0.210 HD
ENDBRANCH  10  15
ENDBRANCH   1  10
BRANCH   1  17
HETATM   17  C5  UNL     1     -42.952  16.117  16.303  1.00  0.00     0.177 C
BRANCH  17  18
HETATM   18  O3  UNL     1     -44.027  15.245  16.327  1.00  0.00    -0.400 OA
ATOM     19  H3  UNL     1     -44.726  15.512  16.911  1.00  0.00     0.209 HD
ENDBRANCH  17  18
ENDBRANCH   1  17
TORSDOF 6
ENDMDL