MODEL 3
REMARK VINA RESULT: -5.048589671      1.046      1.646
REMARK  5 active torsions:
REMARK  status: ('A' for Active; 'I' for Inactive)
REMARK    1  A    between atoms: C9_9  and  O1_10
REMARK    2  A    between atoms: C10_12  and  N1_13
REMARK    3  A    between atoms: N1_13  and  C11_15
REMARK    4  A    between atoms: C11_15  and  C12_16
REMARK    5  A    between atoms: C12_16  and  O2_17
ROOT
HETATM    1  C1  UNL     1     -38.755  15.225  17.841  1.00  0.00     0.015 C
HETATM    2  C2  UNL     1     -38.306  15.422  16.422  1.00  0.00    -0.041 C
HETATM    3  C3  UNL     1     -36.803  15.590  16.365  1.00  0.00     0.014 C
HETATM    4  C4  UNL     1     -36.439  15.887  14.960  1.00  0.00    -0.011 C
HETATM    5  C5  UNL     1     -36.753  14.676  14.102  1.00  0.00     0.016 C
HETATM    6  C6  UNL     1     -38.266  14.472  14.146  1.00  0.00    -0.015 C
HETATM    7  C7  UNL     1     -38.558  13.214  13.360  1.00  0.00     0.018 C
HETATM    8  C8  UNL     1     -38.704  14.224  15.569  1.00  0.00     0.021 C
HETATM    9  C9  UNL     1     -38.877  15.684  13.519  1.00  0.00     0.154 C
HETATM   10  C10 UNL     1     -38.633  16.908  14.399  1.00  0.00     0.057 C
HETATM   11  C13 UNL     1     -37.147  17.108  14.395  1.00  0.00     0.038 C
HETATM   12  C14 UNL     1     -39.020  16.595  15.865  1.00  0.00     0.042 C
ENDROOT
BRANCH  10  13
HETATM   13  N1  UNL     1     -39.463  17.984  14.081  1.00  0.00    -0.388 N
ATOM     14  H1  UNL     1     -39.308  18.423  13.173  1.00  0.00     0.159 HD
BRANCH  13  15
HETATM   15  C11 UNL     1     -40.464  18.518  14.855  1.00  0.00     0.082 C
BRANCH  15  16
HETATM   16  C12 UNL     1     -41.684  18.915  14.080  1.00  0.00     0.208 C
BRANCH  16  17
HETATM   17  O2  UNL     1     -42.101  17.788  13.351  1.00  0.00    -0.396 OA
ATOM     18  H2  UNL     1     -42.789  18.072  12.760  1.00  0.00     0.209 HD
ENDBRANCH  16  17
ENDBRANCH  15  16
ENDBRANCH  13  15
ENDBRANCH  10  13
BRANCH   9  19
HETATM   19  O1  UNL     1     -40.187  15.560  13.150  1.00  0.00    -0.392 OA
ATOM     20  H1  UNL     1     -40.565  16.317  12.719  1.00  0.00     0.210 HD
ENDBRANCH   9  19
TORSDOF 5
ENDMDL