MODEL 5
REMARK VINA RESULT: -5.462170371      1.393      2.136
REMARK  4 active torsions:
REMARK  status: ('A' for Active; 'I' for Inactive)
REMARK    1  A    between atoms: N1_1  and  C1_5
REMARK    2  A    between atoms: C4_11  and  C5_12
REMARK    3  A    between atoms: C5_12  and  C6_13
REMARK    4  A    between atoms: C6_13  and  C7_14
ROOT
HETATM    1  C1  UNL     1     -42.964  19.717  16.423  1.00  0.00     0.485 C
HETATM    2  N2  UNL     1     -43.989  18.914  15.797  1.00  0.00    -0.311 N
ATOM      3  H2  UNL     1     -44.838  18.714  16.326  1.00  0.00     0.166 HD
HETATM    4  C2  UNL     1     -43.873  18.388  14.485  1.00  0.00     0.222 C
HETATM    5  O1  UNL     1     -44.889  17.896  13.945  1.00  0.00    -0.273 OA
HETATM    6  C3  UNL     1     -42.535  18.464  13.849  1.00  0.00     0.136 C
HETATM    7  C4  UNL     1     -41.524  18.484  14.952  1.00  0.00     0.199 C
HETATM    8  N3  UNL     1     -41.701  19.663  15.744  1.00  0.00    -0.024 N
ATOM      9  H31 UNL     1     -40.932  19.771  16.405  1.00  0.00     0.282 HD
ATOM     10  H32 UNL     1     -41.560  20.501  15.179  1.00  0.00     0.282 HD
ENDROOT
BRANCH   7  11
HETATM   11  C5  UNL     1     -40.098  18.421  14.457  1.00  0.00     0.034 C
BRANCH  11  12
HETATM   12  C6  UNL     1     -39.275  17.426  15.200  1.00  0.00     0.007 C
BRANCH  12  13
HETATM   13  C7  UNL     1     -38.824  16.236  14.395  1.00  0.00    -0.014 C
HETATM   14  C8  UNL     1     -37.322  16.475  14.139  1.00  0.00     0.004 C
HETATM   15  C9  UNL     1     -36.959  15.621  12.951  1.00  0.00     0.000 C
HETATM   16  C10 UNL     1     -36.826  14.191  13.468  1.00  0.00     0.000 C
HETATM   17  C11 UNL     1     -38.132  13.511  13.238  1.00  0.00     0.000 C
HETATM   18  C12 UNL     1     -39.170  13.755  14.268  1.00  0.00     0.000 C
HETATM   19  C13 UNL     1     -38.925  14.957  15.144  1.00  0.00     0.004 C
ENDBRANCH  12  13
ENDBRANCH  11  12
ENDBRANCH   7  11
BRANCH   1  20
HETATM   20  N1  UNL     1     -42.781  19.193  17.779  1.00  0.00    -0.033 N
ATOM     21  H13 UNL     1     -43.106  19.832  18.504  1.00  0.00     0.278 HD
ATOM     22  H12 UNL     1     -43.407  18.419  17.998  1.00  0.00     0.278 HD
ATOM     23  H11 UNL     1     -41.794  18.950  17.872  1.00  0.00     0.278 HD
ENDBRANCH   1  20
TORSDOF 4
ENDMDL