MODEL 3
REMARK VINA RESULT: -4.621285524      1.117      1.374
REMARK  6 active torsions:
REMARK  status: ('A' for Active; 'I' for Inactive)
REMARK    1  A    between atoms: C2_2  and  C4_4
REMARK    2  A    between atoms: C6_6  and  C7_7
REMARK    3  A    between atoms: C7_7  and  O1_8
REMARK    4  A    between atoms: C8_10  and  C9_11
REMARK    5  A    between atoms: C12_14  and  O2_15
REMARK    6  A    between atoms: C13_17  and  O3_18
ROOT
HETATM    1  C4  UNL     1     -40.655  17.735  15.496  1.00  0.00     0.021 C
HETATM    2  C5  UNL     1     -40.406  16.661  16.509  1.00  0.00     0.014 C
HETATM    3  C6  UNL     1     -38.948  16.238  16.557  1.00  0.00     0.016 C
HETATM    4  C8  UNL     1     -38.318  16.239  15.233  1.00  0.00     0.026 C
HETATM    5  C12 UNL     1     -39.344  16.139  14.096  1.00  0.00     0.152 C
HETATM    6  C13 UNL     1     -40.117  17.444  14.137  1.00  0.00     0.151 C
ENDROOT
BRANCH   1   7
HETATM    7  C2  UNL     1     -42.123  18.070  15.499  1.00  0.00    -0.016 C
HETATM    8  C1  UNL     1     -42.983  16.936  15.980  1.00  0.00     0.010 C
HETATM    9  C3  UNL     1     -42.629  18.471  14.132  1.00  0.00     0.010 C
ENDBRANCH   1   7
BRANCH   6  10
HETATM   10  O3  UNL     1     -39.211  18.436  13.695  1.00  0.00    -0.393 OA
ATOM     11  H3  UNL     1     -38.868  18.251  12.828  1.00  0.00     0.210 HD
ENDBRANCH   6  10
BRANCH   3  12
HETATM   12  C7  UNL     1     -38.885  14.956  17.338  1.00  0.00     0.169 C
BRANCH  12  13
HETATM   13  O1  UNL     1     -39.847  14.041  17.019  1.00  0.00    -0.400 OA
ATOM     14  H1  UNL     1     -40.722  14.258  17.319  1.00  0.00     0.209 HD
ENDBRANCH  12  13
ENDBRANCH   3  12
BRANCH   5  15
HETATM   15  O2  UNL     1     -40.137  15.028  14.194  1.00  0.00    -0.393 OA
ATOM     16  H2  UNL     1     -40.167  14.674  15.074  1.00  0.00     0.210 HD
ENDBRANCH   5  15
BRANCH   4  17
HETATM   17  C9  UNL     1     -37.193  15.274  15.018  1.00  0.00    -0.016 C
HETATM   18  C10 UNL     1     -36.912  15.260  13.507  1.00  0.00     0.010 C
HETATM   19  C11 UNL     1     -35.948  15.824  15.667  1.00  0.00     0.010 C
ENDBRANCH   4  17
TORSDOF 6
ENDMDL