MODEL 2
REMARK VINA RESULT: -5.535484868      1.245      2.037
REMARK  5 active torsions:
REMARK  status: ('A' for Active; 'I' for Inactive)
REMARK    1  A    between atoms: C2_2  and  O1_3
REMARK    2  A    between atoms: C2_2  and  C3_5
REMARK    3  A    between atoms: C3_5  and  N1_6
REMARK    4  A    between atoms: N1_6  and  C4_8
REMARK    5  A    between atoms: C10_14  and  O2_15
ROOT
HETATM    1  C4  UNL     1     -38.882  16.801  14.226  1.00  0.00     0.029 C
HETATM    2  C5  UNL     1     -37.680  16.716  13.317  1.00  0.00     0.035 C
HETATM    3  C6  UNL     1     -36.843  15.532  13.697  1.00  0.00    -0.009 C
HETATM    4  C7  UNL     1     -36.337  15.718  15.116  1.00  0.00     0.009 C
HETATM    5  C8  UNL     1     -37.504  15.750  16.063  1.00  0.00    -0.009 C
HETATM    6  C9  UNL     1     -38.341  14.487  15.939  1.00  0.00     0.042 C
HETATM    7  C10 UNL     1     -38.795  14.341  14.537  1.00  0.00     0.061 C
HETATM    8  C11 UNL     1     -37.598  14.223  13.636  1.00  0.00     0.042 C
HETATM    9  C12 UNL     1     -39.626  15.495  14.035  1.00  0.00     0.068 C
HETATM   10  C13 UNL     1     -38.401  16.899  15.666  1.00  0.00     0.035 C
ENDROOT
BRANCH   1  11
HETATM   11  N1  UNL     1     -39.715  17.940  14.043  1.00  0.00    -0.410 N
ATOM     12  H1  UNL     1     -39.597  18.550  13.234  1.00  0.00     0.154 HD
BRANCH  11  13
HETATM   13  C3  UNL     1     -40.712  18.202  15.012  1.00  0.00     0.145 C
BRANCH  13  14
HETATM   14  C2  UNL     1     -41.918  18.785  14.262  1.00  0.00     0.131 C
HETATM   15  C1  UNL     1     -43.089  18.942  15.209  1.00  0.00     0.041 C
BRANCH  14  16
HETATM   16  O1  UNL     1     -42.253  17.898  13.266  1.00  0.00    -0.394 OA
ATOM     17  H1  UNL     1     -41.472  17.660  12.781  1.00  0.00     0.210 HD
ENDBRANCH  14  16
ENDBRANCH  13  14
ENDBRANCH  11  13
ENDBRANCH   1  11
BRANCH   7  18
HETATM   18  O2  UNL     1     -39.574  13.170  14.466  1.00  0.00    -0.390 OA
ATOM     19  H2  UNL     1     -39.014  12.440  14.705  1.00  0.00     0.210 HD
ENDBRANCH   7  18
TORSDOF 5
ENDMDL