MODEL 1
REMARK VINA RESULT: -4.980452791      0.000      0.000
REMARK  6 active torsions:
REMARK  status: ('A' for Active; 'I' for Inactive)
REMARK    1  A    between atoms: N1_3  and  C3_5
REMARK    2  A    between atoms: N2_6  and  N3_8
REMARK    3  A    between atoms: N3_8  and  C4_10
REMARK    4  A    between atoms: C4_10  and  S1_14
REMARK    5  A    between atoms: S1_14  and  C5_15
REMARK    6  A    between atoms: C5_15  and  C6_16
ROOT
HETATM    1  C1  UNL     1     -44.605  16.905  18.854  1.00  0.00     0.037 C
HETATM    2  C2  UNL     1     -44.070  17.996  18.826  1.00  0.00    -0.000 C
HETATM    3  N1  UNL     1     -43.462  19.255  18.777  1.00  0.00    -0.311 N
ATOM      4  H1  UNL     1     -43.299  19.757  19.650  1.00  0.00     0.177 HD
ENDROOT
BRANCH   3   5
HETATM    5  C3  UNL     1     -43.062  19.859  17.549  1.00  0.00     0.205 C
HETATM    6  N2  UNL     1     -42.364  19.132  16.754  1.00  0.00    -0.294 N
ATOM      7  H2  UNL     1     -42.130  18.177  17.025  1.00  0.00     0.187 HD
BRANCH   6   8
HETATM    8  N3  UNL     1     -41.919  19.625  15.524  1.00  0.00    -0.279 N
ATOM      9  H3  UNL     1     -41.906  20.634  15.374  1.00  0.00     0.189 HD
BRANCH   8  10
HETATM   10  C4  UNL     1     -41.485  18.771  14.476  1.00  0.00     0.152 C
HETATM   11  N4  UNL     1     -42.242  18.502  13.469  1.00  0.00    -0.379 N
ATOM     12  H42 UNL     1     -43.172  18.920  13.445  1.00  0.00     0.158 HD
ATOM     13  H41 UNL     1     -41.930  17.889  12.716  1.00  0.00     0.158 HD
BRANCH  10  14
HETATM   14  S1  UNL     1     -39.860  18.040  14.518  1.00  0.00    -0.093 SA
BRANCH  14  15
HETATM   15  C5  UNL     1     -39.816  16.558  15.531  1.00  0.00     0.087 C
BRANCH  15  16
HETATM   16  C6  UNL     1     -38.751  15.631  15.033  1.00  0.00    -0.005 C
HETATM   17  C7  UNL     1     -39.177  14.803  13.844  1.00  0.00     0.005 C
HETATM   18  C8  UNL     1     -38.019  13.838  13.566  1.00  0.00     0.000 C
HETATM   19  C9  UNL     1     -36.813  14.667  13.232  1.00  0.00     0.000 C
HETATM   20  C10 UNL     1     -36.412  15.490  14.420  1.00  0.00     0.000 C
HETATM   21  C11 UNL     1     -37.539  16.497  14.668  1.00  0.00     0.005 C
ENDBRANCH  15  16
ENDBRANCH  14  15
ENDBRANCH  10  14
ENDBRANCH   8  10
ENDBRANCH   6   8
ENDBRANCH   3   5
TORSDOF 6
ENDMDL