MODEL 4
REMARK VINA RESULT: -5.388034622      2.528      3.040
REMARK  4 active torsions:
REMARK  status: ('A' for Active; 'I' for Inactive)
REMARK    1  A    between atoms: C5_5  and  C6_6
REMARK    2  A    between atoms: C6_6  and  C7_7
REMARK    3  A    between atoms: C7_7  and  N1_8
REMARK    4  A    between atoms: N3_15  and  N4_17
ROOT
HETATM    1  N1  UNL     1     -42.073  16.764  15.973  1.00  0.00    -0.395 N
ATOM      2  H1  UNL     1     -42.763  16.033  16.146  1.00  0.00     0.159 HD
HETATM    3  C8  UNL     1     -42.319  17.629  15.063  1.00  0.00     0.007 C
HETATM    4  C9  UNL     1     -41.419  18.743  14.701  1.00  0.00     0.173 C
HETATM    5  N2  UNL     1     -41.886  19.183  13.402  1.00  0.00    -0.373 N
ATOM      6  H2  UNL     1     -41.351  19.769  12.760  1.00  0.00     0.161 HD
HETATM    7  C10 UNL     1     -43.188  18.688  13.146  1.00  0.00     0.096 C
HETATM    8  N3  UNL     1     -43.955  19.016  12.185  1.00  0.00    -0.295 N
ATOM      9  H3  UNL     1     -44.873  18.576  12.120  1.00  0.00     0.187 HD
HETATM   10  C11 UNL     1     -43.521  17.698  14.204  1.00  0.00     0.131 C
ENDROOT
BRANCH   1  11
HETATM   11  C7  UNL     1     -40.893  16.771  16.751  1.00  0.00     0.121 C
BRANCH  11  12
HETATM   12  C6  UNL     1     -39.875  15.747  16.289  1.00  0.00     0.044 C
BRANCH  12  13
HETATM   13  C5  UNL     1     -38.515  16.422  16.153  1.00  0.00     0.078 C
HETATM   14  C4  UNL     1     -37.421  15.394  16.172  1.00  0.00     0.025 C
HETATM   15  C3  UNL     1     -36.322  15.731  15.187  1.00  0.00     0.008 C
HETATM   16  C2  UNL     1     -36.952  15.791  13.820  1.00  0.00    -0.001 C
HETATM   17  C1  UNL     1     -37.368  14.383  13.385  1.00  0.00     0.011 C
HETATM   18  C12 UNL     1     -38.147  16.702  13.781  1.00  0.00     0.118 C
HETATM   19  N5  UNL     1     -38.460  17.310  15.037  1.00  0.00    -0.417 N
ATOM     20  H5  UNL     1     -38.632  18.312  15.129  1.00  0.00     0.153 HD
ENDBRANCH  12  13
ENDBRANCH  11  12
ENDBRANCH   1  11
BRANCH   8  21
HETATM   21  N4  UNL     1     -43.590  19.954  11.216  1.00  0.00    -0.344 N
ATOM     22  H42 UNL     1     -43.282  20.872  11.539  1.00  0.00     0.176 HD
ATOM     23  H41 UNL     1     -43.622  19.754  10.216  1.00  0.00     0.176 HD
ENDBRANCH   8  21
TORSDOF 4
ENDMDL