MODEL 4
REMARK VINA RESULT: -8.709404033      1.437      2.309
REMARK  10 active torsions:
REMARK  status: ('A' for Active; 'I' for Inactive)
REMARK    1  A    between atoms: C2_2  and  C3_3
REMARK    2  A    between atoms: C3_3  and  C4_4
REMARK    3  A    between atoms: C4_4  and  C5_5
REMARK    4  A    between atoms: C4_4  and  S1_26
REMARK    5  A    between atoms: C5_5  and  C6_6
REMARK       I    between atoms: C6_6  and  N1_8
REMARK    6  A    between atoms: N1_8  and  C7_10
REMARK    7  A    between atoms: C8_13  and  N3_14
REMARK    8  A    between atoms: C10_21  and  N6_22
REMARK    9  A    between atoms: N6_22  and  O2_24
REMARK   10  A    between atoms: S1_26  and  C11_29
ROOT
HETATM    1  C6  UNL     1       2.554   4.029  19.258  1.00  0.00     0.224 C
HETATM    2  O1  UNL     1       3.704   4.525  19.415  1.00  0.00    -0.273 OA
HETATM    3  N1  UNL     1       1.746   4.044  20.431  1.00  0.00    -0.311 N
ATOM      4  H1  UNL     1       1.425   3.143  20.787  1.00  0.00     0.170 HD
ENDROOT
BRANCH   3   5
HETATM    5  C7  UNL     1       1.394   5.076  21.069  1.00  0.00     0.155 A
HETATM    6  N2  UNL     1       0.220   5.708  20.900  1.00  0.00    -0.174 N
HETATM    7  C8  UNL     1      -0.106   6.808  21.608  1.00  0.00     0.678 A
ATOM      8  H2  UNL     1      -0.443   5.345  20.216  1.00  0.00     0.186 HD
HETATM    9  N4  UNL     1       0.740   7.310  22.513  1.00  0.00    -0.177 N
HETATM   10  C9  UNL     1       1.927   6.741  22.743  1.00  0.00     0.164 A
ATOM     11  H4  UNL     1       0.474   8.142  23.039  1.00  0.00     0.185 HD
HETATM   12  N5  UNL     1       2.806   7.298  23.713  1.00  0.00    -0.080 NA
HETATM   13  C10 UNL     1       2.263   5.599  22.005  1.00  0.00     0.140 A
BRANCH   7  14
HETATM   14  N3  UNL     1      -1.246   7.375  21.405  1.00  0.00    -0.234 N
ATOM     15  H32 UNL     1      -2.075   6.808  21.225  1.00  0.00     0.174 HD
ATOM     16  H31 UNL     1      -1.309   8.393  21.424  1.00  0.00     0.174 HD
ENDBRANCH   7  14
BRANCH  13  17
HETATM   17  N6  UNL     1       3.532   5.013  22.268  1.00  0.00    -0.262 N
ATOM     18  H6  UNL     1       3.609   4.094  22.706  1.00  0.00     0.194 HD
BRANCH  17  19
HETATM   19  O2  UNL     1       4.557   5.665  21.942  1.00  0.00    -0.289 OA
ATOM     20  H2  UNL     1       5.299   5.647  22.535  1.00  0.00     0.244 HD
ENDBRANCH  17  19
ENDBRANCH  13  17
ENDBRANCH   3   5
BRANCH   1  21
HETATM   21  C5  UNL     1       2.147   3.507  17.974  1.00  0.00     0.123 C
BRANCH  21  22
HETATM   22  C4  UNL     1       2.160   4.344  16.769  1.00  0.00     0.125 C
BRANCH  22  23
HETATM   23  C3  UNL     1       2.450   5.791  16.885  1.00  0.00     0.047 C
BRANCH  23  24
HETATM   24  C2  UNL     1       1.477   6.662  17.518  1.00  0.00    -0.036 C
HETATM   25  C1  UNL     1       1.847   7.555  18.422  1.00  0.00     0.007 C
ENDBRANCH  23  24
ENDBRANCH  22  23
BRANCH  22  26
HETATM   26  S1  UNL     1       3.017   3.594  15.390  1.00  0.00     0.181 S
HETATM   27  O3  UNL     1       4.451   3.957  15.415  1.00  0.00    -0.222 OA
HETATM   28  O4  UNL     1       2.438   4.000  14.070  1.00  0.00    -0.222 OA
BRANCH  26  29
HETATM   29  C11 UNL     1       2.892   1.858  15.563  1.00  0.00     0.076 A
HETATM   30  C12 UNL     1       1.750   1.096  15.493  1.00  0.00     0.111 A
HETATM   31  N7  UNL     1       2.094  -0.195  15.680  1.00  0.00    -0.368 N
HETATM   32  C13 UNL     1       3.420  -0.318  15.872  1.00  0.00     0.006 A
ATOM     33  H7  UNL     1       1.436  -0.974  15.676  1.00  0.00     0.165 HD
HETATM   34  C14 UNL     1       4.225  -1.544  16.114  1.00  0.00     0.068 C
HETATM   35  C15 UNL     1       3.922   0.978  15.798  1.00  0.00     0.049 A
ENDBRANCH  26  29
ENDBRANCH  22  26
ENDBRANCH  21  22
ENDBRANCH   1  21
TORSDOF 10
ENDMDL