MODEL 1
REMARK VINA RESULT: -7.955040447      0.000      0.000
REMARK  11 active torsions:
REMARK  status: ('A' for Active; 'I' for Inactive)
REMARK    1  A    between atoms: C3_4  and  N1_5
REMARK    2  A    between atoms: N1_5  and  C4_7
REMARK    3  A    between atoms: C4_7  and  C6_10
REMARK    4  A    between atoms: C8_15  and  N5_16
REMARK    5  A    between atoms: N5_16  and  C9_18
REMARK    6  A    between atoms: C12_23  and  N7_24
REMARK    7  A    between atoms: N7_24  and  C13_26
REMARK    8  A    between atoms: C14_30  and  C15_31
REMARK    9  A    between atoms: C15_31  and  C16_32
REMARK   10  A    between atoms: C16_32  and  C17_33
REMARK   11  A    between atoms: C17_33  and  N9_34
ROOT
HETATM    1  C4  UNL     1       2.798   4.186  21.992  1.00  0.00     0.232 C
HETATM    2  C5  UNL     1       2.840   5.544  22.571  1.00  0.00     0.089 C
HETATM    3  N2  UNL     1       2.856   6.615  23.019  1.00  0.00    -0.195 NA
ENDROOT
BRANCH   1   4
HETATM    4  N1  UNL     1       3.999   3.520  22.410  1.00  0.00    -0.349 N
ATOM      5  H1  UNL     1       4.879   4.033  22.357  1.00  0.00     0.163 HD
BRANCH   4   6
HETATM    6  C3  UNL     1       4.025   2.284  22.858  1.00  0.00     0.146 A
HETATM    7  S1  UNL     1       2.749   1.351  23.507  1.00  0.00    -0.057 SA
HETATM    8  C2  UNL     1       3.621  -0.079  23.823  1.00  0.00     0.005 A
HETATM    9  C1  UNL     1       3.116  -1.363  24.417  1.00  0.00     0.058 C
HETATM   10  C14 UNL     1       4.881   0.254  23.397  1.00  0.00     0.024 A
HETATM   11  N8  UNL     1       5.061   1.447  22.916  1.00  0.00    -0.339 N
ATOM     12  H8  UNL     1       5.982   1.740  22.587  1.00  0.00     0.168 HD
BRANCH  10  13
HETATM   13  C15 UNL     1       5.983  -0.787  23.515  1.00  0.00     0.060 C
BRANCH  13  14
HETATM   14  C16 UNL     1       6.931  -0.404  24.623  1.00  0.00     0.033 C
BRANCH  14  15
HETATM   15  C17 UNL     1       6.645  -1.249  25.844  1.00  0.00     0.230 C
BRANCH  15  16
HETATM   16  N9  UNL     1       6.322  -2.609  25.516  1.00  0.00    -0.079 N
ATOM     17  H93 UNL     1       5.555  -2.650  24.845  1.00  0.00     0.274 HD
ATOM     18  H92 UNL     1       7.058  -3.034  24.953  1.00  0.00     0.274 HD
ATOM     19  H91 UNL     1       6.118  -3.177  26.339  1.00  0.00     0.274 HD
ENDBRANCH  15  16
ENDBRANCH  14  15
ENDBRANCH  13  14
ENDBRANCH  10  13
ENDBRANCH   4   6
ENDBRANCH   1   4
BRANCH   1  20
HETATM   20  C6  UNL     1       2.690   4.285  20.520  1.00  0.00     0.065 A
HETATM   21  C7  UNL     1       3.772   4.328  19.675  1.00  0.00     0.145 A
HETATM   22  N3  UNL     1       5.077   4.271  20.264  1.00  0.00    -0.081 NA
HETATM   23  N4  UNL     1       3.613   4.418  18.340  1.00  0.00    -0.178 N
HETATM   24  C8  UNL     1       2.369   4.470  17.797  1.00  0.00     0.681 A
ATOM     25  H4  UNL     1       4.433   4.448  17.733  1.00  0.00     0.185 HD
HETATM   26  N6  UNL     1       1.292   4.430  18.595  1.00  0.00    -0.176 N
HETATM   27  C12 UNL     1       1.447   4.339  19.944  1.00  0.00     0.135 A
ATOM     28  H6  UNL     1       0.357   4.468  18.191  1.00  0.00     0.186 HD
BRANCH  24  29
HETATM   29  N5  UNL     1       2.269   4.557  16.504  1.00  0.00    -0.222 N
ATOM     30  H5  UNL     1       1.476   5.042  16.083  1.00  0.00     0.178 HD
BRANCH  29  31
HETATM   31  C9  UNL     1       3.284   3.965  15.665  1.00  0.00     0.091 C
HETATM   32  C10 UNL     1       3.654   4.995  14.594  1.00  0.00     0.032 C
HETATM   33  C11 UNL     1       2.729   2.750  14.936  1.00  0.00     0.032 C
ENDBRANCH  29  31
ENDBRANCH  24  29
BRANCH  27  34
HETATM   34  N7  UNL     1       0.396   4.302  20.689  1.00  0.00    -0.319 N
ATOM     35  H7  UNL     1       0.245   3.486  21.282  1.00  0.00     0.169 HD
BRANCH  34  36
HETATM   36  C13 UNL     1      -0.561   5.351  20.719  1.00  0.00     0.354 C
HETATM   37  O1  UNL     1      -0.231   6.510  20.367  1.00  0.00    -0.283 OA
ENDBRANCH  34  36
ENDBRANCH  27  34
ENDBRANCH   1  20
TORSDOF 11
ENDMDL