MODEL 5
REMARK VINA RESULT: -6.591724443      4.660      8.479
REMARK  10 active torsions:
REMARK  status: ('A' for Active; 'I' for Inactive)
REMARK    1  A    between atoms: C2_2  and  C3_3
REMARK    2  A    between atoms: C3_3  and  C4_4
REMARK    3  A    between atoms: C4_4  and  C5_5
REMARK    4  A    between atoms: C4_4  and  N1_7
REMARK    5  A    between atoms: N1_7  and  C7_9
REMARK    6  A    between atoms: C8_12  and  C9_13
REMARK    7  A    between atoms: C9_13  and  O1_15
REMARK    8  A    between atoms: C12_20  and  N4_21
REMARK    9  A    between atoms: N5_24  and  C15_25
REMARK   10  A    between atoms: C18_30  and  N7_31
ROOT
HETATM    1  C7  UNL     1       7.165  -0.060  24.539  1.00  0.00     0.133 A
HETATM    2  N2  UNL     1       8.114   0.873  24.450  1.00  0.00    -0.328 N
ATOM      3  H2  UNL     1       9.029   0.706  24.869  1.00  0.00     0.169 HD
HETATM    4  C8  UNL     1       7.877   2.019  23.818  1.00  0.00     0.112 A
HETATM    5  N3  UNL     1       6.676   2.251  23.263  1.00  0.00    -0.339 N
ATOM      6  H3  UNL     1       6.521   3.139  22.786  1.00  0.00     0.167 HD
HETATM    7  C11 UNL     1       5.675   1.362  23.313  1.00  0.00     0.110 A
HETATM    8  C12 UNL     1       4.451   1.606  22.757  1.00  0.00     0.150 A
HETATM    9  N6  UNL     1       3.491   0.654  22.863  1.00  0.00    -0.175 N
ATOM     10  H6  UNL     1       2.575   0.830  22.451  1.00  0.00     0.186 HD
HETATM   11  C18 UNL     1       3.708  -0.513  23.496  1.00  0.00     0.678 A
HETATM   12  N8  UNL     1       4.912  -0.741  24.039  1.00  0.00    -0.186 N
ATOM     13  H8  UNL     1       5.083  -1.623  24.521  1.00  0.00     0.184 HD
HETATM   14  C19 UNL     1       5.912   0.182  23.959  1.00  0.00     0.123 A
ENDROOT
BRANCH   1  15
HETATM   15  N1  UNL     1       7.271  -1.175  25.123  1.00  0.00    -0.370 N
ATOM     16  H1  UNL     1       7.447  -1.981  24.523  1.00  0.00     0.161 HD
BRANCH  15  17
HETATM   17  C4  UNL     1       7.178  -1.439  26.491  1.00  0.00     0.082 C
BRANCH  17  18
HETATM   18  C3  UNL     1       5.896  -1.250  27.205  1.00  0.00     0.024 C
BRANCH  18  19
HETATM   19  C2  UNL     1       4.771  -2.165  26.906  1.00  0.00    -0.002 C
HETATM   20  C1  UNL     1       3.496  -1.424  27.376  1.00  0.00     0.005 C
ENDBRANCH  18  19
ENDBRANCH  17  18
BRANCH  17  21
HETATM   21  C5  UNL     1       8.130  -0.388  27.157  1.00  0.00     0.021 C
HETATM   22  C6  UNL     1       9.124  -1.171  27.996  1.00  0.00     0.007 C
ENDBRANCH  17  21
ENDBRANCH  15  17
ENDBRANCH   1  15
BRANCH   4  23
HETATM   23  C9  UNL     1       8.997   3.002  23.720  1.00  0.00     0.181 C
HETATM   24  C10 UNL     1      10.249   2.354  24.267  1.00  0.00     0.047 C
BRANCH  23  25
HETATM   25  O1  UNL     1       8.769   4.164  24.430  1.00  0.00    -0.388 OA
ATOM     26  H1  UNL     1       9.500   4.419  24.979  1.00  0.00     0.210 HD
ENDBRANCH  23  25
ENDBRANCH   4  23
BRANCH   8  27
HETATM   27  N4  UNL     1       4.204   2.835  22.077  1.00  0.00    -0.338 N
HETATM   28  C13 UNL     1       4.943   3.399  20.962  1.00  0.00     0.156 C
HETATM   29  C14 UNL     1       3.952   4.295  20.290  1.00  0.00     0.294 C
HETATM   30  N5  UNL     1       2.985   4.658  21.291  1.00  0.00     0.107 N
HETATM   31  C17 UNL     1       3.160   3.783  22.407  1.00  0.00     0.399 C
BRANCH  30  32
HETATM   32  C15 UNL     1       3.144   6.053  21.651  1.00  0.00     0.270 C
HETATM   33  C16 UNL     1       2.729   6.235  23.081  1.00  0.00     0.037 C
ENDBRANCH  30  32
ENDBRANCH   8  27
BRANCH  11  34
HETATM   34  N7  UNL     1       2.738  -1.358  23.537  1.00  0.00    -0.234 N
ATOM     35  H72 UNL     1       2.406  -1.791  24.399  1.00  0.00     0.174 HD
ATOM     36  H71 UNL     1       2.290  -1.607  22.656  1.00  0.00     0.174 HD
ENDBRANCH  11  34
TORSDOF 10
ENDMDL