MODEL 5
REMARK VINA RESULT: -6.754753147      1.558      2.987
REMARK  11 active torsions:
REMARK  status: ('A' for Active; 'I' for Inactive)
REMARK    1  A    between atoms: O1_2  and  C2_3
REMARK    2  A    between atoms: C4_5  and  C5_6
REMARK    3  A    between atoms: C5_6  and  O2_7
REMARK    4  A    between atoms: C6_9  and  C7_10
REMARK    5  A    between atoms: C7_10  and  C8_11
REMARK    6  A    between atoms: C9_14  and  N2_15
REMARK    7  A    between atoms: N2_15  and  C10_16
REMARK    8  A    between atoms: C10_16  and  C13_19
REMARK    9  A    between atoms: C13_19  and  O3_20
REMARK   10  A    between atoms: C14_24  and  N4_25
REMARK   11  A    between atoms: C18_32  and  O4_33
ROOT
HETATM    1  C8  UNL     1       3.021   3.924  21.681  1.00  0.00     0.042 A
HETATM    2  N1  UNL     1       3.164   3.205  20.545  1.00  0.00    -0.318 N
ATOM      3  H1  UNL     1       3.437   2.227  20.634  1.00  0.00     0.170 HD
HETATM    4  C9  UNL     1       2.972   3.690  19.308  1.00  0.00     0.256 A
HETATM    5  N3  UNL     1       2.609   5.011  19.184  1.00  0.00    -0.301 N
ATOM      6  H3  UNL     1       2.466   5.415  18.259  1.00  0.00     0.171 HD
HETATM    7  C14 UNL     1       2.445   5.753  20.257  1.00  0.00     0.125 A
HETATM    8  C15 UNL     1       2.651   5.210  21.534  1.00  0.00     0.111 A
HETATM    9  C16 UNL     1       2.318   6.133  22.630  1.00  0.00     0.105 C
HETATM   10  N5  UNL     1       2.025   6.863  23.450  1.00  0.00    -0.191 NA
ENDROOT
BRANCH   1  11
HETATM   11  C7  UNL     1       3.274   3.385  23.012  1.00  0.00     0.098 C
BRANCH  11  12
HETATM   12  C6  UNL     1       4.096   2.153  23.111  1.00  0.00    -0.041 A
HETATM   13  C4  UNL     1       3.622   0.942  23.486  1.00  0.00    -0.025 A
HETATM   14  C3  UNL     1       4.529  -0.132  23.606  1.00  0.00     0.049 A
HETATM   15  C2  UNL     1       5.864   0.004  23.346  1.00  0.00     0.102 A
HETATM   16  C18 UNL     1       6.306   1.251  22.965  1.00  0.00     0.102 A
HETATM   17  C17 UNL     1       5.450   2.299  22.850  1.00  0.00     0.047 A
BRANCH  13  18
HETATM   18  C5  UNL     1       2.154   0.682  23.634  1.00  0.00     0.203 C
BRANCH  18  19
HETATM   19  O2  UNL     1       1.892  -0.017  24.866  1.00  0.00    -0.396 OA
ATOM     20  H2  UNL     1       1.563  -0.890  24.686  1.00  0.00     0.209 HD
ENDBRANCH  18  19
ENDBRANCH  13  18
BRANCH  15  21
HETATM   21  O1  UNL     1       6.797  -1.039  23.413  1.00  0.00    -0.353 OA
HETATM   22  C1  UNL     1       6.940  -1.764  24.644  1.00  0.00     0.210 C
ENDBRANCH  15  21
BRANCH  16  23
HETATM   23  O4  UNL     1       7.678   1.430  22.698  1.00  0.00    -0.353 OA
HETATM   24  C19 UNL     1       8.457   2.186  23.602  1.00  0.00     0.210 C
ENDBRANCH  16  23
ENDBRANCH  11  12
ENDBRANCH   1  11
BRANCH   7  25
HETATM   25  N4  UNL     1       2.117   7.008  20.103  1.00  0.00    -0.384 N
ATOM     26  H42 UNL     1       1.539   7.309  19.318  1.00  0.00     0.157 HD
ATOM     27  H41 UNL     1       2.431   7.684  20.799  1.00  0.00     0.157 HD
ENDBRANCH   7  25
BRANCH   4  28
HETATM   28  N2  UNL     1       3.050   3.063  18.282  1.00  0.00    -0.402 NA
BRANCH  28  29
HETATM   29  C10 UNL     1       3.040   2.499  17.079  1.00  0.00     0.110 C
HETATM   30  C11 UNL     1       3.860   1.215  16.969  1.00  0.00     0.056 C
HETATM   31  C12 UNL     1       3.671   3.436  15.990  1.00  0.00     0.056 C
BRANCH  29  32
HETATM   32  C13 UNL     1       1.706   2.127  16.431  1.00  0.00     0.209 C
BRANCH  32  33
HETATM   33  O3  UNL     1       1.348   0.795  16.751  1.00  0.00    -0.397 OA
ATOM     34  H3  UNL     1       1.271   0.268  15.964  1.00  0.00     0.209 HD
ENDBRANCH  32  33
ENDBRANCH  29  32
ENDBRANCH  28  29
ENDBRANCH   4  28
TORSDOF 11
ENDMDL