MODEL 5
REMARK VINA RESULT: -7.762441966      1.356      2.338
REMARK  8 active torsions:
REMARK  status: ('A' for Active; 'I' for Inactive)
REMARK    1  A    between atoms: C2_2  and  N1_3
REMARK    2  A    between atoms: N1_3  and  C3_4
REMARK    3  A    between atoms: N1_3  and  C17_35
REMARK    4  A    between atoms: C8_15  and  C9_16
REMARK    5  A    between atoms: C12_25  and  N8_26
REMARK    6  A    between atoms: N8_26  and  C13_28
REMARK    7  A    between atoms: C13_28  and  C14_29
REMARK    8  A    between atoms: C14_29  and  O1_30
ROOT
HETATM    1  C3  UNL     1       2.193   5.774  19.924  1.00  0.00     0.119 A
HETATM    2  N2  UNL     1       2.003   6.498  18.756  1.00  0.00    -0.327 N
ATOM      3  H2  UNL     1       1.520   7.394  18.816  1.00  0.00     0.169 HD
HETATM    4  C4  UNL     1       2.420   6.086  17.561  1.00  0.00     0.121 A
HETATM    5  N3  UNL     1       2.208   6.821  16.501  1.00  0.00    -0.384 N
ATOM      6  H31 UNL     1       2.526   6.506  15.586  1.00  0.00     0.157 HD
ATOM      7  H32 UNL     1       1.719   7.709  16.616  1.00  0.00     0.157 HD
HETATM    8  C5  UNL     1       3.078   4.888  17.407  1.00  0.00     0.089 A
HETATM    9  C6  UNL     1       3.549   4.390  16.148  1.00  0.00     0.103 C
HETATM   10  N4  UNL     1       3.943   3.990  15.148  1.00  0.00    -0.191 NA
HETATM   11  C7  UNL     1       3.283   4.152  18.526  1.00  0.00     0.045 A
HETATM   12  C8  UNL     1       2.840   4.590  19.804  1.00  0.00     0.054 A
ENDROOT
BRANCH  12  13
HETATM   13  C9  UNL     1       3.197   3.722  20.910  1.00  0.00     0.121 A
HETATM   14  N5  UNL     1       2.375   3.155  21.785  1.00  0.00    -0.326 N
HETATM   15  C10 UNL     1       3.117   2.486  22.679  1.00  0.00     0.139 A
ATOM     16  H5  UNL     1       1.357   3.218  21.778  1.00  0.00     0.169 HD
HETATM   17  N6  UNL     1       2.836   1.743  23.759  1.00  0.00    -0.337 N
HETATM   18  C16 UNL     1       4.450   2.630  22.367  1.00  0.00     0.122 A
HETATM   19  C11 UNL     1       3.821   1.163  24.503  1.00  0.00     0.183 A
ATOM     20  H6  UNL     1       1.862   1.608  24.030  1.00  0.00     0.168 HD
HETATM   21  N7  UNL     1       5.136   1.322  24.171  1.00  0.00    -0.337 N
HETATM   22  C12 UNL     1       5.462   2.057  23.098  1.00  0.00     0.133 A
ATOM     23  H7  UNL     1       5.864   0.885  24.736  1.00  0.00     0.168 HD
HETATM   24  N9  UNL     1       4.459   3.400  21.267  1.00  0.00    -0.336 N
ATOM     25  H9  UNL     1       5.300   3.698  20.771  1.00  0.00     0.168 HD
BRANCH  22  26
HETATM   26  N8  UNL     1       6.699   2.197  22.794  1.00  0.00    -0.372 N
ATOM     27  H8  UNL     1       6.898   2.526  21.849  1.00  0.00     0.161 HD
BRANCH  26  28
HETATM   28  C13 UNL     1       7.827   1.946  23.621  1.00  0.00     0.147 C
BRANCH  28  29
HETATM   29  C14 UNL     1       7.716   0.554  24.207  1.00  0.00     0.186 C
BRANCH  29  30
HETATM   30  O1  UNL     1       7.945   0.649  25.560  1.00  0.00    -0.394 OA
HETATM   31  C15 UNL     1       7.363  -0.411  26.260  1.00  0.00     0.201 C
ENDBRANCH  29  30
ENDBRANCH  28  29
ENDBRANCH  26  28
ENDBRANCH  22  26
ENDBRANCH  12  13
BRANCH   1  32
HETATM   32  N1  UNL     1       1.620   6.352  21.100  1.00  0.00    -0.363 N
BRANCH  32  33
HETATM   33  C2  UNL     1       0.219   6.340  21.366  1.00  0.00     0.120 C
HETATM   34  C1  UNL     1      -0.663   5.304  20.826  1.00  0.00     0.026 C
ENDBRANCH  32  33
BRANCH  32  35
HETATM   35  C17 UNL     1       2.467   7.153  21.940  1.00  0.00     0.077 C
HETATM   36  C18 UNL     1       2.163   8.595  22.068  1.00  0.00     0.032 C
HETATM   37  C19 UNL     1       2.519   6.540  23.321  1.00  0.00     0.032 C
ENDBRANCH  32  35
ENDBRANCH   1  32
TORSDOF 8
ENDMDL