MODEL 2
REMARK VINA RESULT: -7.540171260      2.508      3.867
REMARK  9 active torsions:
REMARK  status: ('A' for Active; 'I' for Inactive)
REMARK    1  A    between atoms: O1_2  and  C2_3
REMARK    2  A    between atoms: C2_3  and  C3_5
REMARK    3  A    between atoms: C3_5  and  C4_6
REMARK    4  A    between atoms: C3_5  and  C12_18
REMARK    5  A    between atoms: C4_6  and  C5_7
REMARK    6  A    between atoms: C11_15  and  O3_16
REMARK    7  A    between atoms: C12_18  and  C13_19
REMARK    8  A    between atoms: C12_18  and  N2_23
REMARK    9  A    between atoms: C13_19  and  C14_20
REMARK       I    between atoms: N2_23  and  C15_25
ROOT
HETATM    1  C3  UNL     1       2.823   3.936  16.643  1.00  0.00     0.112 C
ENDROOT
BRANCH   1   2
HETATM    2  C2  UNL     1       3.228   5.282  16.322  1.00  0.00     0.265 C
HETATM    3  O2  UNL     1       2.596   6.325  16.743  1.00  0.00    -0.265 OA
BRANCH   2   4
HETATM    4  O1  UNL     1       4.330   5.627  15.531  1.00  0.00    -0.326 OA
HETATM    5  C1  UNL     1       4.319   5.671  14.136  1.00  0.00     0.213 C
ENDBRANCH   2   4
ENDBRANCH   1   2
BRANCH   1   6
HETATM    6  C4  UNL     1       3.041   3.567  18.102  1.00  0.00     0.044 C
BRANCH   6   7
HETATM    7  C5  UNL     1       1.941   3.954  18.975  1.00  0.00    -0.020 C
HETATM    8  C6  UNL     1       2.122   4.487  20.150  1.00  0.00    -0.045 C
HETATM    9  C7  UNL     1       3.551   4.652  20.486  1.00  0.00     0.037 C
HETATM   10  C11 UNL     1       0.847   4.796  20.866  1.00  0.00     0.219 C
HETATM   11  C8  UNL     1       3.764   5.165  21.893  1.00  0.00     0.005 C
HETATM   12  C9  UNL     1       3.460   6.634  22.019  1.00  0.00     0.011 C
HETATM   13  C10 UNL     1       2.699   6.835  23.315  1.00  0.00     0.086 C
HETATM   14  S1  UNL     1       0.951   7.241  22.978  1.00  0.00    -0.095 SA
HETATM   15  S2  UNL     1       0.543   6.580  20.975  1.00  0.00    -0.061 SA
BRANCH  10  16
HETATM   16  O3  UNL     1      -0.250   4.232  20.247  1.00  0.00    -0.380 OA
ATOM     17  H3  UNL     1      -0.827   4.887  19.871  1.00  0.00     0.211 HD
ENDBRANCH  10  16
ENDBRANCH   6   7
ENDBRANCH   1   6
BRANCH   1  18
HETATM   18  C12 UNL     1       3.645   2.908  15.801  1.00  0.00     0.106 C
BRANCH  18  19
HETATM   19  C13 UNL     1       2.697   2.439  14.743  1.00  0.00     0.125 C
BRANCH  19  20
HETATM   20  C14 UNL     1       1.281   2.423  15.043  1.00  0.00     0.233 C
HETATM   21  N1  UNL     1       0.783   1.452  15.980  1.00  0.00    -0.062 NA
HETATM   22  O4  UNL     1       0.455   3.193  14.548  1.00  0.00    -0.277 OA
ENDBRANCH  19  20
ENDBRANCH  18  19
BRANCH  18  23
HETATM   23  N2  UNL     1       3.856   1.812  16.767  1.00  0.00    -0.359 N
HETATM   24  C15 UNL     1       3.878   0.439  16.490  1.00  0.00     0.182 C
HETATM   25  N3  UNL     1       3.026  -0.350  17.049  1.00  0.00    -0.374 N
HETATM   26  N4  UNL     1       4.858  -0.098  15.616  1.00  0.00    -0.064 NA
ATOM     27  H32 UNL     1       2.322   0.036  17.678  1.00  0.00     0.158 HD
ATOM     28  H31 UNL     1       3.043  -1.350  16.847  1.00  0.00     0.158 HD
ATOM     29  H2  UNL     1       4.001   2.083  17.740  1.00  0.00     0.162 HD
ENDBRANCH  18  23
ENDBRANCH   1  18
TORSDOF 9
ENDMDL