MODEL 3
REMARK VINA RESULT: -7.720255546      1.187      1.241
REMARK  11 active torsions:
REMARK  status: ('A' for Active; 'I' for Inactive)
REMARK    1  A    between atoms: C2_2  and  C3_3
REMARK    2  A    between atoms: C2_2  and  C14_27
REMARK    3  A    between atoms: C3_3  and  O1_7
REMARK    4  A    between atoms: O1_7  and  C4_8
REMARK    5  A    between atoms: C4_8  and  N2_9
REMARK       I    between atoms: N2_9  and  C5_11
REMARK       I    between atoms: C5_11  and  N3_13
REMARK    6  A    between atoms: N3_13  and  S1_15
REMARK    7  A    between atoms: S1_15  and  N4_18
REMARK    8  A    between atoms: N4_18  and  C6_19
REMARK    9  A    between atoms: N4_18  and  C10_23
REMARK   10  A    between atoms: C14_27  and  O5_28
REMARK   11  A    between atoms: N5_30  and  O6_32
ROOT
HETATM    1  N2  UNL     1       3.177   6.337  16.357  1.00  0.00    -0.321 N
ATOM      2  H2  UNL     1       2.664   7.117  15.947  1.00  0.00     0.166 HD
HETATM    3  C5  UNL     1       2.756   5.815  17.611  1.00  0.00     0.332 C
HETATM    4  O2  UNL     1       3.413   4.860  18.080  1.00  0.00    -0.246 OA
HETATM    5  N3  UNL     1       1.656   6.319  18.329  1.00  0.00    -0.219 N
ATOM      6  H3  UNL     1       1.111   7.095  17.953  1.00  0.00     0.185 HD
ENDROOT
BRANCH   1   7
HETATM    7  C4  UNL     1       4.315   5.791  15.645  1.00  0.00     0.304 C
BRANCH   7   8
HETATM    8  O1  UNL     1       4.131   4.460  15.271  1.00  0.00    -0.319 OA
BRANCH   8   9
HETATM    9  C3  UNL     1       2.905   3.950  14.806  1.00  0.00     0.125 C
HETATM   10  N1  UNL     1       2.388   4.421  13.748  1.00  0.00    -0.383 N
ATOM     11  H12 UNL     1       1.499   4.052  13.410  1.00  0.00     0.158 HD
ATOM     12  H11 UNL     1       2.849   5.167  13.226  1.00  0.00     0.158 HD
BRANCH   9  13
HETATM   13  C2  UNL     1       2.241   2.876  15.560  1.00  0.00     0.132 C
HETATM   14  C1  UNL     1       1.066   2.328  14.761  1.00  0.00     0.027 C
BRANCH  13  15
HETATM   15  C14 UNL     1       3.148   1.757  15.876  1.00  0.00     0.147 C
HETATM   16  N5  UNL     1       3.446   1.420  17.108  1.00  0.00    -0.250 N
ATOM     17  H5  UNL     1       4.076   0.642  17.304  1.00  0.00     0.196 HD
BRANCH  15  18
HETATM   18  O5  UNL     1       3.755   0.973  14.899  1.00  0.00    -0.348 OA
ATOM     19  H5  UNL     1       4.493   0.401  15.078  1.00  0.00     0.219 HD
ENDBRANCH  15  18
BRANCH  16  20
HETATM   20  O6  UNL     1       2.883   2.148  18.122  1.00  0.00    -0.288 OA
ATOM     21  H6  UNL     1       2.101   1.799  18.535  1.00  0.00     0.244 HD
ENDBRANCH  16  20
ENDBRANCH  13  15
ENDBRANCH   9  13
ENDBRANCH   8   9
ENDBRANCH   7   8
ENDBRANCH   1   7
BRANCH   5  22
HETATM   22  S1  UNL     1       1.233   5.611  19.863  1.00  0.00     0.326 S
HETATM   23  O3  UNL     1      -0.217   5.993  20.116  1.00  0.00    -0.182 OA
HETATM   24  O4  UNL     1       1.153   4.102  19.624  1.00  0.00    -0.182 OA
BRANCH  22  25
HETATM   25  N4  UNL     1       2.197   6.055  21.127  1.00  0.00    -0.280 N
BRANCH  25  26
HETATM   26  C6  UNL     1       3.094   5.160  21.736  1.00  0.00     0.098 C
HETATM   27  C7  UNL     1       2.807   3.709  21.862  1.00  0.00     0.026 C
HETATM   28  C8  UNL     1       4.315   3.477  21.629  1.00  0.00     0.004 C
HETATM   29  C9  UNL     1       4.276   4.810  20.875  1.00  0.00     0.026 C
ENDBRANCH  25  26
BRANCH  25  30
HETATM   30  C10 UNL     1       2.001   7.280  21.809  1.00  0.00     0.034 C
HETATM   31  C11 UNL     1       2.032   8.479  20.838  1.00  0.00     0.038 C
HETATM   32  C12 UNL     1       0.732   7.442  22.585  1.00  0.00     0.038 C
HETATM   33  C13 UNL     1       3.143   7.539  22.802  1.00  0.00     0.038 C
ENDBRANCH  25  30
ENDBRANCH  22  25
ENDBRANCH   5  22
TORSDOF 11
ENDMDL