MODEL 5
REMARK VINA RESULT: -7.793952331      3.413      7.724
REMARK  11 active torsions:
REMARK  status: ('A' for Active; 'I' for Inactive)
REMARK    1  A    between atoms: O1_2  and  C2_3
REMARK    2  A    between atoms: C2_3  and  C3_4
REMARK    3  A    between atoms: C3_4  and  C4_5
REMARK    4  A    between atoms: C4_5  and  N1_6
REMARK       I    between atoms: N1_6  and  C5_8
REMARK    5  A    between atoms: C5_8  and  C6_10
REMARK    6  A    between atoms: C9_13  and  C10_14
REMARK    7  A    between atoms: C9_13  and  O3_20
REMARK    8  A    between atoms: C10_14  and  N2_15
REMARK    9  A    between atoms: O3_20  and  C15_21
REMARK   10  A    between atoms: C15_21  and  N4_26
REMARK   11  A    between atoms: N3_22  and  O4_24
REMARK       I    between atoms: N4_26  and  C16_28
ROOT
HETATM    1  C6  UNL     1      -0.104   6.895  20.273  1.00  0.00     0.078 C
HETATM    2  C7  UNL     1       1.282   7.409  19.845  1.00  0.00     0.017 C
HETATM    3  C8  UNL     1       1.502   6.732  18.474  1.00  0.00     0.041 C
HETATM    4  C9  UNL     1       1.936   5.360  18.721  1.00  0.00     0.097 C
HETATM    5  C17 UNL     1       0.764   4.659  19.446  1.00  0.00     0.041 C
HETATM    6  C18 UNL     1      -0.390   5.541  19.745  1.00  0.00     0.017 C
ENDROOT
BRANCH   4   7
HETATM    7  C10 UNL     1       2.164   4.561  17.479  1.00  0.00     0.310 C
BRANCH   7   8
HETATM    8  N2  UNL     1       3.501   4.151  17.240  1.00  0.00     0.091 N
HETATM    9  C11 UNL     1       4.105   5.030  16.193  1.00  0.00     0.272 C
HETATM   10  C12 UNL     1       3.306   4.707  14.953  1.00  0.00     0.032 C
HETATM   11  C13 UNL     1       2.988   3.261  15.162  1.00  0.00     0.032 C
HETATM   12  C14 UNL     1       3.625   2.907  16.509  1.00  0.00     0.272 C
ENDBRANCH   7   8
ENDBRANCH   4   7
BRANCH   4  13
HETATM   13  O3  UNL     1       3.001   5.224  19.643  1.00  0.00    -0.307 OA
BRANCH  13  14
HETATM   14  C15 UNL     1       3.014   4.436  20.751  1.00  0.00     0.248 C
HETATM   15  N3  UNL     1       3.513   3.285  20.660  1.00  0.00    -0.232 N
ATOM     16  H3  UNL     1       3.893   2.968  19.768  1.00  0.00     0.198 HD
BRANCH  15  17
HETATM   17  O4  UNL     1       3.549   2.456  21.748  1.00  0.00    -0.287 OA
ATOM     18  H4  UNL     1       2.822   2.430  22.358  1.00  0.00     0.244 HD
ENDBRANCH  15  17
BRANCH  14  19
HETATM   19  N4  UNL     1       2.479   4.875  22.011  1.00  0.00    -0.275 N
HETATM   20  C16 UNL     1       3.155   5.901  22.686  1.00  0.00     0.335 C
HETATM   21  N5  UNL     1       2.677   6.378  23.922  1.00  0.00    -0.040 NA
HETATM   22  O5  UNL     1       4.186   6.403  22.197  1.00  0.00    -0.251 OA
ATOM     23  H4  UNL     1       1.636   4.453  22.400  1.00  0.00     0.173 HD
ENDBRANCH  14  19
ENDBRANCH  13  14
ENDBRANCH   4  13
BRANCH   1  24
HETATM   24  C5  UNL     1      -0.339   7.108  21.690  1.00  0.00     0.221 C
HETATM   25  N1  UNL     1      -1.509   6.725  22.343  1.00  0.00    -0.361 N
ATOM     26  H1  UNL     1      -2.237   6.261  21.801  1.00  0.00     0.162 HD
HETATM   27  O2  UNL     1       0.587   7.682  22.352  1.00  0.00    -0.273 OA
BRANCH  25  28
HETATM   28  C4  UNL     1      -1.742   6.952  23.747  1.00  0.00     0.124 C
BRANCH  28  29
HETATM   29  C3  UNL     1      -3.168   6.867  24.176  1.00  0.00     0.046 C
BRANCH  29  30
HETATM   30  C2  UNL     1      -3.388   5.422  24.661  1.00  0.00     0.168 C
BRANCH  30  31
HETATM   31  O1  UNL     1      -3.312   4.598  23.547  1.00  0.00    -0.396 OA
HETATM   32  C1  UNL     1      -4.338   3.660  23.513  1.00  0.00     0.201 C
ENDBRANCH  30  31
ENDBRANCH  29  30
ENDBRANCH  28  29
ENDBRANCH  25  28
ENDBRANCH   1  24
TORSDOF 11
ENDMDL