MODEL 3
REMARK VINA RESULT: -7.891825095      2.660      6.540
REMARK  7 active torsions:
REMARK  status: ('A' for Active; 'I' for Inactive)
REMARK    1  A    between atoms: C2_2  and  C3_3
REMARK    2  A    between atoms: C3_3  and  N1_5
REMARK       I    between atoms: N1_5  and  C5_7
REMARK    3  A    between atoms: C5_7  and  C6_9
REMARK    4  A    between atoms: C6_9  and  N2_10
REMARK    5  A    between atoms: C6_9  and  C11_18
REMARK       I    between atoms: N2_10  and  C7_12
REMARK    6  A    between atoms: C7_12  and  C8_14
REMARK    7  A    between atoms: C8_14  and  S1_16
ROOT
HETATM    1  C6  UNL     1       3.559   4.566  20.804  1.00  0.00     0.234 C
ENDROOT
BRANCH   1   2
HETATM    2  C5  UNL     1       3.780   3.513  21.849  1.00  0.00     0.247 C
HETATM    3  N1  UNL     1       5.020   2.833  21.958  1.00  0.00    -0.355 N
ATOM      4  H1  UNL     1       5.772   3.069  21.309  1.00  0.00     0.162 HD
HETATM    5  O1  UNL     1       2.814   3.272  22.615  1.00  0.00    -0.271 OA
BRANCH   3   6
HETATM    6  C3  UNL     1       5.254   1.817  22.957  1.00  0.00     0.080 C
HETATM    7  C4  UNL     1       4.219   0.732  22.939  1.00  0.00     0.032 C
BRANCH   6   8
HETATM    8  C2  UNL     1       6.631   1.200  22.831  1.00  0.00     0.020 C
HETATM    9  C1  UNL     1       6.535  -0.300  23.110  1.00  0.00     0.007 C
ENDBRANCH   6   8
ENDBRANCH   3   6
ENDBRANCH   1   2
BRANCH   1  10
HETATM   10  N2  UNL     1       2.591   5.543  21.162  1.00  0.00    -0.341 N
HETATM   11  C7  UNL     1       2.838   6.638  22.014  1.00  0.00     0.232 C
HETATM   12  O2  UNL     1       3.958   6.845  22.542  1.00  0.00    -0.272 OA
ATOM     13  H2  UNL     1       1.652   5.445  20.775  1.00  0.00     0.163 HD
BRANCH  11  14
HETATM   14  C8  UNL     1       1.747   7.619  22.329  1.00  0.00     0.134 C
HETATM   15  C9  UNL     1       2.130   8.942  21.687  1.00  0.00     0.031 C
BRANCH  14  16
HETATM   16  S1  UNL     1       0.253   7.031  21.442  1.00  0.00    -0.160 SA
HETATM   17  C10 UNL     1      -1.206   7.211  22.499  1.00  0.00     0.090 C
ENDBRANCH  14  16
ENDBRANCH  11  14
ENDBRANCH   1  10
BRANCH   1  18
HETATM   18  C11 UNL     1       3.360   3.970  19.446  1.00  0.00     0.087 A
HETATM   19  N3  UNL     1       3.109   2.723  19.097  1.00  0.00    -0.336 N
HETATM   20  C12 UNL     1       2.968   2.410  17.835  1.00  0.00     0.142 A
ATOM     21  H3  UNL     1       3.025   2.001  19.812  1.00  0.00     0.168 HD
HETATM   22  N4  UNL     1       2.705   1.155  17.343  1.00  0.00    -0.322 N
HETATM   23  C15 UNL     1       3.092   3.417  16.920  1.00  0.00     0.123 A
HETATM   24  C13 UNL     1       2.583   0.963  16.041  1.00  0.00     0.170 A
ATOM     25  H4  UNL     1       2.604   0.369  17.984  1.00  0.00     0.169 HD
HETATM   26  N5  UNL     1       2.335  -0.236  15.610  1.00  0.00    -0.381 N
HETATM   27  C14 UNL     1       2.704   1.962  15.093  1.00  0.00     0.290 A
ATOM     28  H52 UNL     1       2.246  -0.973  16.309  1.00  0.00     0.157 HD
ATOM     29  H51 UNL     1       2.241  -0.384  14.605  1.00  0.00     0.157 HD
HETATM   30  O3  UNL     1       2.584   1.758  13.862  1.00  0.00    -0.264 OA
HETATM   31  N6  UNL     1       2.961   3.190  15.575  1.00  0.00    -0.311 N
ATOM     32  H6  UNL     1       3.062   3.970  14.926  1.00  0.00     0.170 HD
HETATM   33  S2  UNL     1       3.405   4.761  17.930  1.00  0.00    -0.052 SA
ENDBRANCH   1  18
TORSDOF 7
ENDMDL