MODEL 1
REMARK VINA RESULT: -7.998418574      0.000      0.000
REMARK  9 active torsions:
REMARK  status: ('A' for Active; 'I' for Inactive)
REMARK    1  A    between atoms: O1_2  and  C2_3
REMARK    2  A    between atoms: C5_6  and  N1_7
REMARK    3  A    between atoms: N1_7  and  C6_9
REMARK    4  A    between atoms: C6_9  and  C7_10
REMARK    5  A    between atoms: C7_10  and  N2_11
REMARK    6  A    between atoms: C9_16  and  C10_17
REMARK    7  A    between atoms: C10_17  and  O2_20
REMARK    8  A    between atoms: C15_27  and  O4_28
REMARK    9  A    between atoms: C17_30  and  O5_31
ROOT
HETATM    1  C2  UNL     1       3.341   2.420  17.374  1.00  0.00     0.105 A
HETATM    2  C3  UNL     1       3.093   2.947  18.644  1.00  0.00     0.055 A
HETATM    3  C4  UNL     1       2.722   4.272  18.790  1.00  0.00     0.024 A
HETATM    4  C5  UNL     1       2.446   4.803  20.069  1.00  0.00     0.055 A
HETATM    5  C9  UNL     1       2.046   6.143  20.185  1.00  0.00     0.070 A
HETATM    6  C13 UNL     1       1.932   6.916  19.038  1.00  0.00     0.257 A
HETATM    7  O3  UNL     1       1.576   8.106  19.147  1.00  0.00    -0.267 OA
HETATM    8  N5  UNL     1       2.203   6.381  17.828  1.00  0.00    -0.320 N
ATOM      9  H5  UNL     1       2.116   6.959  16.991  1.00  0.00     0.169 HD
HETATM   10  C14 UNL     1       2.585   5.106  17.711  1.00  0.00     0.084 A
HETATM   11  C15 UNL     1       2.829   4.589  16.451  1.00  0.00     0.132 A
HETATM   12  C17 UNL     1       3.198   3.271  16.316  1.00  0.00     0.137 A
ENDROOT
BRANCH   4  13
HETATM   13  N1  UNL     1       2.585   3.910  21.124  1.00  0.00    -0.387 N
ATOM     14  H1  UNL     1       1.718   3.612  21.570  1.00  0.00     0.159 HD
BRANCH  13  15
HETATM   15  C6  UNL     1       3.771   3.361  21.658  1.00  0.00     0.139 C
BRANCH  15  16
HETATM   16  C7  UNL     1       3.659   2.585  22.952  1.00  0.00     0.141 C
BRANCH  16  17
HETATM   17  N2  UNL     1       3.582   1.140  22.647  1.00  0.00    -0.365 N
HETATM   18  C8  UNL     1       3.605   0.243  23.552  1.00  0.00     0.197 C
HETATM   19  N3  UNL     1       3.525  -1.116  23.145  1.00  0.00    -0.067 NA
HETATM   20  N4  UNL     1       3.706   0.602  24.924  1.00  0.00    -0.067 NA
ATOM     21  H2  UNL     1       3.507   0.850  21.672  1.00  0.00     0.161 HD
ENDBRANCH  16  17
ENDBRANCH  15  16
ENDBRANCH  13  15
ENDBRANCH   4  13
BRANCH   5  22
HETATM   22  C10 UNL     1       1.766   6.687  21.512  1.00  0.00     0.085 C
HETATM   23  C11 UNL     1       0.231   6.649  21.782  1.00  0.00     0.051 C
HETATM   24  C12 UNL     1       2.115   8.143  21.697  1.00  0.00     0.051 C
BRANCH  22  25
HETATM   25  O2  UNL     1       2.414   6.020  22.550  1.00  0.00    -0.386 OA
ATOM     26  H2  UNL     1       2.829   6.595  23.182  1.00  0.00     0.211 HD
ENDBRANCH  22  25
ENDBRANCH   5  22
BRANCH   1  27
HETATM   27  O1  UNL     1       3.715   1.095  17.197  1.00  0.00    -0.353 OA
HETATM   28  C1  UNL     1       2.767   0.065  17.179  1.00  0.00     0.210 C
ENDBRANCH   1  27
BRANCH  11  29
HETATM   29  O4  UNL     1       2.691   5.430  15.361  1.00  0.00    -0.351 OA
HETATM   30  C16 UNL     1       3.760   5.705  14.483  1.00  0.00     0.210 C
ENDBRANCH  11  29
BRANCH  12  31
HETATM   31  O5  UNL     1       3.433   2.796  15.035  1.00  0.00    -0.351 OA
HETATM   32  C18 UNL     1       2.364   2.174  14.347  1.00  0.00     0.210 C
ENDBRANCH  12  31
TORSDOF 9
ENDMDL