MODEL 1
REMARK VINA RESULT: -5.696966254      0.000      0.000
REMARK  5 active torsions:
REMARK  status: ('A' for Active; 'I' for Inactive)
REMARK    1  A    between atoms: O1_2  and  C2_3
REMARK    2  A    between atoms: C3_6  and  N2_7
REMARK    3  A    between atoms: C4_12  and  S1_13
REMARK    4  A    between atoms: S1_13  and  N4_14
REMARK    5  A    between atoms: N5_19  and  N6_20
ROOT
HETATM    1  C2  UNL     1      12.089  14.701  32.522  1.00  0.00     0.261 A
HETATM    2  N1  UNL     1      11.954  13.574  33.264  1.00  0.00    -0.153 N
ATOM      3  H1  UNL     1      12.779  13.200  33.734  1.00  0.00     0.188 HD
HETATM    4  C3  UNL     1      10.791  12.928  33.410  1.00  0.00     0.681 A
HETATM    5  N3  UNL     1       9.710  13.421  32.793  1.00  0.00    -0.163 N
ATOM      6  H3  UNL     1       8.814  12.942  32.891  1.00  0.00     0.186 HD
HETATM    7  C4  UNL     1       9.783  14.538  32.043  1.00  0.00     0.262 A
HETATM    8  N5  UNL     1      10.972  15.163  31.917  1.00  0.00    -0.196 N
ENDROOT
BRANCH   7   9
HETATM    9  S1  UNL     1       8.363  15.156  31.254  1.00  0.00     0.291 S
HETATM   10  O2  UNL     1       8.638  15.552  29.819  1.00  0.00    -0.198 OA
HETATM   11  O3  UNL     1       7.831  16.392  31.932  1.00  0.00    -0.198 OA
BRANCH   9  12
HETATM   12  N4  UNL     1       7.131  13.955  31.359  1.00  0.00    -0.322 N
ATOM     13  H42 UNL     1       6.794  13.531  32.224  1.00  0.00     0.169 HD
ATOM     14  H41 UNL     1       6.806  13.753  30.413  1.00  0.00     0.169 HD
ENDBRANCH   9  12
ENDBRANCH   7   9
BRANCH   8  15
HETATM   15  N6  UNL     1      10.985  16.319  31.125  1.00  0.00    -0.333 N
ATOM     16  H62 UNL     1      11.903  16.680  30.867  1.00  0.00     0.177 HD
ATOM     17  H61 UNL     1      10.124  16.773  30.823  1.00  0.00     0.177 HD
ENDBRANCH   8  15
BRANCH   4  18
HETATM   18  N2  UNL     1      10.710  11.842  34.138  1.00  0.00    -0.234 N
ATOM     19  H22 UNL     1      11.534  11.466  34.607  1.00  0.00     0.174 HD
ATOM     20  H21 UNL     1       9.823  11.351  34.250  1.00  0.00     0.174 HD
ENDBRANCH   4  18
BRANCH   1  21
HETATM   21  O1  UNL     1      13.273  15.370  32.365  1.00  0.00    -0.325 OA
HETATM   22  C1  UNL     1      14.238  15.146  31.382  1.00  0.00     0.213 C
ENDBRANCH   1  21
TORSDOF 5
ENDMDL