MODEL 2
REMARK VINA RESULT: -6.306219826      0.865      1.906
REMARK  2 active torsions:
REMARK  status: ('A' for Active; 'I' for Inactive)
REMARK    1  A    between atoms: C3_7  and  C4_8
REMARK    2  A    between atoms: N2_9  and  C5_11
ROOT
HETATM    1  C5  UNL     1       9.499  16.047  32.042  1.00  0.00     0.189 A
HETATM    2  N3  UNL     1       9.937  16.322  33.292  1.00  0.00    -0.277 N
ATOM      3  H3  UNL     1       9.324  16.817  33.940  1.00  0.00     0.189 HD
HETATM    4  N4  UNL     1      11.141  15.963  33.689  1.00  0.00    -0.250 N
ATOM      5  H4  UNL     1      11.427  16.192  34.642  1.00  0.00     0.192 HD
HETATM    6  C6  UNL     1      12.012  15.307  32.895  1.00  0.00     0.341 A
HETATM    7  O3  UNL     1      13.169  14.968  33.293  1.00  0.00    -0.245 OA
HETATM    8  N5  UNL     1      11.610  15.017  31.645  1.00  0.00    -0.271 N
ATOM      9  H5  UNL     1      12.240  14.521  31.015  1.00  0.00     0.174 HD
HETATM   10  C7  UNL     1      10.371  15.377  31.210  1.00  0.00     0.294 A
HETATM   11  O4  UNL     1      10.006  15.103  30.047  1.00  0.00    -0.264 OA
ENDROOT
BRANCH   1  12
HETATM   12  N2  UNL     1       8.206  16.426  31.595  1.00  0.00    -0.349 N
HETATM   13  C4  UNL     1       7.982  17.624  31.190  1.00  0.00     0.086 C
ATOM     14  H2  UNL     1       7.450  15.742  31.595  1.00  0.00     0.166 HD
BRANCH  13  15
HETATM   15  C3  UNL     1       6.654  18.080  30.711  1.00  0.00     0.208 C
HETATM   16  C1  UNL     1       6.652  19.563  30.602  1.00  0.00     0.242 C
HETATM   17  O1  UNL     1       6.951  20.324  29.656  1.00  0.00    -0.272 OA
HETATM   18  N1  UNL     1       6.198  19.612  31.945  1.00  0.00    -0.296 N
HETATM   19  C2  UNL     1       5.668  18.314  31.776  1.00  0.00     0.242 C
ATOM     20  H1  UNL     1       6.238  20.291  32.705  1.00  0.00     0.171 HD
HETATM   21  O2  UNL     1       4.751  17.673  32.318  1.00  0.00    -0.272 OA
ENDBRANCH  13  15
ENDBRANCH   1  12
TORSDOF 2
ENDMDL