MODEL 1
REMARK VINA RESULT: -6.773793459      0.000      0.000
REMARK  3 active torsions:
REMARK  status: ('A' for Active; 'I' for Inactive)
REMARK    1  A    between atoms: C2_5  and  N3_6
REMARK    2  A    between atoms: N5_12  and  C4_14
REMARK    3  A    between atoms: C4_14  and  C5_15
ROOT
HETATM    1  C1  UNL     1      13.530  15.064  32.212  1.00  0.00     0.182 C
HETATM    2  N1  UNL     1      12.089  14.930  32.293  1.00  0.00    -0.245 N
HETATM    3  N2  UNL     1      11.474  14.356  33.319  1.00  0.00    -0.128 N
ATOM      4  H2  UNL     1      12.033  13.990  34.090  1.00  0.00     0.206 HD
HETATM    5  C2  UNL     1      10.137  14.243  33.371  1.00  0.00     0.692 A
HETATM    6  N4  UNL     1       9.424  14.741  32.330  1.00  0.00    -0.170 N
ATOM      7  H4  UNL     1       8.408  14.666  32.348  1.00  0.00     0.186 HD
HETATM    8  C3  UNL     1      10.013  15.326  31.281  1.00  0.00     0.187 A
HETATM    9  N5  UNL     1       9.341  15.796  30.295  1.00  0.00    -0.364 N
ATOM     10  H5  UNL     1       9.810  16.238  29.504  1.00  0.00     0.161 HD
HETATM   11  C8  UNL     1      11.382  15.428  31.250  1.00  0.00     0.306 A
HETATM   12  O1  UNL     1      11.959  15.980  30.262  1.00  0.00    -0.262 OA
ENDROOT
BRANCH   9  13
HETATM   13  C4  UNL     1       7.894  15.683  30.336  1.00  0.00     0.197 C
BRANCH  13  14
HETATM   14  C5  UNL     1       7.367  17.065  30.507  1.00  0.00     0.090 C
HETATM   15  N6  UNL     1       7.391  17.715  31.622  1.00  0.00    -0.377 N
HETATM   16  C6  UNL     1       6.811  19.021  31.467  1.00  0.00     0.140 C
ATOM     17  H6  UNL     1       7.770  17.351  32.495  1.00  0.00     0.160 HD
HETATM   18  C7  UNL     1       6.846  19.223  29.967  1.00  0.00     0.140 C
HETATM   19  N7  UNL     1       6.773  17.856  29.486  1.00  0.00    -0.377 N
ATOM     20  H7  UNL     1       6.379  17.532  28.602  1.00  0.00     0.160 HD
ENDBRANCH  13  14
ENDBRANCH   9  13
BRANCH   5  21
HETATM   21  N3  UNL     1       9.543  13.685  34.369  1.00  0.00    -0.233 N
ATOM     22  H32 UNL     1       9.173  12.738  34.292  1.00  0.00     0.174 HD
ATOM     23  H31 UNL     1       9.424  14.168  35.260  1.00  0.00     0.174 HD
ENDBRANCH   5  21
TORSDOF 3
ENDMDL