MODEL 1
REMARK VINA RESULT: -6.423377773      0.000      0.000
REMARK  2 active torsions:
REMARK  status: ('A' for Active; 'I' for Inactive)
REMARK    1  A    between atoms: N1_1  and  C1_4
REMARK    2  A    between atoms: C2_7  and  N3_8
ROOT
HETATM    1  C1  UNL     1       7.629  17.384  29.162  1.00  0.00     0.705 A
HETATM    2  N2  UNL     1       8.350  17.254  30.283  1.00  0.00    -0.018 N
ATOM      3  H2  UNL     1       8.931  17.992  30.682  1.00  0.00     0.203 HD
HETATM    4  C2  UNL     1       8.213  16.029  30.816  1.00  0.00     0.729 A
HETATM    5  N6  UNL     1       7.361  15.388  29.967  1.00  0.00    -0.116 N
ATOM      6  H6  UNL     1       7.037  14.426  30.074  1.00  0.00     0.206 HD
HETATM    7  N7  UNL     1       7.018  16.200  28.984  1.00  0.00    -0.117 N
ATOM      8  H7  UNL     1       6.391  15.967  28.215  1.00  0.00     0.206 HD
ENDROOT
BRANCH   4   9
HETATM    9  N3  UNL     1       8.821  15.501  32.010  1.00  0.00    -0.110 N
HETATM   10  C3  UNL     1       9.423  16.429  32.888  1.00  0.00     0.189 C
HETATM   11  C4  UNL     1       9.727  16.060  34.258  1.00  0.00     0.156 C
HETATM   12  N4  UNL     1       9.697  14.696  34.649  1.00  0.00    -0.300 N
HETATM   13  S1  UNL     1      10.054  13.720  33.270  1.00  0.00     0.333 S
ATOM     14  H4  UNL     1       9.498  14.350  35.588  1.00  0.00     0.173 HD
HETATM   15  O1  UNL     1      11.338  14.206  32.692  1.00  0.00    -0.181 OA
HETATM   16  O2  UNL     1      10.065  12.263  33.588  1.00  0.00    -0.181 OA
HETATM   17  N5  UNL     1       8.750  14.117  32.174  1.00  0.00    -0.193 N
ATOM     18  H5  UNL     1       8.082  13.475  31.746  1.00  0.00     0.202 HD
ENDBRANCH   4   9
BRANCH   1  19
HETATM   19  N1  UNL     1       7.510  18.413  28.374  1.00  0.00    -0.233 N
ATOM     20  H12 UNL     1       7.444  18.369  27.357  1.00  0.00     0.174 HD
ATOM     21  H11 UNL     1       7.466  19.404  28.610  1.00  0.00     0.174 HD
ENDBRANCH   1  19
TORSDOF 2
ENDMDL