MODEL 3
REMARK VINA RESULT: -6.672113799      0.046      1.969
REMARK  3 active torsions:
REMARK  status: ('A' for Active; 'I' for Inactive)
REMARK    1  A    between atoms: C3_9  and  N3_10
REMARK    2  A    between atoms: N3_10  and  N4_12
REMARK    3  A    between atoms: C4_14  and  C5_15
ROOT
HETATM    1  N3  UNL     1      10.505  13.031  33.906  1.00  0.00    -0.132 N
ATOM      2  H3  UNL     1       9.794  13.362  34.558  1.00  0.00     0.205 HD
ENDROOT
BRANCH   1   3
HETATM    3  C3  UNL     1      11.001  13.855  33.031  1.00  0.00     0.704 A
HETATM    4  N2  UNL     1      10.175  14.425  32.135  1.00  0.00    -0.139 N
HETATM    5  C2  UNL     1      10.676  15.280  31.223  1.00  0.00     0.342 A
ATOM      6  H2  UNL     1       9.178  14.210  32.145  1.00  0.00     0.189 HD
HETATM    7  N1  UNL     1      11.982  15.592  31.168  1.00  0.00    -0.260 N
HETATM    8  O2  UNL     1       9.918  15.828  30.370  1.00  0.00    -0.246 OA
HETATM    9  C1  UNL     1      12.807  15.026  32.058  1.00  0.00     0.342 A
ATOM     10  H1  UNL     1      12.335  16.243  30.467  1.00  0.00     0.175 HD
HETATM   11  O1  UNL     1      14.049  15.248  32.097  1.00  0.00    -0.246 OA
HETATM   12  N8  UNL     1      12.309  14.163  32.980  1.00  0.00    -0.139 N
ATOM     13  H8  UNL     1      12.946  13.738  33.654  1.00  0.00     0.189 HD
ENDBRANCH   1   3
BRANCH   1  14
HETATM   14  N4  UNL     1      10.926  11.704  33.968  1.00  0.00    -0.295 N
HETATM   15  C4  UNL     1      10.226  10.735  33.468  1.00  0.00     0.139 C
ATOM     16  H4  UNL     1      11.814  11.489  34.421  1.00  0.00     0.186 HD
BRANCH  15  17
HETATM   17  C5  UNL     1      10.653   9.355  33.526  1.00  0.00     0.079 A
HETATM   18  C6  UNL     1      10.582   8.536  34.619  1.00  0.00     0.137 A
HETATM   19  N5  UNL     1      11.074   7.312  34.300  1.00  0.00    -0.293 N
HETATM   20  N6  UNL     1      11.443   7.377  33.034  1.00  0.00    -0.022 NA
ATOM     21  H5  UNL     1      11.145   6.502  34.917  1.00  0.00     0.183 HD
HETATM   22  N7  UNL     1      11.198   8.600  32.548  1.00  0.00    -0.282 N
ATOM     23  H7  UNL     1      11.389   8.910  31.596  1.00  0.00     0.184 HD
ENDBRANCH  15  17
ENDBRANCH   1  14
TORSDOF 3
ENDMDL