MODEL 1
REMARK VINA RESULT: -6.743898852      0.000      0.000
REMARK  3 active torsions:
REMARK  status: ('A' for Active; 'I' for Inactive)
REMARK    1  A    between atoms: N1_1  and  O1_4
REMARK    2  A    between atoms: O1_4  and  C1_5
REMARK    3  A    between atoms: C2_6  and  N2_7
ROOT
HETATM    1  C1  UNL     1       9.209  17.082  32.022  1.00  0.00     0.211 A
HETATM    2  C2  UNL     1       9.722  16.046  31.245  1.00  0.00     0.170 A
HETATM    3  N5  UNL     1       9.041  15.736  30.128  1.00  0.00    -0.291 N
ATOM      4  H5  UNL     1       9.383  14.984  29.530  1.00  0.00     0.172 HD
HETATM    5  C5  UNL     1       7.905  16.401  29.773  1.00  0.00     0.328 A
HETATM    6  O3  UNL     1       7.276  16.095  28.715  1.00  0.00    -0.247 OA
HETATM    7  N6  UNL     1       7.393  17.403  30.508  1.00  0.00    -0.273 N
ATOM      8  H6  UNL     1       6.542  17.890  30.227  1.00  0.00     0.173 HD
HETATM    9  C6  UNL     1       8.059  17.737  31.637  1.00  0.00     0.289 A
HETATM   10  O4  UNL     1       7.603  18.667  32.342  1.00  0.00    -0.265 OA
ENDROOT
BRANCH   2  11
HETATM   11  N2  UNL     1      10.909  15.382  31.662  1.00  0.00    -0.252 N
HETATM   12  C3  UNL     1      11.190  14.474  32.720  1.00  0.00     0.277 C
HETATM   13  N3  UNL     1      12.580  14.723  33.024  1.00  0.00    -0.324 N
HETATM   14  C4  UNL     1      13.180  15.181  31.822  1.00  0.00     0.336 C
ATOM     15  H3  UNL     1      13.040  14.596  33.926  1.00  0.00     0.166 HD
HETATM   16  O2  UNL     1      14.410  15.216  31.556  1.00  0.00    -0.246 OA
HETATM   17  N4  UNL     1      12.119  15.593  30.972  1.00  0.00    -0.246 N
ATOM     18  H4  UNL     1      12.216  15.973  30.031  1.00  0.00     0.192 HD
ENDBRANCH   2  11
BRANCH   1  19
HETATM   19  O1  UNL     1       9.922  17.388  33.169  1.00  0.00    -0.235 OA
BRANCH  19  20
HETATM   20  N1  UNL     1       9.349  17.215  34.404  1.00  0.00    -0.305 N
ATOM     21  H12 UNL     1       9.009  16.290  34.665  1.00  0.00     0.184 HD
ATOM     22  H11 UNL     1       9.269  18.004  35.047  1.00  0.00     0.184 HD
ENDBRANCH  19  20
ENDBRANCH   1  19
TORSDOF 3
ENDMDL