MODEL 3
REMARK VINA RESULT: -6.238375488      3.428      4.523
REMARK  4 active torsions:
REMARK  status: ('A' for Active; 'I' for Inactive)
REMARK    1  A    between atoms: C1_2  and  N1_3
REMARK    2  A    between atoms: N1_3  and  N2_5
REMARK    3  A    between atoms: N4_13  and  N5_14
REMARK    4  A    between atoms: N5_14  and  C5_16
ROOT
HETATM    1  N2  UNL     1       9.927  13.885  32.769  1.00  0.00    -0.284 N
ATOM      2  H2  UNL     1       8.985  13.942  32.385  1.00  0.00     0.188 HD
HETATM    3  C2  UNL     1      10.899  14.544  32.205  1.00  0.00     0.145 A
HETATM    4  C3  UNL     1      12.307  14.541  32.675  1.00  0.00     0.186 A
HETATM    5  C4  UNL     1      13.025  15.283  31.624  1.00  0.00     0.244 A
HETATM    6  O2  UNL     1      14.291  15.391  31.588  1.00  0.00    -0.271 OA
HETATM    7  N3  UNL     1      12.107  15.838  30.696  1.00  0.00    -0.247 N
ATOM      8  H3  UNL     1      12.331  16.453  29.912  1.00  0.00     0.192 HD
HETATM    9  N4  UNL     1      10.837  15.384  31.059  1.00  0.00    -0.177 N
ENDROOT
BRANCH   9  10
HETATM   10  N5  UNL     1       9.634  15.694  30.404  1.00  0.00    -0.248 N
ATOM     11  H5  UNL     1       9.422  15.285  29.494  1.00  0.00     0.192 HD
BRANCH  10  12
HETATM   12  C5  UNL     1       8.708  16.595  31.030  1.00  0.00     0.192 C
HETATM   13  N6  UNL     1       8.976  17.556  31.849  1.00  0.00    -0.360 N
HETATM   14  C6  UNL     1       7.793  18.235  32.265  1.00  0.00     0.142 C
ATOM     15  H6  UNL     1       9.917  17.800  32.160  1.00  0.00     0.162 HD
HETATM   16  C7  UNL     1       6.678  17.363  31.776  1.00  0.00     0.142 C
HETATM   17  N7  UNL     1       7.311  16.519  30.805  1.00  0.00    -0.360 N
ATOM     18  H7  UNL     1       6.844  15.967  30.087  1.00  0.00     0.162 HD
ENDBRANCH  10  12
ENDBRANCH   9  10
BRANCH   1  19
HETATM   19  N1  UNL     1      10.171  13.101  33.901  1.00  0.00    -0.276 N
ATOM     20  H1  UNL     1      10.043  13.510  34.827  1.00  0.00     0.189 HD
BRANCH  19  21
HETATM   21  C1  UNL     1      10.586  11.761  33.794  1.00  0.00     0.368 C
HETATM   22  O1  UNL     1      10.583  11.026  34.803  1.00  0.00    -0.282 OA
ENDBRANCH  19  21
ENDBRANCH   1  19
TORSDOF 4
ENDMDL