MODEL 2
REMARK VINA RESULT: -5.904608958      0.979      1.114
REMARK  5 active torsions:
REMARK  status: ('A' for Active; 'I' for Inactive)
REMARK    1  A    between atoms: C2_2  and  N1_3
REMARK    2  A    between atoms: C2_2  and  C3_7
REMARK    3  A    between atoms: C3_7  and  O1_8
REMARK    4  A    between atoms: C3_7  and  C4_10
REMARK    5  A    between atoms: C6_13  and  N2_14
ROOT
HETATM    1  C4  UNL     1       8.930  15.628  32.028  1.00  0.00     0.395 C
HETATM    2  O2  UNL     1       8.997  14.272  32.174  1.00  0.00    -0.351 OA
HETATM    3  C5  UNL     1      10.163  13.963  32.855  1.00  0.00     0.245 C
HETATM    4  C6  UNL     1      10.755  15.274  33.214  1.00  0.00     0.376 C
HETATM    5  C7  UNL     1      12.223  15.377  33.084  1.00  0.00     0.323 A
HETATM    6  C8  UNL     1      13.056  14.560  32.250  1.00  0.00     0.316 A
HETATM    7  N3  UNL     1      12.446  15.682  31.616  1.00  0.00     0.130 N
HETATM    8  C9  UNL     1      11.130  15.605  31.041  1.00  0.00     0.550 C
HETATM    9  N4  UNL     1      10.288  16.131  32.102  1.00  0.00     0.189 N
ENDROOT
BRANCH   1  10
HETATM   10  C3  UNL     1       8.126  16.139  30.887  1.00  0.00     0.207 C
BRANCH  10  11
HETATM   11  C2  UNL     1       6.969  17.005  31.333  1.00  0.00     0.212 C
HETATM   12  C1  UNL     1       7.317  18.088  32.290  1.00  0.00     0.042 C
BRANCH  11  13
HETATM   13  N1  UNL     1       6.454  17.631  30.116  1.00  0.00    -0.073 N
ATOM     14  H13 UNL     1       5.731  17.074  29.661  1.00  0.00     0.274 HD
ATOM     15  H12 UNL     1       5.888  18.459  30.305  1.00  0.00     0.274 HD
ATOM     16  H11 UNL     1       7.247  17.824  29.504  1.00  0.00     0.274 HD
ENDBRANCH  11  13
ENDBRANCH  10  11
BRANCH  10  17
HETATM   17  O1  UNL     1       7.509  15.018  30.269  1.00  0.00    -0.389 OA
ATOM     18  H1  UNL     1       8.083  14.803  29.543  1.00  0.00     0.210 HD
ENDBRANCH  10  17
ENDBRANCH   1  10
BRANCH   4  19
HETATM   19  N2  UNL     1      10.229  15.788  34.457  1.00  0.00    -0.037 N
ATOM     20  H23 UNL     1       9.611  15.111  34.904  1.00  0.00     0.277 HD
ATOM     21  H22 UNL     1      10.955  15.839  35.172  1.00  0.00     0.277 HD
ATOM     22  H21 UNL     1       9.766  16.689  34.337  1.00  0.00     0.277 HD
ENDBRANCH   4  19
TORSDOF 5
ENDMDL