MODEL 5
REMARK VINA RESULT: -5.557926293      1.653      3.180
REMARK  4 active torsions:
REMARK  status: ('A' for Active; 'I' for Inactive)
REMARK    1  A    between atoms: C4_8  and  C5_9
REMARK    2  A    between atoms: C5_9  and  N2_10
REMARK    3  A    between atoms: N2_10  and  O3_12
REMARK    4  A    between atoms: C7_17  and  O4_18
ROOT
HETATM    1  O1  UNL     1       6.813  19.267  30.979  1.00  0.00    -0.266 OA
HETATM    2  C1  UNL     1       7.566  18.411  31.515  1.00  0.00     0.277 A
HETATM    3  N1  UNL     1       8.035  18.607  32.758  1.00  0.00    -0.287 N
ATOM      4  H1  UNL     1       7.774  19.458  33.257  1.00  0.00     0.172 HD
HETATM    5  C2  UNL     1       8.830  17.729  33.358  1.00  0.00     0.275 A
HETATM    6  O2  UNL     1       9.235  17.984  34.536  1.00  0.00    -0.266 OA
HETATM    7  C3  UNL     1       9.202  16.565  32.707  1.00  0.00     0.103 A
HETATM    8  C4  UNL     1       9.997  15.713  33.341  1.00  0.00     0.054 C
HETATM    9  N3  UNL     1       8.749  16.337  31.462  1.00  0.00    -0.346 N
ATOM     10  H3  UNL     1       9.013  15.486  30.967  1.00  0.00     0.166 HD
HETATM   11  C6  UNL     1       7.937  17.250  30.868  1.00  0.00     0.123 A
HETATM   12  C7  UNL     1       7.498  17.007  29.632  1.00  0.00     0.166 C
ENDROOT
BRANCH   8  13
HETATM   13  C5  UNL     1      10.475  14.460  32.803  1.00  0.00     0.117 C
BRANCH  13  14
HETATM   14  N2  UNL     1      11.626  14.010  33.149  1.00  0.00    -0.264 N
ATOM     15  H2  UNL     1      11.690  13.046  33.474  1.00  0.00     0.194 HD
BRANCH  14  16
HETATM   16  O3  UNL     1      12.775  14.760  33.104  1.00  0.00    -0.191 OA
HETATM   17  S1  UNL     1      13.544  15.169  31.604  1.00  0.00     0.125 SA
ENDBRANCH  14  16
ENDBRANCH  13  14
ENDBRANCH   8  13
BRANCH  12  18
HETATM   18  O4  UNL     1       7.853  15.862  28.969  1.00  0.00    -0.370 OA
ATOM     19  H4  UNL     1       7.207  15.198  28.760  1.00  0.00     0.216 HD
ENDBRANCH  12  18
TORSDOF 4
ENDMDL