MODEL 5
REMARK VINA RESULT: -7.136629949      0.120      1.173
REMARK  5 active torsions:
REMARK  status: ('A' for Active; 'I' for Inactive)
REMARK       I    between atoms: C2_5  and  N3_6
REMARK       I    between atoms: C2_5  and  N5_11
REMARK    1  A    between atoms: N3_6  and  N4_8
REMARK    2  A    between atoms: N5_11  and  C3_13
REMARK    3  A    between atoms: C3_13  and  C4_14
REMARK    4  A    between atoms: C4_14  and  C5_15
REMARK    5  A    between atoms: C5_15  and  N6_16
ROOT
HETATM    1  N1  UNL     1      18.703 -37.316  -6.834  1.00  0.00    -0.171 NA
HETATM    2  C1  UNL     1      19.064 -36.234  -7.089  1.00  0.00     0.196 C
HETATM    3  N2  UNL     1      19.488 -34.989  -7.419  1.00  0.00    -0.125 N
ATOM      4  H2  UNL     1      19.683 -34.841  -8.409  1.00  0.00     0.197 HD
HETATM    5  C2  UNL     1      19.672 -33.998  -6.680  1.00  0.00     0.701 C
HETATM    6  N3  UNL     1      20.134 -32.769  -7.295  1.00  0.00    -0.138 N
ATOM      7  H3  UNL     1      21.111 -32.657  -7.565  1.00  0.00     0.205 HD
HETATM    8  N5  UNL     1      19.484 -33.910  -5.261  1.00  0.00    -0.224 N
ATOM      9  H5  UNL     1      19.001 -33.083  -4.909  1.00  0.00     0.177 HD
ENDROOT
BRANCH   6  10
HETATM   10  N4  UNL     1      19.230 -31.761  -7.506  1.00  0.00    -0.331 N
ATOM     11  H42 UNL     1      19.244 -30.935  -6.907  1.00  0.00     0.177 HD
ATOM     12  H41 UNL     1      18.555 -31.861  -8.266  1.00  0.00     0.177 HD
ENDBRANCH   6  10
BRANCH   8  13
HETATM   13  C3  UNL     1      19.908 -34.866  -4.300  1.00  0.00     0.139 C
BRANCH  13  14
HETATM   14  C4  UNL     1      18.674 -35.413  -3.564  1.00  0.00     0.040 C
BRANCH  14  15
HETATM   15  C5  UNL     1      18.386 -34.618  -2.330  1.00  0.00     0.129 C
BRANCH  15  16
HETATM   16  N6  UNL     1      17.539 -35.415  -1.458  1.00  0.00    -0.366 N
HETATM   17  C6  UNL     1      17.286 -34.946  -0.216  1.00  0.00     0.090 A
HETATM   18  C7  UNL     1      16.515 -35.611   0.686  1.00  0.00     0.017 A
HETATM   19  C8  UNL     1      15.950 -36.833   0.326  1.00  0.00     0.003 A
HETATM   20  C9  UNL     1      16.207 -37.311  -0.936  1.00  0.00     0.017 A
HETATM   21  C10 UNL     1      16.996 -36.586  -1.799  1.00  0.00     0.090 A
ENDBRANCH  15  16
ENDBRANCH  14  15
ENDBRANCH  13  14
ENDBRANCH   8  13
TORSDOF 5
ENDMDL