MODEL 3
REMARK VINA RESULT: -7.014477464      2.366      4.076
REMARK  4 active torsions:
REMARK  status: ('A' for Active; 'I' for Inactive)
REMARK    1  A    between atoms: N2_10  and  C8_12
REMARK    2  A    between atoms: C8_12  and  C9_13
REMARK    3  A    between atoms: C9_13  and  C10_14
REMARK    4  A    between atoms: C10_14  and  N3_15
ROOT
HETATM    1  C1  UNL     1      17.774 -31.002  -1.792  1.00  0.00     0.018 C
HETATM    2  C2  UNL     1      17.593 -32.161  -1.473  1.00  0.00    -0.074 C
HETATM    3  C3  UNL     1      17.368 -33.528  -1.072  1.00  0.00     0.060 A
HETATM    4  C4  UNL     1      16.625 -33.786   0.066  1.00  0.00     0.026 A
HETATM    5  C5  UNL     1      16.423 -35.087   0.428  1.00  0.00     0.019 A
HETATM    6  C6  UNL     1      16.942 -36.120  -0.317  1.00  0.00     0.090 A
HETATM    7  N1  UNL     1      17.656 -35.813  -1.414  1.00  0.00    -0.351 N
ATOM      8  H1  UNL     1      18.038 -36.584  -1.961  1.00  0.00     0.166 HD
HETATM    9  C7  UNL     1      17.902 -34.563  -1.841  1.00  0.00     0.119 A
HETATM   10  N2  UNL     1      18.566 -34.239  -2.864  1.00  0.00    -0.375 N
ATOM     11  H2  UNL     1      18.651 -33.237  -3.033  1.00  0.00     0.161 HD
ENDROOT
BRANCH  10  12
HETATM   12  C8  UNL     1      19.212 -35.074  -3.810  1.00  0.00     0.123 C
BRANCH  12  13
HETATM   13  C9  UNL     1      19.102 -34.578  -5.233  1.00  0.00     0.039 C
BRANCH  13  14
HETATM   14  C10 UNL     1      20.310 -35.114  -6.008  1.00  0.00     0.123 C
BRANCH  14  15
HETATM   15  N3  UNL     1      21.514 -34.423  -5.619  1.00  0.00    -0.367 N
HETATM   16  C11 UNL     1      22.526 -35.090  -5.229  1.00  0.00     0.196 C
HETATM   17  N4  UNL     1      23.756 -34.494  -4.827  1.00  0.00    -0.067 NA
HETATM   18  N5  UNL     1      22.477 -36.511  -5.174  1.00  0.00    -0.067 NA
ATOM     19  H3  UNL     1      21.555 -33.405  -5.655  1.00  0.00     0.161 HD
ENDBRANCH  14  15
ENDBRANCH  13  14
ENDBRANCH  12  13
ENDBRANCH  10  12
TORSDOF 4
ENDMDL