MODEL 5
REMARK VINA RESULT: -7.083526339      2.330      5.136
REMARK  4 active torsions:
REMARK  status: ('A' for Active; 'I' for Inactive)
REMARK    1  A    between atoms: N1_1  and  C1_5
REMARK    2  A    between atoms: C1_5  and  C2_6
REMARK    3  A    between atoms: C10_14  and  C11_15
REMARK    4  A    between atoms: C11_15  and  C12_16
ROOT
HETATM    1  C2  UNL     1      19.453 -32.821  -4.322  1.00  0.00     0.064 A
HETATM    2  C3  UNL     1      19.523 -33.064  -5.778  1.00  0.00    -0.004 A
HETATM    3  C4  UNL     1      19.274 -34.349  -5.969  1.00  0.00    -0.029 A
HETATM    4  C5  UNL     1      19.233 -35.031  -7.176  1.00  0.00     0.012 A
HETATM    5  C6  UNL     1      18.954 -36.380  -7.161  1.00  0.00     0.001 A
HETATM    6  C7  UNL     1      18.725 -37.015  -5.952  1.00  0.00     0.001 A
HETATM    7  C8  UNL     1      18.765 -36.344  -4.757  1.00  0.00     0.012 A
HETATM    8  C9  UNL     1      19.045 -34.986  -4.766  1.00  0.00    -0.023 A
HETATM    9  C10 UNL     1      19.132 -34.159  -3.759  1.00  0.00    -0.054 A
ENDROOT
BRANCH   9  10
HETATM   10  C11 UNL     1      18.962 -34.404  -2.298  1.00  0.00     0.094 C
BRANCH  10  11
HETATM   11  C12 UNL     1      17.841 -33.596  -1.741  1.00  0.00     0.029 A
HETATM   12  C13 UNL     1      16.676 -34.060  -1.167  1.00  0.00     0.114 A
HETATM   13  N2  UNL     1      15.898 -33.019  -0.778  1.00  0.00    -0.360 N
HETATM   14  C14 UNL     1      16.565 -31.909  -1.104  1.00  0.00     0.180 A
ATOM     15  H2  UNL     1      14.985 -33.074  -0.327  1.00  0.00     0.166 HD
HETATM   16  N3  UNL     1      17.741 -32.243  -1.687  1.00  0.00    -0.354 N
ATOM     17  H3  UNL     1      18.439 -31.584  -2.031  1.00  0.00     0.166 HD
ENDBRANCH  10  11
ENDBRANCH   9  10
BRANCH   1  18
HETATM   18  C1  UNL     1      20.812 -32.371  -3.834  1.00  0.00     0.242 C
BRANCH  18  19
HETATM   19  N1  UNL     1      21.822 -32.825  -4.771  1.00  0.00    -0.078 N
ATOM     20  H13 UNL     1      22.329 -33.642  -4.431  1.00  0.00     0.274 HD
ATOM     21  H12 UNL     1      21.417 -33.247  -5.606  1.00  0.00     0.274 HD
ATOM     22  H11 UNL     1      22.443 -32.046  -4.990  1.00  0.00     0.274 HD
ENDBRANCH  18  19
ENDBRANCH   1  18
TORSDOF 4
ENDMDL