MODEL 5
REMARK VINA RESULT: -5.178253372      2.910      4.103
REMARK  5 active torsions:
REMARK  status: ('A' for Active; 'I' for Inactive)
REMARK    1  A    between atoms: N1_1  and  N2_4
REMARK    2  A    between atoms: N2_4  and  C1_5
REMARK    3  A    between atoms: C1_5  and  C2_6
REMARK    4  A    between atoms: C2_6  and  C3_7
REMARK    5  A    between atoms: C3_7  and  N3_8
ROOT
HETATM    1  N3  UNL     1      20.078 -34.341  -5.236  1.00  0.00    -0.350 N
HETATM    2  C4  UNL     1      21.405 -34.130  -5.472  1.00  0.00     0.183 A
HETATM    3  N4  UNL     1      21.564 -33.165  -6.396  1.00  0.00    -0.345 N
ATOM      4  H4  UNL     1      22.458 -32.822  -6.746  1.00  0.00     0.167 HD
HETATM    5  C5  UNL     1      20.350 -32.722  -6.783  1.00  0.00     0.096 A
HETATM    6 BR1  UNL     1      19.960 -31.360  -8.069  1.00  0.00    -0.030 Br
HETATM    7  C6  UNL     1      19.453 -33.470  -6.048  1.00  0.00     0.129 A
ENDROOT
BRANCH   1   8
HETATM    8  C3  UNL     1      19.506 -35.308  -4.303  1.00  0.00     0.130 C
BRANCH   8   9
HETATM    9  C2  UNL     1      18.597 -36.252  -5.036  1.00  0.00     0.038 C
BRANCH   9  10
HETATM   10  C1  UNL     1      19.290 -37.060  -6.102  1.00  0.00     0.136 C
BRANCH  10  11
HETATM   11  N2  UNL     1      18.685 -36.942  -7.391  1.00  0.00    -0.148 NA
BRANCH  11  12
HETATM   12  N1  UNL     1      19.421 -36.162  -8.275  1.00  0.00    -0.348 N
ATOM     13  H12 UNL     1      20.434 -36.069  -8.210  1.00  0.00     0.172 HD
ATOM     14  H11 UNL     1      18.847 -35.703  -8.983  1.00  0.00     0.172 HD
ENDBRANCH  11  12
ENDBRANCH  10  11
ENDBRANCH   9  10
ENDBRANCH   8   9
ENDBRANCH   1   8
TORSDOF 5
ENDMDL