MODEL 2
REMARK VINA RESULT: -7.920268532      1.675      2.116
REMARK  4 active torsions:
REMARK  status: ('A' for Active; 'I' for Inactive)
REMARK    1  A    between atoms: C4_9  and  C5_10
REMARK    2  A    between atoms: C5_10  and  C6_11
REMARK    3  A    between atoms: C6_11  and  C7_12
REMARK    4  A    between atoms: C7_12  and  C8_13
ROOT
HETATM    1  O1  UNL     1      19.084 -37.447  -5.388  1.00  0.00    -0.266 OA
HETATM    2  C1  UNL     1      19.236 -36.387  -6.046  1.00  0.00     0.272 A
HETATM    3  N1  UNL     1      19.337 -36.375  -7.386  1.00  0.00    -0.265 N
ATOM      4  H1  UNL     1      19.304 -37.187  -8.001  1.00  0.00     0.190 HD
HETATM    5  N2  UNL     1      19.488 -35.116  -7.760  1.00  0.00    -0.297 N
ATOM      6  H2  UNL     1      19.589 -34.806  -8.726  1.00  0.00     0.187 HD
HETATM    7  C2  UNL     1      19.488 -34.304  -6.690  1.00  0.00     0.065 A
HETATM    8  C3  UNL     1      19.327 -35.093  -5.572  1.00  0.00     0.068 A
HETATM    9  C4  UNL     1      19.364 -34.060  -4.695  1.00  0.00    -0.038 A
HETATM   10  C11 UNL     1      19.529 -33.259  -5.872  1.00  0.00     0.040 A
ENDROOT
BRANCH   9  11
HETATM   11  C5  UNL     1      19.261 -34.018  -3.225  1.00  0.00     0.040 C
BRANCH  11  12
HETATM   12  C6  UNL     1      18.299 -35.030  -2.730  1.00  0.00     0.011 C
BRANCH  12  13
HETATM   13  C7  UNL     1      17.664 -34.629  -1.426  1.00  0.00     0.059 C
BRANCH  13  14
HETATM   14  C8  UNL     1      16.927 -35.853  -0.939  1.00  0.00     0.025 A
HETATM   15  C9  UNL     1      16.801 -37.018  -1.638  1.00  0.00     0.113 A
HETATM   16  N3  UNL     1      16.084 -37.854  -0.873  1.00  0.00    -0.360 N
HETATM   17  C10 UNL     1      15.774 -37.221   0.271  1.00  0.00     0.180 A
ATOM     18  H3  UNL     1      15.818 -38.808  -1.119  1.00  0.00     0.166 HD
HETATM   19  N4  UNL     1      16.289 -35.998   0.232  1.00  0.00    -0.355 N
ATOM     20  H4  UNL     1      16.212 -35.292   0.964  1.00  0.00     0.166 HD
ENDBRANCH  13  14
ENDBRANCH  12  13
ENDBRANCH  11  12
ENDBRANCH   9  11
TORSDOF 4
ENDMDL