MODEL 3
REMARK VINA RESULT: -6.719075162      1.728      2.817
REMARK  4 active torsions:
REMARK  status: ('A' for Active; 'I' for Inactive)
REMARK    1  A    between atoms: C3_3  and  C4_4
REMARK    2  A    between atoms: C4_4  and  N1_5
REMARK    3  A    between atoms: N4_15  and  C9_17
REMARK    4  A    between atoms: C9_17  and  C10_18
ROOT
HETATM    1  C1  UNL     1      15.391 -37.633  -0.104  1.00  0.00     0.012 C
HETATM    2  C2  UNL     1      16.107 -36.668   0.001  1.00  0.00    -0.116 C
HETATM    3  C3  UNL     1      16.977 -35.477   0.148  1.00  0.00     0.113 C
ENDROOT
BRANCH   3   4
HETATM    4  C4  UNL     1      16.931 -34.706  -1.159  1.00  0.00     0.150 C
BRANCH   4   5
HETATM    5  N1  UNL     1      18.061 -35.014  -2.000  1.00  0.00    -0.225 N
HETATM    6  C5  UNL     1      18.786 -34.138  -2.618  1.00  0.00     0.694 A
HETATM    7  N2  UNL     1      18.556 -32.736  -2.544  1.00  0.00    -0.177 N
HETATM    8  N5  UNL     1      19.874 -34.572  -3.419  1.00  0.00    -0.022 N
HETATM    9  C6  UNL     1      19.387 -31.802  -3.247  1.00  0.00     0.127 A
ATOM     10  H2  UNL     1      17.783 -32.387  -1.979  1.00  0.00     0.185 HD
HETATM   11  C7  UNL     1      19.135 -30.512  -3.147  1.00  0.00     0.064 C
HETATM   12  N3  UNL     1      20.478 -32.237  -4.050  1.00  0.00    -0.177 N
HETATM   13  C8  UNL     1      20.715 -33.632  -4.130  1.00  0.00     0.694 A
ATOM     14  H3  UNL     1      21.067 -31.571  -4.549  1.00  0.00     0.185 HD
HETATM   15  N4  UNL     1      21.686 -34.086  -4.841  1.00  0.00    -0.222 N
ATOM     16  H4  UNL     1      21.807 -35.098  -4.861  1.00  0.00     0.178 HD
ATOM     17  H5  UNL     1      20.068 -35.570  -3.496  1.00  0.00     0.203 HD
ATOM     18  H1  UNL     1      18.307 -35.997  -2.117  1.00  0.00     0.177 HD
BRANCH  15  19
HETATM   19  C9  UNL     1      22.603 -33.317  -5.598  1.00  0.00     0.164 C
BRANCH  19  20
HETATM   20  C10 UNL     1      23.991 -33.813  -5.273  1.00  0.00    -0.017 C
HETATM   21  C11 UNL     1      24.410 -33.889  -4.022  1.00  0.00     0.008 C
ENDBRANCH  19  20
ENDBRANCH  15  19
ENDBRANCH   4   5
ENDBRANCH   3   4
TORSDOF 4
ENDMDL