MODEL 4
REMARK VINA RESULT: -7.263854646      1.224      2.176
REMARK  4 active torsions:
REMARK  status: ('A' for Active; 'I' for Inactive)
REMARK    1  A    between atoms: N3_4  and  O1_6
REMARK    2  A    between atoms: O1_6  and  C2_7
REMARK    3  A    between atoms: C2_7  and  C3_8
REMARK    4  A    between atoms: C3_8  and  C4_9
ROOT
HETATM    1  C4  UNL     1      19.104 -34.256  -3.673  1.00  0.00    -0.040 A
HETATM    2  C5  UNL     1      19.447 -33.220  -4.504  1.00  0.00     0.012 A
HETATM    3  C6  UNL     1      19.589 -33.511  -5.864  1.00  0.00     0.050 A
HETATM    4  C7  UNL     1      19.391 -34.788  -6.337  1.00  0.00     0.111 A
HETATM    5  N4  UNL     1      19.473 -35.282  -7.580  1.00  0.00    -0.351 N
ATOM      6  H4  UNL     1      19.710 -34.745  -8.414  1.00  0.00     0.166 HD
HETATM    7  C8  UNL     1      19.187 -36.616  -7.553  1.00  0.00     0.107 A
HETATM    8  C9  UNL     1      18.928 -36.926  -6.257  1.00  0.00     0.115 A
HETATM    9  N5  UNL     1      19.055 -35.803  -5.527  1.00  0.00    -0.317 N
HETATM   10  C10 UNL     1      18.921 -35.506  -4.214  1.00  0.00     0.105 A
ENDROOT
BRANCH   1  11
HETATM   11  C3  UNL     1      18.919 -34.104  -2.212  1.00  0.00     0.068 C
BRANCH  11  12
HETATM   12  C2  UNL     1      17.585 -34.536  -1.722  1.00  0.00     0.206 C
BRANCH  12  13
HETATM   13  O1  UNL     1      17.765 -35.679  -0.905  1.00  0.00    -0.278 OA
BRANCH  13  14
HETATM   14  N3  UNL     1      16.696 -36.342  -0.382  1.00  0.00    -0.241 N
HETATM   15  C1  UNL     1      16.093 -37.328  -0.908  1.00  0.00     0.221 C
HETATM   16  N1  UNL     1      16.427 -37.925  -2.152  1.00  0.00    -0.065 NA
HETATM   17  N2  UNL     1      14.986 -37.882  -0.187  1.00  0.00    -0.065 NA
ATOM     18  H3  UNL     1      16.346 -36.016   0.520  1.00  0.00     0.196 HD
ENDBRANCH  13  14
ENDBRANCH  12  13
ENDBRANCH  11  12
ENDBRANCH   1  11
TORSDOF 4
ENDMDL