MODEL 5
REMARK VINA RESULT: -7.085563816      3.352      6.112
REMARK  6 active torsions:
REMARK  status: ('A' for Active; 'I' for Inactive)
REMARK    1  A    between atoms: N1_1  and  N2_4
REMARK    2  A    between atoms: N2_4  and  C1_6
REMARK    3  A    between atoms: N3_7  and  C2_9
REMARK    4  A    between atoms: C2_9  and  C3_10
REMARK    5  A    between atoms: C3_10  and  N4_11
REMARK    6  A    between atoms: N4_11  and  C4_13
ROOT
HETATM    1  N4  UNL     1      19.739 -35.160  -3.981  1.00  0.00    -0.388 N
ATOM      2  H4  UNL     1      19.581 -36.085  -3.582  1.00  0.00     0.159 HD
ENDROOT
BRANCH   1   3
HETATM    3  C3  UNL     1      20.471 -34.992  -5.221  1.00  0.00     0.139 C
BRANCH   3   4
HETATM    4  C2  UNL     1      21.715 -35.851  -5.256  1.00  0.00     0.140 C
BRANCH   4   5
HETATM    5  N3  UNL     1      22.882 -35.143  -4.819  1.00  0.00    -0.384 N
HETATM    6  C1  UNL     1      23.129 -33.917  -5.041  1.00  0.00     0.192 C
ATOM      7  H3  UNL     1      23.573 -35.669  -4.283  1.00  0.00     0.160 HD
BRANCH   6   8
HETATM    8  N2  UNL     1      24.334 -33.352  -4.541  1.00  0.00    -0.303 N
ATOM      9  H2  UNL     1      24.621 -32.420  -4.840  1.00  0.00     0.187 HD
BRANCH   8  10
HETATM   10  N1  UNL     1      25.131 -34.075  -3.636  1.00  0.00    -0.344 N
ATOM     11  H12 UNL     1      24.762 -34.934  -3.231  1.00  0.00     0.176 HD
ATOM     12  H11 UNL     1      26.063 -33.740  -3.393  1.00  0.00     0.176 HD
ENDBRANCH   8  10
ENDBRANCH   6   8
ENDBRANCH   4   5
ENDBRANCH   3   4
ENDBRANCH   1   3
BRANCH   1  13
HETATM   13  C4  UNL     1      19.295 -34.101  -3.404  1.00  0.00     0.042 A
HETATM   14  C5  UNL     1      19.748 -32.825  -3.707  1.00  0.00     0.047 A
HETATM   15  C6  UNL     1      19.211 -31.768  -3.035  1.00  0.00     0.090 A
HETATM   16  N5  UNL     1      18.252 -31.899  -2.083  1.00  0.00    -0.365 N
HETATM   17  C7  UNL     1      17.792 -33.123  -1.766  1.00  0.00     0.044 A
ATOM     18  H5  UNL     1      17.883 -31.074  -1.610  1.00  0.00     0.165 HD
HETATM   19  C8  UNL     1      16.820 -33.257  -0.800  1.00  0.00     0.030 A
HETATM   20  C12 UNL     1      18.317 -34.203  -2.428  1.00  0.00     0.017 A
HETATM   21  C9  UNL     1      16.345 -34.526  -0.475  1.00  0.00     0.002 A
HETATM   22  C10 UNL     1      16.869 -35.623  -1.139  1.00  0.00     0.001 A
HETATM   23  C11 UNL     1      17.857 -35.481  -2.120  1.00  0.00     0.016 A
ENDBRANCH   1  13
TORSDOF 6
ENDMDL