MODEL 5
REMARK VINA RESULT: -7.178248005      3.492      5.245
REMARK  4 active torsions:
REMARK  status: ('A' for Active; 'I' for Inactive)
REMARK    1  A    between atoms: C1_4  and  C2_6
REMARK    2  A    between atoms: N3_9  and  C5_10
REMARK    3  A    between atoms: C5_10  and  C6_11
REMARK    4  A    between atoms: C6_11  and  N4_12
ROOT
HETATM    1  C2  UNL     1      19.398 -33.231  -5.841  1.00  0.00     0.007 A
HETATM    2  C3  UNL     1      19.126 -34.582  -5.718  1.00  0.00     0.032 A
HETATM    3  C4  UNL     1      18.977 -35.175  -4.482  1.00  0.00     0.091 A
HETATM    4  N3  UNL     1      19.092 -34.466  -3.344  1.00  0.00    -0.365 N
HETATM    5  C9  UNL     1      19.356 -33.158  -3.450  1.00  0.00     0.091 A
HETATM    6  C10 UNL     1      19.514 -32.514  -4.680  1.00  0.00     0.032 A
ENDROOT
BRANCH   4   7
HETATM    7  C5  UNL     1      18.938 -35.075  -2.044  1.00  0.00     0.149 C
BRANCH   7   8
HETATM    8  C6  UNL     1      17.626 -34.791  -1.378  1.00  0.00     0.170 C
BRANCH   8   9
HETATM    9  N4  UNL     1      16.922 -35.998  -0.996  1.00  0.00    -0.286 N
HETATM   10  C7  UNL     1      16.184 -36.231   0.099  1.00  0.00     0.130 A
HETATM   11  C8  UNL     1      15.719 -37.500   0.035  1.00  0.00     0.127 A
HETATM   12  N5  UNL     1      16.177 -38.041  -1.108  1.00  0.00    -0.296 N
HETATM   13  N6  UNL     1      16.899 -37.111  -1.707  1.00  0.00    -0.241 N
ATOM     14  H5  UNL     1      16.002 -38.986  -1.447  1.00  0.00     0.187 HD
ATOM     15  H6  UNL     1      17.375 -37.236  -2.600  1.00  0.00     0.208 HD
ENDBRANCH   8   9
ENDBRANCH   7   8
ENDBRANCH   4   7
BRANCH   1  16
HETATM   16  C1  UNL     1      19.554 -32.611  -7.167  1.00  0.00     0.120 C
HETATM   17  N1  UNL     1      19.612 -33.290  -8.244  1.00  0.00    -0.387 N
ATOM     18  H12 UNL     1      19.720 -32.860  -9.163  1.00  0.00     0.157 HD
ATOM     19  H11 UNL     1      19.547 -34.306  -8.184  1.00  0.00     0.157 HD
HETATM   20  N2  UNL     1      19.644 -31.205  -7.251  1.00  0.00    -0.082 NA
ENDBRANCH   1  16
TORSDOF 4
ENDMDL