MODEL 5
REMARK VINA RESULT: -4.028891685      1.142      1.637
REMARK  2 active torsions:
REMARK  status: ('A' for Active; 'I' for Inactive)
REMARK    1  A    between atoms: O1_2  and  N1_3
REMARK    2  A    between atoms: N1_3  and  C2_5
ROOT
HETATM    1  C2  UNL     1      13.089  25.628  20.274  1.00  0.00     0.047 C
HETATM    2  C3  UNL     1      13.175  26.237  18.935  1.00  0.00     0.060 C
HETATM    3  C4  UNL     1      12.880  27.717  18.921  1.00  0.00     0.006 C
HETATM    4  C5  UNL     1      13.408  28.497  17.786  1.00  0.00     0.000 C
HETATM    5  C6  UNL     1      14.659  29.362  18.096  1.00  0.00     0.000 C
HETATM    6  C7  UNL     1      15.568  28.403  18.650  1.00  0.00     0.000 C
HETATM    7  C8  UNL     1      16.941  28.723  19.219  1.00  0.00     0.000 C
HETATM    8  C9  UNL     1      17.181  27.472  19.999  1.00  0.00     0.000 C
HETATM    9  C10 UNL     1      18.282  27.084  20.795  1.00  0.00     0.002 C
HETATM   10  C11 UNL     1      17.857  25.676  21.301  1.00  0.00     0.020 C
HETATM   11  C12 UNL     1      16.463  25.573  21.769  1.00  0.00     0.119 C
HETATM   12  N2  UNL     1      15.463  25.167  20.787  1.00  0.00    -0.397 N
ATOM     13  H2  UNL     1      15.688  24.762  19.879  1.00  0.00     0.158 HD
HETATM   14  C13 UNL     1      14.130  25.404  21.244  1.00  0.00     0.110 C
ENDROOT
BRANCH   1  15
HETATM   15  N1  UNL     1      11.875  25.238  20.614  1.00  0.00    -0.270 N
ATOM     16  H1  UNL     1      11.714  24.927  21.571  1.00  0.00     0.194 HD
BRANCH  15  17
HETATM   17  O1  UNL     1      10.826  25.233  19.740  1.00  0.00    -0.285 OA
HETATM   18  C1  UNL     1       9.617  25.840  20.177  1.00  0.00     0.237 C
ENDBRANCH  15  17
ENDBRANCH   1  15
TORSDOF 2
ENDMDL