MODEL 3
REMARK VINA RESULT: -4.303928179      0.103      1.091
REMARK  3 active torsions:
REMARK  status: ('A' for Active; 'I' for Inactive)
REMARK    1  A    between atoms: C7_7  and  N1_8
REMARK       I    between atoms: N1_8  and  C8_10
REMARK    2  A    between atoms: C8_10  and  O2_12
REMARK    3  A    between atoms: O2_12  and  C9_13
ROOT
HETATM    1  N1  UNL     1      14.674  24.762  22.663  1.00  0.00    -0.332 N
ATOM      2  H1  UNL     1      13.707  24.441  22.609  1.00  0.00     0.165 HD
HETATM    3  C8  UNL     1      15.273  25.242  21.471  1.00  0.00     0.361 C
HETATM    4  O1  UNL     1      16.462  25.639  21.525  1.00  0.00    -0.238 OA
ENDROOT
BRANCH   1   5
HETATM    5  C7  UNL     1      15.321  24.694  23.931  1.00  0.00     0.090 C
HETATM    6  C2  UNL     1      14.754  25.568  24.984  1.00  0.00     0.004 C
HETATM    7  C1  UNL     1      15.819  26.564  25.426  1.00  0.00     0.012 C
HETATM    8  C3  UNL     1      14.230  24.809  26.194  1.00  0.00     0.006 C
HETATM    9  C4  UNL     1      15.274  23.886  26.771  1.00  0.00     0.001 C
HETATM   10  C5  UNL     1      16.109  23.223  25.699  1.00  0.00     0.002 C
HETATM   11  C6  UNL     1      15.265  23.253  24.424  1.00  0.00     0.026 C
ENDBRANCH   1   5
BRANCH   3  12
HETATM   12  O2  UNL     1      14.609  25.286  20.278  1.00  0.00    -0.294 OA
BRANCH  12  13
HETATM   13  C9  UNL     1      13.612  26.228  19.941  1.00  0.00     0.061 C
HETATM   14  C10 UNL     1      13.689  26.690  18.517  1.00  0.00     0.046 C
HETATM   15  C11 UNL     1      13.871  27.453  20.826  1.00  0.00     0.046 C
HETATM   16  C12 UNL     1      12.221  25.685  20.190  1.00  0.00     0.046 C
ENDBRANCH  12  13
ENDBRANCH   3  12
TORSDOF 3
ENDMDL