MODEL 1
REMARK VINA RESULT: -4.349050467      0.000      0.000
REMARK  2 active torsions:
REMARK  status: ('A' for Active; 'I' for Inactive)
REMARK    1  A    between atoms: C1_2  and  N1_3
REMARK    2  A    between atoms: N1_3  and  C2_5
ROOT
HETATM    1  C2  UNL     1      15.350  25.108  23.579  1.00  0.00     0.087 C
HETATM    2  C3  UNL     1      14.988  26.536  23.631  1.00  0.00     0.026 C
HETATM    3  C4  UNL     1      15.867  27.439  24.398  1.00  0.00     0.004 C
HETATM    4  C5  UNL     1      16.889  26.815  25.274  1.00  0.00     0.025 C
HETATM    5  C6  UNL     1      16.227  26.260  26.540  1.00  0.00     0.077 C
HETATM    6  C7  UNL     1      16.889  25.036  27.051  1.00  0.00     0.029 C
HETATM    7  C8  UNL     1      16.204  23.749  26.732  1.00  0.00    -0.010 C
HETATM    8  C9  UNL     1      14.704  23.908  27.021  1.00  0.00     0.029 C
HETATM    9  C10 UNL     1      14.354  24.893  25.892  1.00  0.00     0.083 C
HETATM   10  N2  UNL     1      14.835  26.157  26.280  1.00  0.00    -0.412 N
ATOM     11  H2  UNL     1      14.214  26.961  26.368  1.00  0.00     0.154 HD
HETATM   12  C11 UNL     1      14.962  24.250  24.712  1.00  0.00     0.031 C
HETATM   13  C12 UNL     1      16.154  23.450  25.254  1.00  0.00     0.013 C
ENDROOT
BRANCH   1  14
HETATM   14  N1  UNL     1      14.762  24.561  22.341  1.00  0.00    -0.385 N
ATOM     15  H1  UNL     1      14.806  23.556  22.173  1.00  0.00     0.160 HD
BRANCH  14  16
HETATM   16  C1  UNL     1      14.205  25.307  21.481  1.00  0.00     0.166 C
HETATM   17  S1  UNL     1      13.195  25.929  20.400  1.00  0.00    -0.075 SA
ENDBRANCH  14  16
ENDBRANCH   1  14
TORSDOF 2
ENDMDL