MODEL 2
REMARK VINA RESULT: -4.240406166      1.840      2.357
REMARK  1 active torsions:
REMARK  status: ('A' for Active; 'I' for Inactive)
REMARK    1  A    between atoms: C4_4  and  C5_5
ROOT
HETATM    1  C5  UNL     1      15.623  24.542  24.770  1.00  0.00     0.080 C
HETATM    2  C6  UNL     1      14.992  23.232  24.363  1.00  0.00     0.051 C
HETATM    3  C7  UNL     1      16.469  24.272  25.985  1.00  0.00     0.093 C
HETATM    4  C8  UNL     1      15.638  24.512  27.220  1.00  0.00    -0.017 C
HETATM    5  N1  UNL     1      15.264  23.459  27.832  1.00  0.00    -0.405 N
ATOM      6  H11 UNL     1      14.702  23.621  28.668  1.00  0.00     0.155 HD
ATOM      7  H12 UNL     1      15.561  22.571  27.428  1.00  0.00     0.155 HD
HETATM    8  C9  UNL     1      15.213  25.782  27.799  1.00  0.00     0.062 C
HETATM    9  C10 UNL     1      15.339  26.963  26.887  1.00  0.00    -0.021 C
HETATM   10  C11 UNL     1      16.754  27.535  27.026  1.00  0.00     0.017 C
HETATM   11  C12 UNL     1      14.386  28.034  27.397  1.00  0.00     0.017 C
HETATM   12  C13 UNL     1      15.110  26.683  25.450  1.00  0.00     0.178 C
HETATM   13  O1  UNL     1      14.634  25.441  25.144  1.00  0.00    -0.375 OA
ENDROOT
BRANCH   1  14
HETATM   14  C4  UNL     1      16.470  25.046  23.655  1.00  0.00     0.013 C
HETATM   15  C2  UNL     1      16.020  25.291  22.448  1.00  0.00    -0.088 C
HETATM   16  C1  UNL     1      14.601  25.091  22.053  1.00  0.00     0.042 C
HETATM   17  C3  UNL     1      16.960  25.792  21.417  1.00  0.00     0.042 C
ENDBRANCH   1  14
TORSDOF 1
ENDMDL