MODEL 2
REMARK VINA RESULT: -3.959536467      5.466      7.030
REMARK  2 active torsions:
REMARK  status: ('A' for Active; 'I' for Inactive)
REMARK    1  A    between atoms: C2_2  and  C3_3
REMARK    2  A    between atoms: C7_7  and  O1_8
ROOT
HETATM    1  C3  UNL     1      16.208  26.788  24.344  1.00  0.00     0.021 C
HETATM    2  C4  UNL     1      17.531  27.516  24.405  1.00  0.00     0.015 C
HETATM    3  C5  UNL     1      17.239  28.466  25.544  1.00  0.00     0.004 C
HETATM    4  C6  UNL     1      16.276  27.795  26.438  1.00  0.00     0.038 C
HETATM    5  C7  UNL     1      15.855  26.458  25.779  1.00  0.00     0.068 C
HETATM    6  C8  UNL     1      16.453  25.434  26.567  1.00  0.00     0.039 C
HETATM    7  C9  UNL     1      16.137  23.972  26.569  1.00  0.00     0.014 C
HETATM    8  C10 UNL     1      16.343  23.328  25.153  1.00  0.00     0.082 C
HETATM    9  C11 UNL     1      16.319  24.405  24.250  1.00  0.00    -0.157 C
HETATM   10  C12 UNL     1      16.272  25.554  23.430  1.00  0.00     0.107 C
HETATM   11  C13 UNL     1      17.482  25.604  22.491  1.00  0.00     0.045 C
HETATM   12  C14 UNL     1      15.115  25.564  22.497  1.00  0.00     0.082 C
HETATM   13  N1  UNL     1      14.196  25.547  21.762  1.00  0.00    -0.195 NA
ENDROOT
BRANCH   1  14
HETATM   14  C2  UNL     1      15.151  27.766  23.917  1.00  0.00     0.011 C
HETATM   15  C1  UNL     1      15.506  28.761  22.903  1.00  0.00     0.006 C
ENDBRANCH   1  14
BRANCH   5  16
HETATM   16  O1  UNL     1      14.446  26.476  25.988  1.00  0.00    -0.389 OA
ATOM     17  H1  UNL     1      14.230  26.446  26.913  1.00  0.00     0.210 HD
ENDBRANCH   5  16
TORSDOF 2
ENDMDL