MODEL 5
REMARK VINA RESULT: -3.792746363      4.013      5.831
REMARK  2 active torsions:
REMARK  status: ('A' for Active; 'I' for Inactive)
REMARK    1  A    between atoms: C2_2  and  C4_4
REMARK    2  A    between atoms: C8_9  and  O1_10
ROOT
HETATM    1  C4  UNL     1      12.694  27.107  20.018  1.00  0.00     0.082 C
HETATM    2  S1  UNL     1      13.110  28.002  18.502  1.00  0.00    -0.155 SA
HETATM    3  C5  UNL     1      14.681  27.523  17.803  1.00  0.00     0.046 C
HETATM    4  C6  UNL     1      14.518  26.724  16.507  1.00  0.00     0.021 C
HETATM    5  C7  UNL     1      15.567  26.744  18.711  1.00  0.00     0.053 C
HETATM    6  C8  UNL     1      15.090  26.848  20.136  1.00  0.00     0.067 C
HETATM    7  C9  UNL     1      16.018  26.199  21.116  1.00  0.00     0.016 C
HETATM    8  C10 UNL     1      17.293  25.710  20.458  1.00  0.00     0.013 C
HETATM    9  C11 UNL     1      15.237  25.101  21.761  1.00  0.00     0.008 C
HETATM   10  C12 UNL     1      13.760  25.417  21.540  1.00  0.00     0.009 C
HETATM   11  C13 UNL     1      13.782  26.084  20.212  1.00  0.00     0.038 C
ENDROOT
BRANCH   1  12
HETATM   12  C2  UNL     1      11.344  26.513  19.978  1.00  0.00    -0.079 C
HETATM   13  C1  UNL     1      10.282  27.298  20.035  1.00  0.00     0.015 C
HETATM   14  C3  UNL     1      11.097  25.052  19.875  1.00  0.00     0.044 C
ENDBRANCH   1  12
BRANCH   6  15
HETATM   15  O1  UNL     1      14.935  28.188  20.477  1.00  0.00    -0.389 OA
ATOM     16  H1  UNL     1      14.107  28.308  20.925  1.00  0.00     0.210 HD
ENDBRANCH   6  15
TORSDOF 2
ENDMDL