MODEL 2
REMARK VINA RESULT: -4.616218984      1.190      2.415
REMARK  2 active torsions:
REMARK  status: ('A' for Active; 'I' for Inactive)
REMARK    1  A    between atoms: C2_2  and  N1_4
REMARK    2  A    between atoms: N1_4  and  N2_6
ROOT
HETATM    1  N2  UNL     1      14.884  24.803  22.960  1.00  0.00    -0.308 N
ATOM      2  H2  UNL     1      14.917  23.835  22.639  1.00  0.00     0.186 HD
HETATM    3  C3  UNL     1      15.171  25.739  22.123  1.00  0.00     0.008 C
HETATM    4  C4  UNL     1      15.085  27.068  22.713  1.00  0.00     0.054 C
HETATM    5  C5  UNL     1      16.015  28.099  22.130  1.00  0.00     0.006 C
HETATM    6  C6  UNL     1      15.829  28.370  20.689  1.00  0.00     0.005 C
HETATM    7  C7  UNL     1      16.563  27.541  19.715  1.00  0.00    -0.014 C
HETATM    8  C8  UNL     1      15.542  26.750  18.878  1.00  0.00     0.005 C
HETATM    9  C9  UNL     1      14.680  25.898  19.772  1.00  0.00     0.011 C
HETATM   10  C10 UNL     1      15.504  25.166  20.795  1.00  0.00     0.033 C
HETATM   11  C11 UNL     1      16.976  25.198  20.538  1.00  0.00     0.011 C
HETATM   12  C12 UNL     1      17.540  26.553  20.226  1.00  0.00     0.005 C
ENDROOT
BRANCH   1  13
HETATM   13  N1  UNL     1      14.530  25.054  24.284  1.00  0.00    -0.294 N
ATOM     14  H1  UNL     1      13.910  25.832  24.511  1.00  0.00     0.187 HD
BRANCH  13  15
HETATM   15  C2  UNL     1      15.038  24.223  25.317  1.00  0.00     0.088 C
HETATM   16  C1  UNL     1      16.267  23.396  25.113  1.00  0.00     0.083 C
HETATM   17  S1  UNL     1      14.292  24.145  26.769  1.00  0.00    -0.064 SA
ENDBRANCH  13  15
ENDBRANCH   1  13
TORSDOF 2
ENDMDL