MODEL 4
REMARK VINA RESULT: -4.028484118      2.220      3.304
REMARK  2 active torsions:
REMARK  status: ('A' for Active; 'I' for Inactive)
REMARK    1  A    between atoms: C2_4  and  O1_5
REMARK    2  A    between atoms: C2_4  and  C4_7
ROOT
HETATM    1  C4  UNL     1      12.469  27.107  19.379  1.00  0.00     0.060 C
HETATM    2  C5  UNL     1      12.795  27.416  17.935  1.00  0.00     0.013 C
HETATM    3  C6  UNL     1      14.255  27.337  17.640  1.00  0.00     0.001 C
HETATM    4  C7  UNL     1      15.114  28.181  18.529  1.00  0.00     0.000 C
HETATM    5  C8  UNL     1      16.225  27.362  19.198  1.00  0.00     0.000 C
HETATM    6  C9  UNL     1      16.079  27.431  20.674  1.00  0.00     0.000 C
HETATM    7  C10 UNL     1      16.004  26.113  21.368  1.00  0.00     0.000 C
HETATM    8  C11 UNL     1      14.991  25.173  20.806  1.00  0.00     0.000 C
HETATM    9  C12 UNL     1      13.570  25.602  21.057  1.00  0.00     0.001 C
HETATM   10  C13 UNL     1      12.785  25.672  19.745  1.00  0.00     0.013 C
ENDROOT
BRANCH   1  11
HETATM   11  C2  UNL     1      10.976  27.290  19.536  1.00  0.00     0.116 C
HETATM   12  N1  UNL     1      10.244  26.433  20.065  1.00  0.00    -0.378 N
HETATM   13  C1  UNL     1       8.878  26.312  20.347  1.00  0.00     0.148 C
ATOM     14  H1  UNL     1      10.771  25.615  20.369  1.00  0.00     0.160 HD
BRANCH  11  15
HETATM   15  O1  UNL     1      10.463  28.474  19.054  1.00  0.00    -0.344 OA
HETATM   16  C3  UNL     1      10.465  29.705  19.706  1.00  0.00     0.211 C
ENDBRANCH  11  15
ENDBRANCH   1  11
TORSDOF 2
ENDMDL