MODEL 5
REMARK VINA RESULT: -4.344454762      1.613      2.731
REMARK  3 active torsions:
REMARK  status: ('A' for Active; 'I' for Inactive)
REMARK    1  A    between atoms: C2_2  and  S1_3
REMARK    2  A    between atoms: S1_3  and  C3_4
REMARK       I    between atoms: C3_4  and  N1_6
REMARK    3  A    between atoms: N1_6  and  C4_8
ROOT
HETATM    1  C4  UNL     1      16.092  25.013  23.329  1.00  0.00     0.086 C
HETATM    2  C5  UNL     1      17.240  25.688  22.620  1.00  0.00     0.034 C
HETATM    3  C6  UNL     1      16.874  26.101  21.229  1.00  0.00    -0.041 C
HETATM    4  C7  UNL     1      18.000  26.491  20.350  1.00  0.00     0.015 C
HETATM    5  C8  UNL     1      15.672  27.015  21.184  1.00  0.00     0.018 C
HETATM    6  C9  UNL     1      14.820  25.770  21.343  1.00  0.00    -0.041 C
HETATM    7  C10 UNL     1      13.565  25.711  20.565  1.00  0.00     0.015 C
HETATM    8  C11 UNL     1      14.748  25.458  22.811  1.00  0.00     0.034 C
HETATM    9  C12 UNL     1      15.963  25.002  20.670  1.00  0.00     0.018 C
ENDROOT
BRANCH   1  10
HETATM   10  N1  UNL     1      16.239  25.308  24.736  1.00  0.00    -0.347 N
HETATM   11  C3  UNL     1      16.414  24.232  25.645  1.00  0.00     0.280 C
HETATM   12  O1  UNL     1      16.438  23.037  25.209  1.00  0.00    -0.260 OA
ATOM     13  H1  UNL     1      16.219  26.272  25.069  1.00  0.00     0.163 HD
BRANCH  11  14
HETATM   14  S1  UNL     1      16.610  24.459  27.408  1.00  0.00    -0.070 SA
BRANCH  14  15
HETATM   15  C2  UNL     1      15.038  24.105  28.233  1.00  0.00     0.079 C
HETATM   16  C1  UNL     1      13.908  24.463  27.303  1.00  0.00     0.016 C
ENDBRANCH  14  15
ENDBRANCH  11  14
ENDBRANCH   1  10
TORSDOF 3
ENDMDL