MODEL 5
REMARK VINA RESULT: -4.300279246      3.016      4.965
REMARK  1 active torsions:
REMARK  status: ('A' for Active; 'I' for Inactive)
REMARK    1  A    between atoms: C10_10  and  C11_11
ROOT
HETATM    1  C11 UNL     1      11.669  26.542  20.177  1.00  0.00     0.097 C
HETATM    2  C12 UNL     1      11.138  25.188  19.853  1.00  0.00     0.026 C
HETATM    3  C13 UNL     1      11.152  27.514  19.211  1.00  0.00     0.064 C
HETATM    4  N1  UNL     1      10.742  28.293  18.437  1.00  0.00    -0.197 NA
ENDROOT
BRANCH   1   5
HETATM    5  C10 UNL     1      13.163  26.642  20.171  1.00  0.00    -0.023 C
HETATM    6  C9  UNL     1      13.602  28.086  20.429  1.00  0.00     0.016 C
HETATM    7  C8  UNL     1      15.102  28.164  20.504  1.00  0.00    -0.009 C
HETATM    8  C2  UNL     1      15.795  27.647  19.284  1.00  0.00    -0.010 C
HETATM    9  C7  UNL     1      15.530  27.263  21.671  1.00  0.00     0.014 C
HETATM   10  C1  UNL     1      15.784  28.600  18.125  1.00  0.00     0.011 C
HETATM   11  C3  UNL     1      15.270  26.284  18.954  1.00  0.00    -0.009 C
HETATM   12  C4  UNL     1      15.745  25.345  20.063  1.00  0.00     0.014 C
HETATM   13  C14 UNL     1      13.763  26.254  18.837  1.00  0.00     0.016 C
HETATM   14  C5  UNL     1      15.189  25.838  21.370  1.00  0.00    -0.043 C
HETATM   15  C6  UNL     1      15.697  24.967  22.473  1.00  0.00     0.015 C
HETATM   16  C15 UNL     1      13.678  25.728  21.283  1.00  0.00     0.020 C
ENDBRANCH   1   5
TORSDOF 1
ENDMDL