MODEL 3
REMARK VINA RESULT: -5.769334510      2.044      4.815
REMARK  0 active torsions:
REMARK  status: ('A' for Active; 'I' for Inactive)
ROOT
HETATM    1  C1  UNL     1     -38.962   7.549 -17.484  1.00  0.00     0.272 C
HETATM    2  N1  UNL     1     -40.188   7.468 -16.708  1.00  0.00    -0.075 N
HETATM    3  C2  UNL     1     -40.085   8.467 -15.662  1.00  0.00     0.272 C
HETATM    4  C3  UNL     1     -40.315   6.180 -16.049  1.00  0.00     0.236 C
HETATM    5  C4  UNL     1     -39.707   5.063 -16.848  1.00  0.00     0.029 C
HETATM    6  C5  UNL     1     -40.671   3.899 -17.016  1.00  0.00     0.017 C
HETATM    7  C6  UNL     1     -40.460   2.892 -15.912  1.00  0.00     0.140 C
HETATM    8  S1  UNL     1     -41.800   1.763 -15.767  1.00  0.00     0.144 S
HETATM    9  O1  UNL     1     -41.227   0.456 -15.245  1.00  0.00    -0.228 OA
HETATM   10  O2  UNL     1     -42.332   1.477 -17.130  1.00  0.00    -0.228 OA
HETATM   11  C7  UNL     1     -43.034   2.281 -14.632  1.00  0.00     0.140 C
HETATM   12  C8  UNL     1     -43.863   3.436 -15.115  1.00  0.00     0.015 C
HETATM   13  C9  UNL     1     -44.548   3.192 -16.415  1.00  0.00     0.002 C
HETATM   14  C10 UNL     1     -45.689   4.181 -16.555  1.00  0.00     0.020 C
HETATM   15  C11 UNL     1     -45.115   5.523 -17.031  1.00  0.00     0.124 C
HETATM   16  N2  UNL     1     -46.139   6.553 -16.990  1.00  0.00    -0.343 N
ATOM     17  H2  UNL     1     -47.064   6.327 -17.358  1.00  0.00     0.164 HD
HETATM   18  C12 UNL     1     -45.927   7.854 -16.467  1.00  0.00     0.316 C
HETATM   19  O3  UNL     1     -46.910   8.426 -15.925  1.00  0.00    -0.247 OA
HETATM   20  N3  UNL     1     -44.710   8.582 -16.494  1.00  0.00    -0.343 N
ATOM     21  H3  UNL     1     -44.534   9.227 -15.724  1.00  0.00     0.164 HD
HETATM   22  C13 UNL     1     -43.710   8.487 -17.510  1.00  0.00     0.126 C
HETATM   23  C14 UNL     1     -42.325   8.646 -16.919  1.00  0.00     0.048 C
HETATM   24  C15 UNL     1     -41.320   7.735 -17.549  1.00  0.00     0.238 C
ENDROOT
TORSDOF 0
ENDMDL