MODEL 1
REMARK VINA RESULT: -7.052738330      0.000      0.000
REMARK  4 active torsions:
REMARK  status: ('A' for Active; 'I' for Inactive)
REMARK       I    between atoms: C2_2  and  N1_4
REMARK       I    between atoms: N1_4  and  C4_6
REMARK       I    between atoms: N3_8  and  C5_10
REMARK    1  A    between atoms: C5_10  and  C6_12
REMARK    2  A    between atoms: N4_16  and  C10_17
REMARK    3  A    between atoms: C10_17  and  N5_19
REMARK    4  A    between atoms: N5_19  and  C11_21
ROOT
HETATM    1  C6  UNL     1     -39.607   5.212 -15.843  1.00  0.00     0.061 C
HETATM    2  C7  UNL     1     -39.688   4.015 -16.774  1.00  0.00     0.046 C
HETATM    3  C8  UNL     1     -40.766   4.869 -17.455  1.00  0.00     0.089 C
HETATM    4  C9  UNL     1     -39.790   6.021 -17.146  1.00  0.00     0.046 C
HETATM    5  N4  UNL     1     -41.746   5.096 -16.457  1.00  0.00    -0.352 N
HETATM    6  C15 UNL     1     -40.975   5.224 -15.243  1.00  0.00     0.145 C
ENDROOT
BRANCH   1   7
HETATM    7  C5  UNL     1     -38.427   5.466 -15.096  1.00  0.00     0.234 C
HETATM    8  N3  UNL     1     -37.186   4.922 -15.490  1.00  0.00    -0.300 N
HETATM    9  C4  UNL     1     -36.803   3.749 -15.130  1.00  0.00     0.199 C
ATOM     10  H3  UNL     1     -36.570   5.480 -16.083  1.00  0.00     0.171 HD
HETATM   11  N1  UNL     1     -35.543   3.249 -15.556  1.00  0.00    -0.296 N
HETATM   12  N2  UNL     1     -37.606   2.933 -14.301  1.00  0.00    -0.063 NA
HETATM   13  C2  UNL     1     -35.102   1.961 -15.191  1.00  0.00     0.221 C
HETATM   14  C3  UNL     1     -34.715   4.124 -16.379  1.00  0.00     0.162 C
HETATM   15  C1  UNL     1     -33.788   1.400 -15.604  1.00  0.00     0.117 C
HETATM   16  O1  UNL     1     -35.819   1.209 -14.481  1.00  0.00    -0.273 OA
HETATM   17  O2  UNL     1     -38.440   6.179 -14.063  1.00  0.00    -0.272 OA
ENDBRANCH   1   7
BRANCH   5  18
HETATM   18  C10 UNL     1     -43.133   5.170 -16.614  1.00  0.00     0.170 C
HETATM   19  S1  UNL     1     -44.047   3.931 -16.070  1.00  0.00    -0.041 SA
BRANCH  18  20
HETATM   20  N5  UNL     1     -43.798   6.268 -17.217  1.00  0.00    -0.359 N
ATOM     21  H5  UNL     1     -44.275   6.125 -18.107  1.00  0.00     0.162 HD
BRANCH  20  22
HETATM   22  C11 UNL     1     -43.823   7.561 -16.623  1.00  0.00     0.021 C
HETATM   23  C12 UNL     1     -43.758   7.532 -15.114  1.00  0.00     0.037 C
HETATM   24  C13 UNL     1     -42.634   8.358 -17.127  1.00  0.00     0.037 C
HETATM   25  C14 UNL     1     -45.123   8.242 -17.052  1.00  0.00     0.037 C
ENDBRANCH  20  22
ENDBRANCH  18  20
ENDBRANCH   5  18
TORSDOF 4
ENDMDL