MODEL 4
REMARK VINA RESULT: -7.603149870      0.993      1.188
REMARK  4 active torsions:
REMARK  status: ('A' for Active; 'I' for Inactive)
REMARK       I    between atoms: C2_2  and  N1_4
REMARK    1  A    between atoms: C5_8  and  C6_9
REMARK    2  A    between atoms: C6_9  and  C9_12
REMARK    3  A    between atoms: C9_12  and  C10_13
REMARK    4  A    between atoms: C10_13  and  C11_14
ROOT
HETATM    1  C6  UNL     1     -35.816   3.295 -14.896  1.00  0.00     0.060 C
HETATM    2  C7  UNL     1     -34.617   4.111 -14.369  1.00  0.00     0.035 C
HETATM    3  C8  UNL     1     -36.254   2.417 -13.757  1.00  0.00     0.035 C
ENDROOT
BRANCH   1   4
HETATM    4  C5  UNL     1     -35.304   2.483 -16.015  1.00  0.00     0.049 A
HETATM    5  C4  UNL     1     -36.059   1.461 -16.589  1.00  0.00     0.078 A
HETATM    6  C3  UNL     1     -35.323   0.866 -17.619  1.00  0.00     0.124 A
HETATM    7  N1  UNL     1     -35.748  -0.109 -18.342  1.00  0.00    -0.312 N
HETATM    8  N5  UNL     1     -34.167   1.544 -17.625  1.00  0.00    -0.285 N
HETATM    9  C2  UNL     1     -35.047  -0.727 -19.371  1.00  0.00     0.219 C
ATOM     10  H1  UNL     1     -36.685  -0.459 -18.143  1.00  0.00     0.170 HD
HETATM   11  C1  UNL     1     -35.514  -2.082 -19.865  1.00  0.00     0.117 C
HETATM   12  O1  UNL     1     -34.038  -0.228 -19.927  1.00  0.00    -0.274 OA
HETATM   13  N4  UNL     1     -34.142   2.501 -16.687  1.00  0.00    -0.301 N
ATOM     14  H5  UNL     1     -33.398   1.355 -18.266  1.00  0.00     0.188 HD
ATOM     15  H4  UNL     1     -33.366   3.140 -16.513  1.00  0.00     0.186 HD
ENDBRANCH   1   4
BRANCH   1  16
HETATM   16  C9  UNL     1     -36.815   4.259 -15.310  1.00  0.00    -0.089 C
BRANCH  16  17
HETATM   17  C10 UNL     1     -37.649   5.045 -15.682  1.00  0.00    -0.079 C
BRANCH  17  18
HETATM   18  C11 UNL     1     -38.648   5.999 -16.161  1.00  0.00     0.176 C
HETATM   19  C12 UNL     1     -39.233   6.772 -15.014  1.00  0.00     0.141 C
HETATM   20  C13 UNL     1     -40.218   7.738 -15.594  1.00  0.00     0.230 C
HETATM   21  O2  UNL     1     -40.392   8.912 -15.147  1.00  0.00    -0.273 OA
HETATM   22  N2  UNL     1     -41.032   7.367 -16.696  1.00  0.00    -0.274 N
HETATM   23  C14 UNL     1     -42.086   8.208 -17.243  1.00  0.00     0.164 C
HETATM   24  C15 UNL     1     -40.806   6.102 -17.321  1.00  0.00     0.327 C
HETATM   25  O3  UNL     1     -41.503   5.741 -18.304  1.00  0.00    -0.247 OA
HETATM   26  N3  UNL     1     -39.773   5.294 -16.781  1.00  0.00    -0.322 N
HETATM   27  C16 UNL     1     -39.838   3.868 -16.856  1.00  0.00     0.156 C
ENDBRANCH  17  18
ENDBRANCH  16  17
ENDBRANCH   1  16
TORSDOF 4
ENDMDL