MODEL 2
REMARK VINA RESULT: -6.695751898      1.030      1.982
REMARK  2 active torsions:
REMARK  status: ('A' for Active; 'I' for Inactive)
REMARK       I    between atoms: C1_4  and  N3_6
REMARK    1  A    between atoms: N4_10  and  C5_11
REMARK    2  A    between atoms: C5_11  and  N5_13
ROOT
HETATM    1  C5  UNL     1     -44.680   6.235 -16.635  1.00  0.00     0.172 C
HETATM    2  S1  UNL     1     -45.039   4.569 -16.532  1.00  0.00    -0.041 SA
ENDROOT
BRANCH   1   3
HETATM    3  N4  UNL     1     -45.831   7.009 -16.731  1.00  0.00    -0.357 N
HETATM    4  C4  UNL     1     -46.212   8.042 -15.805  1.00  0.00     0.127 C
HETATM    5  C3  UNL     1     -45.855   9.428 -16.310  1.00  0.00     0.040 C
HETATM    6  C2  UNL     1     -45.145   9.395 -17.634  1.00  0.00     0.127 C
HETATM    7  N3  UNL     1     -46.033   8.920 -18.672  1.00  0.00    -0.354 N
HETATM    8  C1  UNL     1     -46.769   9.899 -19.357  1.00  0.00     0.184 C
HETATM    9  C16 UNL     1     -46.223   7.539 -19.059  1.00  0.00     0.145 C
HETATM   10  N1  UNL     1     -47.611  10.696 -18.790  1.00  0.00    -0.374 N
HETATM   11  N2  UNL     1     -46.577  10.021 -20.759  1.00  0.00    -0.064 NA
ATOM     12  H12 UNL     1     -48.146  11.407 -19.288  1.00  0.00     0.158 HD
ATOM     13  H11 UNL     1     -47.749  10.608 -17.782  1.00  0.00     0.158 HD
HETATM   14  C15 UNL     1     -46.713   6.715 -17.904  1.00  0.00     0.145 C
ENDBRANCH   1   3
BRANCH   1  15
HETATM   15  N5  UNL     1     -43.328   6.497 -16.591  1.00  0.00    -0.356 N
HETATM   16  C6  UNL     1     -42.821   7.255 -17.769  1.00  0.00     0.127 C
HETATM   17  C7  UNL     1     -42.146   6.248 -18.669  1.00  0.00     0.039 C
HETATM   18  C8  UNL     1     -41.109   5.529 -17.790  1.00  0.00     0.119 C
HETATM   19  N6  UNL     1     -40.538   6.499 -16.929  1.00  0.00    -0.406 N
HETATM   20  C9  UNL     1     -39.145   6.735 -17.073  1.00  0.00     0.117 C
HETATM   21  C13 UNL     1     -41.072   6.678 -15.645  1.00  0.00     0.097 C
HETATM   22  C10 UNL     1     -38.280   6.115 -16.031  1.00  0.00     0.019 C
HETATM   23  C11 UNL     1     -38.799   6.300 -14.632  1.00  0.00     0.004 C
HETATM   24  C12 UNL     1     -40.270   6.154 -14.501  1.00  0.00     0.026 C
HETATM   25  C14 UNL     1     -42.472   6.070 -15.523  1.00  0.00     0.150 C
ENDBRANCH   1  15
TORSDOF 2
ENDMDL