MODEL 4
REMARK VINA RESULT: -7.065515688      4.169      7.020
REMARK  5 active torsions:
REMARK  status: ('A' for Active; 'I' for Inactive)
REMARK    1  A    between atoms: C3_3  and  C4_4
REMARK    2  A    between atoms: C5_5  and  C6_6
REMARK    3  A    between atoms: C7_7  and  C8_8
REMARK    4  A    between atoms: N1_12  and  C12_13
REMARK    5  A    between atoms: C12_13  and  N2_15
REMARK       I    between atoms: N2_15  and  C13_17
REMARK       I    between atoms: C13_17  and  N3_19
ROOT
HETATM    1  C1  UNL     1     -47.171   2.894 -17.832  1.00  0.00     0.013 C
HETATM    2  C2  UNL     1     -46.855   3.894 -17.234  1.00  0.00    -0.105 C
HETATM    3  C3  UNL     1     -46.450   5.122 -16.510  1.00  0.00     0.187 C
ENDROOT
BRANCH   3   4
HETATM    4  C4  UNL     1     -44.999   5.321 -16.605  1.00  0.00    -0.081 C
HETATM    5  C5  UNL     1     -43.794   5.470 -16.698  1.00  0.00    -0.014 C
BRANCH   5   6
HETATM    6  C6  UNL     1     -42.392   5.666 -16.811  1.00  0.00    -0.013 C
HETATM    7  C7  UNL     1     -41.197   5.836 -16.894  1.00  0.00    -0.067 C
BRANCH   7   8
HETATM    8  C8  UNL     1     -39.747   6.060 -16.986  1.00  0.00     0.167 C
HETATM    9  C9  UNL     1     -39.443   7.518 -16.983  1.00  0.00     0.040 C
HETATM   10  C10 UNL     1     -39.829   7.865 -15.552  1.00  0.00     0.023 C
HETATM   11  C11 UNL     1     -39.321   6.666 -14.753  1.00  0.00     0.127 C
HETATM   12  N1  UNL     1     -39.205   5.585 -15.696  1.00  0.00    -0.343 N
BRANCH  12  13
HETATM   13  C12 UNL     1     -38.701   4.281 -15.600  1.00  0.00     0.178 C
HETATM   14  S1  UNL     1     -39.722   3.116 -16.310  1.00  0.00    -0.041 SA
BRANCH  13  15
HETATM   15  N2  UNL     1     -37.540   3.750 -15.074  1.00  0.00    -0.285 N
HETATM   16  C13 UNL     1     -36.172   3.974 -15.253  1.00  0.00     0.324 C
HETATM   17  O1  UNL     1     -35.718   4.824 -16.032  1.00  0.00    -0.247 OA
HETATM   18  N3  UNL     1     -35.198   3.192 -14.505  1.00  0.00    -0.331 N
HETATM   19  C14 UNL     1     -33.787   3.398 -14.666  1.00  0.00     0.147 C
HETATM   20  C18 UNL     1     -35.662   2.191 -13.583  1.00  0.00     0.147 C
HETATM   21  C15 UNL     1     -33.129   2.054 -14.703  1.00  0.00     0.136 C
HETATM   22  N4  UNL     1     -33.349   1.314 -13.511  1.00  0.00    -0.414 N
HETATM   23  C16 UNL     1     -33.050  -0.096 -13.634  1.00  0.00     0.143 C
HETATM   24  C17 UNL     1     -34.538   1.586 -12.784  1.00  0.00     0.136 C
ATOM     25  H2  UNL     1     -37.726   3.016 -14.390  1.00  0.00     0.173 HD
ENDBRANCH  13  15
ENDBRANCH  12  13
ENDBRANCH   7   8
ENDBRANCH   5   6
ENDBRANCH   3   4
TORSDOF 5
ENDMDL