MODEL 4
REMARK VINA RESULT: -5.846667178      3.713      7.694
REMARK  4 active torsions:
REMARK  status: ('A' for Active; 'I' for Inactive)
REMARK    1  A    between atoms: N1_2  and  C3_4
REMARK    2  A    between atoms: C3_4  and  N2_6
REMARK       I    between atoms: C4_8  and  N4_10
REMARK       I    between atoms: N5_13  and  C7_14
REMARK    3  A    between atoms: C7_14  and  O2_16
REMARK    4  A    between atoms: O2_16  and  C8_17
ROOT
HETATM    1  N2  UNL     1     -42.982   6.796 -16.998  1.00  0.00    -0.307 N
ATOM      2  H2  UNL     1     -42.973   6.169 -17.803  1.00  0.00     0.171 HD
HETATM    3  C4  UNL     1     -42.208   6.514 -16.002  1.00  0.00     0.198 C
HETATM    4  N3  UNL     1     -42.119   7.285 -14.833  1.00  0.00    -0.063 NA
HETATM    5  N4  UNL     1     -41.409   5.343 -16.129  1.00  0.00    -0.309 N
HETATM    6  C5  UNL     1     -40.033   5.607 -16.465  1.00  0.00     0.153 C
HETATM    7  C6  UNL     1     -39.302   4.372 -16.920  1.00  0.00     0.148 C
HETATM    8  N5  UNL     1     -39.393   3.322 -15.955  1.00  0.00    -0.326 N
HETATM    9  C7  UNL     1     -38.396   3.263 -14.949  1.00  0.00     0.363 C
HETATM   10  O1  UNL     1     -38.372   2.391 -14.052  1.00  0.00    -0.238 OA
HETATM   11  C12 UNL     1     -40.390   2.279 -15.857  1.00  0.00     0.135 C
HETATM   12  C13 UNL     1     -41.665   2.789 -16.454  1.00  0.00     0.096 C
HETATM   13  C14 UNL     1     -42.037   4.098 -15.916  1.00  0.00     0.080 C
HETATM   14  N6  UNL     1     -43.085   4.156 -15.132  1.00  0.00    -0.389 N
ATOM     15  H61 UNL     1     -43.538   3.255 -14.978  1.00  0.00     0.157 HD
ATOM     16  H62 UNL     1     -43.344   5.068 -14.757  1.00  0.00     0.157 HD
ENDROOT
BRANCH   1  17
HETATM   17  C3  UNL     1     -43.835   7.909 -17.043  1.00  0.00     0.175 C
HETATM   18  S1  UNL     1     -43.273   9.347 -17.572  1.00  0.00    -0.041 SA
BRANCH  17  19
HETATM   19  N1  UNL     1     -45.176   7.779 -16.629  1.00  0.00    -0.367 N
HETATM   20  C1  UNL     1     -45.952   8.960 -16.271  1.00  0.00     0.151 C
HETATM   21  C2  UNL     1     -45.818   6.498 -16.545  1.00  0.00     0.151 C
ENDBRANCH  17  19
ENDBRANCH   1  17
BRANCH   9  22
HETATM   22  O2  UNL     1     -37.398   4.220 -14.959  1.00  0.00    -0.294 OA
BRANCH  22  23
HETATM   23  C8  UNL     1     -36.048   3.815 -15.092  1.00  0.00     0.061 C
HETATM   24  C9  UNL     1     -35.939   2.505 -15.846  1.00  0.00     0.046 C
HETATM   25  C10 UNL     1     -35.398   3.709 -13.743  1.00  0.00     0.046 C
HETATM   26  C11 UNL     1     -35.354   4.928 -15.888  1.00  0.00     0.046 C
ENDBRANCH  22  23
ENDBRANCH   9  22
TORSDOF 4
ENDMDL