MODEL 1
REMARK VINA RESULT: -9.173036426      0.000      0.000
REMARK  2 active torsions:
REMARK  status: ('A' for Active; 'I' for Inactive)
REMARK    1  A    between atoms: C3_3  and  C4_4
REMARK    2  A    between atoms: C5_7  and  C6_8
ROOT
HETATM    1  C1  UNL     1     -38.998   7.493 -17.441  1.00  0.00     0.030 C
HETATM    2  C2  UNL     1     -40.230   7.101 -17.055  1.00  0.00     0.035 A
HETATM    3  C3  UNL     1     -40.488   5.794 -16.935  1.00  0.00     0.074 A
HETATM    4  N3  UNL     1     -41.851   5.499 -16.971  1.00  0.00    -0.339 N
ATOM      5  H3  UNL     1     -42.140   4.525 -16.895  1.00  0.00     0.167 HD
HETATM    6  C13 UNL     1     -42.781   6.420 -17.098  1.00  0.00     0.120 A
HETATM    7  C14 UNL     1     -42.501   7.757 -17.206  1.00  0.00     0.059 A
HETATM    8  C15 UNL     1     -41.171   8.123 -17.185  1.00  0.00     0.197 A
HETATM    9  O1  UNL     1     -40.833   9.314 -17.279  1.00  0.00    -0.286 OA
HETATM   10  C16 UNL     1     -43.570   8.757 -17.344  1.00  0.00     0.021 A
HETATM   11  C17 UNL     1     -44.826   8.360 -17.362  1.00  0.00     0.018 A
HETATM   12  C18 UNL     1     -45.106   6.936 -17.245  1.00  0.00     0.090 A
HETATM   13  N4  UNL     1     -44.168   6.062 -17.126  1.00  0.00    -0.351 N
ATOM     14  H4  UNL     1     -44.422   5.077 -17.047  1.00  0.00     0.166 HD
ENDROOT
BRANCH   3  15
HETATM   15  C4  UNL     1     -39.682   4.853 -16.438  1.00  0.00     0.066 A
HETATM   16  N1  UNL     1     -38.463   5.201 -15.897  1.00  0.00    -0.352 N
HETATM   17  C5  UNL     1     -37.699   4.168 -15.633  1.00  0.00     0.057 A
ATOM     18  H1  UNL     1     -38.183   6.166 -15.719  1.00  0.00     0.166 HD
HETATM   19  C10 UNL     1     -38.379   3.046 -15.991  1.00  0.00     0.040 A
HETATM   20  C11 UNL     1     -39.626   3.491 -16.501  1.00  0.00    -0.031 A
HETATM   21  C12 UNL     1     -40.508   2.472 -17.115  1.00  0.00     0.050 C
BRANCH  17  22
HETATM   22  C6  UNL     1     -36.457   4.190 -15.099  1.00  0.00     0.046 C
HETATM   23  C7  UNL     1     -35.304   4.770 -15.857  1.00  0.00     0.140 C
HETATM   24  S1  UNL     1     -34.046   3.577 -15.210  1.00  0.00    -0.111 SA
HETATM   25  C8  UNL     1     -34.916   3.317 -13.647  1.00  0.00     0.043 C
HETATM   26  C9  UNL     1     -34.273   2.751 -12.406  1.00  0.00     0.076 C
HETATM   27  N2  UNL     1     -36.096   3.695 -13.838  1.00  0.00    -0.355 N
ATOM     28  H2  UNL     1     -36.783   3.644 -13.086  1.00  0.00     0.166 HD
ENDBRANCH  17  22
ENDBRANCH   3  15
TORSDOF 2
ENDMDL