MODEL 5
REMARK VINA RESULT: -6.338871366      3.112      5.292
REMARK  0 active torsions:
REMARK  status: ('A' for Active; 'I' for Inactive)
ROOT
HETATM    1  O1  UNL     1     -39.560   6.821 -14.272  1.00  0.00    -0.272 OA
HETATM    2  C1  UNL     1     -38.882   6.066 -15.027  1.00  0.00     0.246 C
HETATM    3  C2  UNL     1     -39.440   5.804 -16.363  1.00  0.00     0.375 C
HETATM    4  N1  UNL     1     -40.806   5.307 -16.371  1.00  0.00     0.055 N
HETATM    5  C3  UNL     1     -41.031   4.088 -15.708  1.00  0.00     0.275 C
HETATM    6  C4  UNL     1     -40.973   2.834 -16.514  1.00  0.00     0.058 C
HETATM    7  C5  UNL     1     -39.628   2.476 -17.065  1.00  0.00     0.234 C
HETATM    8  N2  UNL     1     -38.690   2.377 -15.992  1.00  0.00    -0.075 N
ATOM      9  H21 UNL     1     -38.831   1.512 -15.471  1.00  0.00     0.277 HD
ATOM     10  H22 UNL     1     -38.908   3.055 -15.262  1.00  0.00     0.277 HD
HETATM   11  C6  UNL     1     -37.317   2.501 -16.404  1.00  0.00     0.234 C
HETATM   12  C7  UNL     1     -36.626   3.731 -15.816  1.00  0.00     0.047 C
HETATM   13  C8  UNL     1     -37.231   4.181 -14.533  1.00  0.00     0.124 C
HETATM   14  N3  UNL     1     -37.667   5.560 -14.511  1.00  0.00    -0.359 N
ATOM     15  H3  UNL     1     -37.034   6.234 -14.080  1.00  0.00     0.162 HD
HETATM   16  C9  UNL     1     -41.250   5.371 -17.742  1.00  0.00     0.275 C
HETATM   17  C10 UNL     1     -41.780   6.742 -18.125  1.00  0.00     0.059 C
HETATM   18  C11 UNL     1     -43.255   6.678 -18.344  1.00  0.00     0.239 C
HETATM   19  N4  UNL     1     -44.031   7.460 -17.399  1.00  0.00    -0.065 N
HETATM   20  C12 UNL     1     -45.375   6.950 -17.476  1.00  0.00     0.237 C
HETATM   21  C13 UNL     1     -46.443   7.975 -17.443  1.00  0.00     0.028 C
HETATM   22  C14 UNL     1     -46.126   9.213 -16.676  1.00  0.00     0.003 C
HETATM   23  C15 UNL     1     -44.843   9.783 -17.140  1.00  0.00     0.028 C
HETATM   24  C16 UNL     1     -43.902   8.836 -17.791  1.00  0.00     0.237 C
HETATM   25  C17 UNL     1     -43.566   7.343 -16.040  1.00  0.00     0.266 C
HETATM   26  C18 UNL     1     -42.893   6.019 -15.741  1.00  0.00     0.235 C
HETATM   27  O2  UNL     1     -41.525   6.273 -15.704  1.00  0.00    -0.200 OA
ENDROOT
TORSDOF 0
ENDMDL