MODEL 5
REMARK VINA RESULT: -6.340128229      4.830      9.577
REMARK  5 active torsions:
REMARK  status: ('A' for Active; 'I' for Inactive)
REMARK    1  A    between atoms: C1_2  and  N2_4
REMARK    2  A    between atoms: N3_8  and  C5_9
REMARK    3  A    between atoms: C5_9  and  O1_10
REMARK    4  A    between atoms: C5_9  and  N4_12
REMARK    5  A    between atoms: N5_16  and  C9_17
ROOT
HETATM    1  C5  UNL     1     -37.377   4.424 -15.452  1.00  0.00     0.223 C
ENDROOT
BRANCH   1   2
HETATM    2  N3  UNL     1     -36.197   3.760 -15.695  1.00  0.00    -0.331 N
HETATM    3  C4  UNL     1     -34.934   4.527 -15.718  1.00  0.00     0.129 C
HETATM    4  C3  UNL     1     -33.845   3.755 -14.998  1.00  0.00     0.040 C
HETATM    5  C2  UNL     1     -33.569   2.478 -15.723  1.00  0.00     0.128 C
HETATM    6  N2  UNL     1     -34.721   2.031 -16.441  1.00  0.00    -0.344 N
HETATM    7  C11 UNL     1     -36.054   2.359 -15.939  1.00  0.00     0.254 C
BRANCH   6   8
HETATM    8  C1  UNL     1     -34.555   1.276 -17.627  1.00  0.00     0.184 C
HETATM    9  N1  UNL     1     -33.450   1.433 -18.500  1.00  0.00    -0.070 NA
HETATM   10  S1  UNL     1     -35.666   0.152 -18.061  1.00  0.00    -0.044 SA
ENDBRANCH   6   8
ENDBRANCH   1   2
BRANCH   1  11
HETATM   11  O1  UNL     1     -37.413   5.035 -14.294  1.00  0.00    -0.332 OA
ATOM     12  H1  UNL     1     -36.634   5.543 -14.102  1.00  0.00     0.221 HD
ENDBRANCH   1  11
BRANCH   1  13
HETATM   13  N4  UNL     1     -38.561   4.586 -16.190  1.00  0.00    -0.310 N
HETATM   14  C6  UNL     1     -39.402   3.526 -16.544  1.00  0.00     0.071 C
HETATM   15  C7  UNL     1     -40.750   3.816 -17.118  1.00  0.00     0.065 C
HETATM   16  C8  UNL     1     -41.044   5.220 -17.491  1.00  0.00     0.131 C
HETATM   17  N5  UNL     1     -40.344   6.080 -16.566  1.00  0.00    -0.349 N
HETATM   18  C10 UNL     1     -38.910   5.949 -16.611  1.00  0.00     0.258 C
BRANCH  17  19
HETATM   19  C9  UNL     1     -40.964   6.989 -15.674  1.00  0.00     0.149 C
HETATM   20  S2  UNL     1     -40.532   8.559 -15.624  1.00  0.00    -0.052 SA
HETATM   21  S3  UNL     1     -42.246   6.413 -14.577  1.00  0.00    -0.020 SA
ENDBRANCH  17  19
ENDBRANCH   1  13
TORSDOF 5
ENDMDL