MODEL 2
REMARK VINA RESULT: -8.470434132      3.870      7.616
REMARK  1 active torsions:
REMARK  status: ('A' for Active; 'I' for Inactive)
REMARK    1  A    between atoms: C10_14  and  N2_15
REMARK       I    between atoms: N2_15  and  C11_17
REMARK       I    between atoms: N4_19  and  C12_21
REMARK       I    between atoms: C12_21  and  N6_25
ROOT
HETATM    1  C1  UNL     1     -41.580   0.950 -16.144  1.00  0.00     0.049 C
HETATM    2  C2  UNL     1     -41.893   2.393 -16.033  1.00  0.00    -0.054 A
HETATM    3  C3  UNL     1     -43.178   2.833 -15.940  1.00  0.00     0.008 A
HETATM    4  C4  UNL     1     -43.463   4.184 -15.835  1.00  0.00     0.017 A
HETATM    5  C5  UNL     1     -42.466   5.166 -15.820  1.00  0.00     0.033 A
HETATM    6  C6  UNL     1     -41.199   4.702 -15.915  1.00  0.00     0.100 A
HETATM    7  C7  UNL     1     -40.900   3.373 -16.018  1.00  0.00    -0.032 A
HETATM    8  C8  UNL     1     -39.499   2.893 -16.120  1.00  0.00     0.050 C
HETATM    9  S1  UNL     1     -40.143   6.083 -15.877  1.00  0.00     0.267 S
HETATM   10  O1  UNL     1     -39.271   6.065 -14.650  1.00  0.00    -0.200 OA
HETATM   11  O2  UNL     1     -39.328   6.205 -17.129  1.00  0.00    -0.200 OA
HETATM   12  N1  UNL     1     -41.335   7.290 -15.736  1.00  0.00    -0.260 N
HETATM   13  C9  UNL     1     -41.136   8.730 -15.651  1.00  0.00     0.171 C
HETATM   14  C10 UNL     1     -42.617   6.584 -15.718  1.00  0.00     0.131 A
ENDROOT
BRANCH  14  15
HETATM   15  N2  UNL     1     -43.653   7.316 -15.618  1.00  0.00    -0.315 N
HETATM   16  C11 UNL     1     -44.366   8.020 -16.548  1.00  0.00     0.208 C
HETATM   17  N3  UNL     1     -45.465   7.384 -17.257  1.00  0.00    -0.063 NA
HETATM   18  N4  UNL     1     -44.149   9.276 -16.846  1.00  0.00    -0.164 N
HETATM   19  C12 UNL     1     -44.955   9.886 -17.825  1.00  0.00     0.675 C
ATOM     20  H4  UNL     1     -43.410   9.801 -16.379  1.00  0.00     0.187 HD
HETATM   21  N5  UNL     1     -44.449  10.365 -18.892  1.00  0.00    -0.235 N
HETATM   22  N6  UNL     1     -46.357   9.952 -17.585  1.00  0.00    -0.227 N
ATOM     23  H52 UNL     1     -43.444  10.318 -19.064  1.00  0.00     0.174 HD
ATOM     24  H51 UNL     1     -45.033  10.807 -19.601  1.00  0.00     0.174 HD
HETATM   25  C13 UNL     1     -47.314   9.763 -18.670  1.00  0.00     0.168 C
HETATM   26  C14 UNL     1     -46.806  10.213 -16.220  1.00  0.00     0.168 C
ATOM     27  H2  UNL     1     -44.019   7.392 -14.669  1.00  0.00     0.170 HD
ENDBRANCH  14  15
TORSDOF 1
ENDMDL