MODEL 1
REMARK VINA RESULT: -9.700808761      0.000      0.000
REMARK  4 active torsions:
REMARK  status: ('A' for Active; 'I' for Inactive)
REMARK       I    between atoms: C2_2  and  N1_4
REMARK       I    between atoms: N1_4  and  C3_6
REMARK    1  A    between atoms: C3_6  and  C4_8
REMARK    2  A    between atoms: C10_14  and  C11_15
REMARK    3  A    between atoms: C22_28  and  O5_29
REMARK    4  A    between atoms: C29_37  and  O6_38
ROOT
HETATM    1  C4  UNL     1      37.718 111.138  52.839  1.00  0.00     0.052 C
HETATM    2  C5  UNL     1      37.301 111.804  54.142  1.00  0.00     0.020 C
HETATM    3  C6  UNL     1      38.004 111.207  55.337  1.00  0.00     0.007 C
HETATM    4  C7  UNL     1      39.443 111.689  55.198  1.00  0.00     0.005 C
HETATM    5  C8  UNL     1      40.042 111.343  53.882  1.00  0.00    -0.003 C
HETATM    6  C9  UNL     1      41.303 110.497  53.977  1.00  0.00     0.025 C
HETATM    7  C10 UNL     1      42.252 110.936  55.023  1.00  0.00     0.125 C
HETATM    8  C13 UNL     1      41.612 111.524  56.226  1.00  0.00     0.146 C
HETATM    9  O4  UNL     1      42.242 112.194  57.020  1.00  0.00    -0.296 OA
HETATM   10  C14 UNL     1      40.179 111.261  56.417  1.00  0.00     0.018 C
HETATM   11  C15 UNL     1      39.885 109.859  56.881  1.00  0.00     0.023 C
HETATM   12  C16 UNL     1      39.691 112.157  57.571  1.00  0.00     0.023 C
HETATM   13  C17 UNL     1      39.164 110.697  52.888  1.00  0.00     0.009 C
HETATM   14  C18 UNL     1      39.186 109.182  52.904  1.00  0.00     0.016 C
HETATM   15  C19 UNL     1      37.955 108.867  52.116  1.00  0.00    -0.029 C
HETATM   16  C20 UNL     1      38.216 109.061  50.646  1.00  0.00     0.016 C
HETATM   17  C21 UNL     1      36.999 109.873  52.680  1.00  0.00     0.041 C
HETATM   18  C22 UNL     1      35.745 109.807  51.922  1.00  0.00     0.124 C
HETATM   19  C23 UNL     1      35.367 108.493  51.387  1.00  0.00     0.038 C
HETATM   20  C24 UNL     1      36.067 107.257  51.828  1.00  0.00     0.005 C
HETATM   21  C25 UNL     1      35.201 106.375  52.707  1.00  0.00    -0.035 C
HETATM   22  C26 UNL     1      34.528 107.108  53.809  1.00  0.00     0.016 C
HETATM   23  C27 UNL     1      34.129 105.789  51.806  1.00  0.00     0.012 C
HETATM   24  C28 UNL     1      33.226 104.844  52.548  1.00  0.00     0.033 C
HETATM   25  C29 UNL     1      34.031 103.678  52.983  1.00  0.00     0.126 C
HETATM   26  C30 UNL     1      35.360 103.986  53.595  1.00  0.00    -0.017 C
HETATM   27  C31 UNL     1      35.233 103.804  55.090  1.00  0.00     0.018 C
HETATM   28  C32 UNL     1      36.255 102.787  53.186  1.00  0.00     0.018 C
HETATM   29  C33 UNL     1      36.045 105.202  53.130  1.00  0.00     0.004 C
HETATM   30  C34 UNL     1      37.058 105.706  54.103  1.00  0.00     0.007 C
HETATM   31  C35 UNL     1      37.686 107.019  53.748  1.00  0.00     0.011 C
HETATM   32  C36 UNL     1      37.475 107.442  52.314  1.00  0.00    -0.032 C
HETATM   33  C37 UNL     1      38.492 106.601  51.510  1.00  0.00     0.016 C
ENDROOT
BRANCH   1  34
HETATM   34  C3  UNL     1      37.544 112.184  51.804  1.00  0.00     0.233 C
HETATM   35  N1  UNL     1      36.834 113.394  51.966  1.00  0.00    -0.297 N
HETATM   36  C2  UNL     1      36.687 114.350  50.946  1.00  0.00     0.220 C
ATOM     37  H1  UNL     1      36.406 113.585  52.872  1.00  0.00     0.171 HD
HETATM   38  C1  UNL     1      37.266 114.172  49.611  1.00  0.00     0.117 C
HETATM   39  O1  UNL     1      36.027 115.429  51.163  1.00  0.00    -0.274 OA
HETATM   40  O2  UNL     1      38.065 111.995  50.683  1.00  0.00    -0.272 OA
ENDBRANCH   1  34
BRANCH  18  41
HETATM   41  O5  UNL     1      34.721 110.264  52.801  1.00  0.00    -0.395 OA
ATOM     42  H5  UNL     1      34.004 110.554  52.249  1.00  0.00     0.210 HD
ENDBRANCH  18  41
BRANCH   7  43
HETATM   43  C11 UNL     1      43.329 111.840  54.491  1.00  0.00     0.134 C
HETATM   44  C12 UNL     1      42.990 113.038  53.676  1.00  0.00     0.091 C
HETATM   45  O3  UNL     1      44.511 111.628  54.706  1.00  0.00    -0.298 OA
ENDBRANCH   7  43
BRANCH  25  46
HETATM   46  O6  UNL     1      33.247 102.930  53.886  1.00  0.00    -0.395 OA
ATOM     47  H6  UNL     1      32.336 103.146  53.725  1.00  0.00     0.210 HD
ENDBRANCH  25  46
TORSDOF 4
ENDMDL