MODEL 3
REMARK VINA RESULT: -9.991180223      0.778      1.347
REMARK  5 active torsions:
REMARK  status: ('A' for Active; 'I' for Inactive)
REMARK    1  A    between atoms: N1_1  and  C1_5
REMARK    2  A    between atoms: N2_11  and  C7_12
REMARK    3  A    between atoms: C7_12  and  O1_13
REMARK    4  A    between atoms: C7_12  and  C8_15
REMARK    5  A    between atoms: C23_32  and  C24_33
ROOT
HETATM    1  C1  UNL     1      36.774 119.526  52.496  1.00  0.00     0.274 C
HETATM    2  C2  UNL     1      37.665 118.877  51.460  1.00  0.00     0.042 C
HETATM    3  C3  UNL     1      37.118 117.541  51.061  1.00  0.00     0.002 C
HETATM    4  C4  UNL     1      38.172 116.775  50.265  1.00  0.00     0.002 C
HETATM    5  C5  UNL     1      37.871 115.292  50.255  1.00  0.00     0.020 C
HETATM    6  C6  UNL     1      38.539 114.699  51.488  1.00  0.00     0.124 C
HETATM    7  N2  UNL     1      38.595 113.243  51.419  1.00  0.00    -0.364 N
HETATM    8  C17 UNL     1      39.672 112.682  50.677  1.00  0.00     0.124 C
HETATM    9  C18 UNL     1      40.766 113.656  50.292  1.00  0.00     0.020 C
HETATM   10  C19 UNL     1      41.838 113.747  51.346  1.00  0.00     0.002 C
HETATM   11  C20 UNL     1      43.053 114.487  50.827  1.00  0.00     0.000 C
HETATM   12  C21 UNL     1      44.241 114.061  51.655  1.00  0.00     0.001 C
HETATM   13  C22 UNL     1      44.917 115.307  52.176  1.00  0.00     0.015 C
HETATM   14  C23 UNL     1      46.118 115.586  51.307  1.00  0.00     0.087 C
HETATM   15  C25 UNL     1      46.476 117.056  51.384  1.00  0.00     0.015 C
HETATM   16  C26 UNL     1      45.498 117.791  50.485  1.00  0.00     0.001 C
HETATM   17  C27 UNL     1      44.946 119.009  51.178  1.00  0.00     0.000 C
HETATM   18  C28 UNL     1      45.557 120.285  50.634  1.00  0.00     0.000 C
HETATM   19  C29 UNL     1      44.478 121.308  50.428  1.00  0.00     0.000 C
HETATM   20  C30 UNL     1      43.833 121.712  51.735  1.00  0.00     0.000 C
HETATM   21  C31 UNL     1      42.610 122.546  51.433  1.00  0.00     0.000 C
HETATM   22  C32 UNL     1      41.525 122.307  52.470  1.00  0.00     0.002 C
HETATM   23  C33 UNL     1      40.160 122.620  51.933  1.00  0.00     0.020 C
HETATM   24  C34 UNL     1      39.285 121.360  51.922  1.00  0.00     0.122 C
HETATM   25  N3  UNL     1      37.889 121.717  51.764  1.00  0.00    -0.359 N
ATOM     26  H3  UNL     1      37.664 122.526  51.186  1.00  0.00     0.162 HD
HETATM   27  C35 UNL     1      36.818 121.006  52.366  1.00  0.00     0.248 C
HETATM   28  O6  UNL     1      35.835 121.643  52.827  1.00  0.00    -0.271 OA
ENDROOT
BRANCH   7  29
HETATM   29  C7  UNL     1      37.613 112.500  52.048  1.00  0.00     0.130 C
BRANCH  29  30
HETATM   30  O1  UNL     1      36.873 113.178  52.882  1.00  0.00    -0.349 OA
ATOM     31  H1  UNL     1      36.842 112.819  53.761  1.00  0.00     0.219 HD
ENDBRANCH  29  30
BRANCH  29  32
HETATM   32  C8  UNL     1      37.274 111.054  51.922  1.00  0.00     0.088 C
HETATM   33  C9  UNL     1      38.181 110.194  52.653  1.00  0.00     0.058 C
HETATM   34  C10 UNL     1      38.414 108.793  52.337  1.00  0.00     0.126 C
HETATM   35  C11 UNL     1      37.431 107.815  52.924  1.00  0.00     0.064 C
HETATM   36  O3  UNL     1      38.181 108.296  51.103  1.00  0.00    -0.380 OA
HETATM   37  C12 UNL     1      36.960 107.802  51.505  1.00  0.00     0.125 C
HETATM   38  C13 UNL     1      35.764 108.565  51.192  1.00  0.00     0.044 C
HETATM   39  C14 UNL     1      35.787 110.005  50.980  1.00  0.00     0.060 C
HETATM   40  C15 UNL     1      36.977 110.692  50.489  1.00  0.00     0.038 C
HETATM   41  C16 UNL     1      35.835 110.851  52.214  1.00  0.00     0.147 C
HETATM   42  O2  UNL     1      34.988 111.168  53.031  1.00  0.00    -0.296 OA
ENDBRANCH  29  32
ENDBRANCH   7  29
BRANCH   1  43
HETATM   43  N1  UNL     1      35.384 119.124  52.315  1.00  0.00    -0.067 N
ATOM     44  H13 UNL     1      34.746 119.912  52.428  1.00  0.00     0.275 HD
ATOM     45  H12 UNL     1      35.182 118.899  51.341  1.00  0.00     0.275 HD
ATOM     46  H11 UNL     1      35.145 118.352  52.936  1.00  0.00     0.275 HD
ENDBRANCH   1  43
BRANCH  14  47
HETATM   47  C24 UNL     1      47.275 114.796  51.739  1.00  0.00     0.177 C
HETATM   48  O4  UNL     1      48.052 114.324  50.882  1.00  0.00    -0.648 OA
HETATM   49  O5  UNL     1      47.512 114.572  53.087  1.00  0.00    -0.648 OA
ENDBRANCH  14  47
TORSDOF 5
ENDMDL