MODEL 2
REMARK VINA RESULT: -11.164826790      1.210      1.654
REMARK  5 active torsions:
REMARK  status: ('A' for Active; 'I' for Inactive)
REMARK    1  A    between atoms: C3_3  and  C5_5
REMARK       I    between atoms: N1_20  and  C19_21
REMARK    2  A    between atoms: C19_21  and  O3_23
REMARK    3  A    between atoms: O3_23  and  C20_24
REMARK    4  A    between atoms: C24_28  and  O4_29
REMARK    5  A    between atoms: C26_32  and  O5_33
ROOT
HETATM    1  C1  UNL     1      32.880 107.477  52.905  1.00  0.00     0.017 C
HETATM    2  C2  UNL     1      33.931 107.038  52.477  1.00  0.00    -0.081 C
HETATM    3  C3  UNL     1      35.158 106.497  51.968  1.00  0.00     0.016 C
HETATM    4  C4  UNL     1      35.449 105.195  52.139  1.00  0.00     0.030 C
ENDROOT
BRANCH   3   5
HETATM    5  C5  UNL     1      36.156 107.324  51.244  1.00  0.00     0.227 C
HETATM    6  C6  UNL     1      35.867 108.796  51.506  1.00  0.00     0.048 C
HETATM    7  C7  UNL     1      37.232 109.320  51.934  1.00  0.00     0.048 C
HETATM    8  C8  UNL     1      37.876 108.152  52.546  1.00  0.00     0.193 C
HETATM    9  C16 UNL     1      37.087 110.568  52.687  1.00  0.00     0.059 C
HETATM   10  C9  UNL     1      39.395 108.182  52.533  1.00  0.00     0.037 C
HETATM   11  N2  UNL     1      37.490 107.064  51.668  1.00  0.00    -0.062 N
HETATM   12  C10 UNL     1      39.950 107.837  53.912  1.00  0.00     0.029 C
HETATM   13  C11 UNL     1      41.055 108.753  54.268  1.00  0.00    -0.031 C
HETATM   14  C12 UNL     1      40.905 109.892  54.934  1.00  0.00    -0.031 C
HETATM   15  C13 UNL     1      39.593 110.406  55.414  1.00  0.00     0.027 C
HETATM   16  C14 UNL     1      38.866 111.183  54.346  1.00  0.00     0.006 C
HETATM   17  C15 UNL     1      37.485 110.563  54.130  1.00  0.00     0.033 C
ATOM     18  H22 UNL     1      37.603 106.145  52.096  1.00  0.00     0.278 HD
ATOM     19  H21 UNL     1      38.137 106.926  50.892  1.00  0.00     0.278 HD
HETATM   20  C17 UNL     1      35.648 111.117  52.583  1.00  0.00     0.135 C
HETATM   21  N1  UNL     1      37.426 111.780  51.998  1.00  0.00    -0.253 N
HETATM   22  C18 UNL     1      36.394 112.421  52.726  1.00  0.00     0.231 C
HETATM   23  O1  UNL     1      36.212 113.538  53.234  1.00  0.00    -0.273 OA
HETATM   24  C19 UNL     1      38.334 112.248  51.033  1.00  0.00     0.370 C
HETATM   25  O2  UNL     1      39.186 111.478  50.512  1.00  0.00    -0.238 OA
BRANCH  24  26
HETATM   26  O3  UNL     1      38.367 113.561  50.584  1.00  0.00    -0.297 OA
BRANCH  26  27
HETATM   27  C20 UNL     1      39.389 114.493  50.970  1.00  0.00     0.142 C
HETATM   28  C21 UNL     1      40.485 114.259  49.919  1.00  0.00     0.034 C
HETATM   29  C22 UNL     1      41.699 115.054  50.115  1.00  0.00     0.016 C
HETATM   30  C23 UNL     1      41.764 116.494  49.829  1.00  0.00    -0.003 C
HETATM   31  C24 UNL     1      42.567 116.647  48.525  1.00  0.00     0.130 C
HETATM   32  C29 UNL     1      42.661 117.129  50.887  1.00  0.00     0.003 C
HETATM   33  C37 UNL     1      40.454 117.213  49.771  1.00  0.00    -0.029 C
HETATM   34  C25 UNL     1      44.064 116.438  48.815  1.00  0.00     0.064 C
HETATM   35  C26 UNL     1      44.669 117.612  49.504  1.00  0.00     0.124 C
HETATM   36  C27 UNL     1      43.571 118.203  50.397  1.00  0.00     0.015 C
HETATM   37  C28 UNL     1      44.303 118.715  51.646  1.00  0.00     0.013 C
HETATM   38  C30 UNL     1      41.963 117.414  52.174  1.00  0.00     0.006 C
HETATM   39  C31 UNL     1      40.550 116.931  52.276  1.00  0.00     0.007 C
HETATM   40  C32 UNL     1      39.721 117.001  51.064  1.00  0.00     0.005 C
HETATM   41  C33 UNL     1      38.798 115.837  50.841  1.00  0.00    -0.013 C
HETATM   42  C34 UNL     1      37.618 115.959  51.768  1.00  0.00     0.018 C
HETATM   43  C35 UNL     1      38.389 115.985  49.371  1.00  0.00     0.013 C
HETATM   44  C36 UNL     1      39.502 116.772  48.715  1.00  0.00     0.011 C
HETATM   45  C38 UNL     1      40.589 118.711  49.584  1.00  0.00     0.016 C
BRANCH  31  46
HETATM   46  O4  UNL     1      42.282 115.562  47.658  1.00  0.00    -0.395 OA
ATOM     47  H4  UNL     1      41.855 114.866  48.145  1.00  0.00     0.210 HD
ENDBRANCH  31  46
BRANCH  35  48
HETATM   48  O5  UNL     1      45.055 118.577  48.547  1.00  0.00    -0.395 OA
ATOM     49  H5  UNL     1      45.603 119.235  48.960  1.00  0.00     0.210 HD
ENDBRANCH  35  48
ENDBRANCH  26  27
ENDBRANCH  24  26
ENDBRANCH   3   5
TORSDOF 5
ENDMDL