MODEL 1
REMARK VINA RESULT: -9.368326513      0.000      0.000
REMARK  6 active torsions:
REMARK  status: ('A' for Active; 'I' for Inactive)
REMARK    1  A    between atoms: C2_2  and  C3_3
REMARK    2  A    between atoms: C13_14  and  O2_15
REMARK    3  A    between atoms: O2_15  and  C14_16
REMARK       I    between atoms: C14_16  and  N1_18
REMARK    4  A    between atoms: C22_26  and  O4_27
REMARK    5  A    between atoms: C25_31  and  O5_32
REMARK    6  A    between atoms: C26_34  and  O6_35
ROOT
HETATM    1  C3  UNL     1      40.276 111.317  54.793  1.00  0.00     0.152 C
HETATM    2  O1  UNL     1      39.395 111.099  53.807  1.00  0.00    -0.375 OA
HETATM    3  C4  UNL     1      39.378 109.784  53.369  1.00  0.00     0.133 C
HETATM    4  C5  UNL     1      40.463 109.114  54.087  1.00  0.00     0.026 C
HETATM    5  C6  UNL     1      40.143 108.200  55.178  1.00  0.00     0.009 C
HETATM    6  C7  UNL     1      38.711 107.723  55.254  1.00  0.00     0.011 C
HETATM    7  C8  UNL     1      38.051 107.711  53.856  1.00  0.00    -0.029 C
HETATM    8  C9  UNL     1      39.005 106.968  52.999  1.00  0.00     0.016 C
HETATM    9  C10 UNL     1      37.967 109.203  53.507  1.00  0.00     0.035 C
HETATM   10  C11 UNL     1      36.984 109.654  52.542  1.00  0.00    -0.003 C
HETATM   11  C12 UNL     1      36.150 110.798  53.190  1.00  0.00     0.019 C
HETATM   12  C13 UNL     1      37.385 110.305  51.254  1.00  0.00     0.143 C
HETATM   13  C17 UNL     1      37.638 109.227  50.232  1.00  0.00     0.034 C
HETATM   14  C18 UNL     1      36.583 108.209  50.642  1.00  0.00     0.013 C
HETATM   15  C19 UNL     1      36.038 108.596  51.980  1.00  0.00    -0.027 C
HETATM   16  C20 UNL     1      34.710 109.307  51.656  1.00  0.00     0.016 C
HETATM   17  C21 UNL     1      35.709 107.454  52.897  1.00  0.00     0.033 C
HETATM   18  C22 UNL     1      35.147 106.333  52.088  1.00  0.00     0.135 C
HETATM   19  C23 UNL     1      34.060 105.525  52.715  1.00  0.00     0.015 C
HETATM   20  C24 UNL     1      32.990 106.196  53.442  1.00  0.00     0.021 C
HETATM   21  C25 UNL     1      33.380 104.687  51.613  1.00  0.00     0.158 C
HETATM   22  C26 UNL     1      32.790 103.560  52.460  1.00  0.00     0.155 C
HETATM   23  C27 UNL     1      33.661 103.433  53.696  1.00  0.00    -0.015 C
HETATM   24  C28 UNL     1      32.913 103.529  54.971  1.00  0.00     0.018 C
HETATM   25  C29 UNL     1      34.265 102.018  53.649  1.00  0.00     0.018 C
HETATM   26  C30 UNL     1      34.731 104.395  53.448  1.00  0.00     0.009 C
HETATM   27  C31 UNL     1      35.472 104.960  54.609  1.00  0.00     0.007 C
HETATM   28  C32 UNL     1      36.753 105.624  54.272  1.00  0.00     0.011 C
HETATM   29  C33 UNL     1      36.663 107.119  53.980  1.00  0.00    -0.029 C
HETATM   30  C34 UNL     1      36.178 107.629  55.360  1.00  0.00     0.016 C
HETATM   31  C35 UNL     1      41.324 110.285  54.599  1.00  0.00    -0.012 C
HETATM   32  C36 UNL     1      42.159 109.946  55.771  1.00  0.00     0.018 C
HETATM   33  C37 UNL     1      42.255 110.781  53.492  1.00  0.00     0.018 C
ENDROOT
BRANCH  12  34
HETATM   34  O2  UNL     1      38.245 111.355  51.224  1.00  0.00    -0.298 OA
BRANCH  34  35
HETATM   35  C14 UNL     1      38.012 112.564  50.670  1.00  0.00     0.362 C
HETATM   36  O3  UNL     1      36.944 112.736  50.011  1.00  0.00    -0.238 OA
HETATM   37  N1  UNL     1      38.900 113.687  50.775  1.00  0.00    -0.337 N
HETATM   38  C15 UNL     1      40.153 113.624  51.497  1.00  0.00     0.154 C
HETATM   39  C16 UNL     1      38.571 114.951  50.150  1.00  0.00     0.154 C
ENDBRANCH  34  35
ENDBRANCH  12  34
BRANCH  18  40
HETATM   40  O4  UNL     1      36.013 105.393  51.570  1.00  0.00    -0.394 OA
ATOM     41  H4  UNL     1      35.892 104.482  51.811  1.00  0.00     0.210 HD
ENDBRANCH  18  40
BRANCH   1  42
HETATM   42  C2  UNL     1      39.710 111.390  56.154  1.00  0.00    -0.005 C
HETATM   43  C1  UNL     1      38.424 111.563  56.403  1.00  0.00     0.009 C
ENDBRANCH   1  42
BRANCH  21  44
HETATM   44  O5  UNL     1      32.385 105.466  51.062  1.00  0.00    -0.392 OA
ATOM     45  H5  UNL     1      31.790 104.882  50.607  1.00  0.00     0.210 HD
ENDBRANCH  21  44
BRANCH  22  46
HETATM   46  O6  UNL     1      32.878 102.412  51.637  1.00  0.00    -0.392 OA
ATOM     47  H6  UNL     1      32.953 101.687  52.245  1.00  0.00     0.210 HD
ENDBRANCH  22  46
TORSDOF 6
ENDMDL