MODEL 4
REMARK VINA RESULT: -8.467083945      2.197      7.109
REMARK  3 active torsions:
REMARK  status: ('A' for Active; 'I' for Inactive)
REMARK    1  A    between atoms: C8_10  and  O3_11
REMARK    2  A    between atoms: C20_24  and  O4_25
REMARK    3  A    between atoms: C27_33  and  N1_34
ROOT
HETATM    1  C1  UNL     1      45.553 124.653  51.140  1.00  0.00     0.012 C
HETATM    2  C2  UNL     1      45.579 123.671  52.305  1.00  0.00     0.006 C
HETATM    3  C3  UNL     1      46.776 122.732  52.180  1.00  0.00     0.012 C
HETATM    4  C4  UNL     1      46.355 121.291  52.384  1.00  0.00     0.074 C
HETATM    5  C5  UNL     1      45.411 120.868  51.297  1.00  0.00     0.189 C
HETATM    6  O1  UNL     1      44.647 122.016  50.979  1.00  0.00    -0.351 OA
HETATM    7  C6  UNL     1      44.358 122.764  52.113  1.00  0.00     0.176 C
HETATM    8  O2  UNL     1      44.594 119.811  51.667  1.00  0.00    -0.342 OA
HETATM    9  C7  UNL     1      43.653 119.529  50.704  1.00  0.00     0.164 C
HETATM   10  C8  UNL     1      42.199 119.577  51.224  1.00  0.00     0.157 C
HETATM   11  C9  UNL     1      41.496 118.383  50.588  1.00  0.00    -0.001 C
HETATM   12  C10 UNL     1      40.261 119.069  49.909  1.00  0.00     0.019 C
HETATM   13  C11 UNL     1      42.377 118.197  49.447  1.00  0.00     0.009 C
HETATM   14  C12 UNL     1      42.464 117.200  48.451  1.00  0.00     0.007 C
HETATM   15  C13 UNL     1      43.778 116.449  48.748  1.00  0.00     0.006 C
HETATM   16  C14 UNL     1      44.355 117.091  49.987  1.00  0.00    -0.002 C
HETATM   17  C15 UNL     1      44.308 116.403  51.269  1.00  0.00     0.011 C
HETATM   18  C16 UNL     1      43.538 115.191  51.494  1.00  0.00    -0.001 C
HETATM   19  C17 UNL     1      42.188 115.297  52.135  1.00  0.00    -0.004 C
HETATM   20  C18 UNL     1      41.822 113.790  52.111  1.00  0.00     0.013 C
HETATM   21  C19 UNL     1      43.108 113.178  52.630  1.00  0.00     0.023 C
HETATM   22  C20 UNL     1      42.956 112.924  54.107  1.00  0.00     0.123 C
HETATM   23  C21 UNL     1      44.158 113.606  54.730  1.00  0.00     0.033 C
HETATM   24  C22 UNL     1      44.494 114.773  53.791  1.00  0.00     0.012 C
HETATM   25  C23 UNL     1      44.201 114.201  52.474  1.00  0.00    -0.034 C
HETATM   26  C24 UNL     1      45.378 113.609  51.747  1.00  0.00     0.016 C
HETATM   27  C25 UNL     1      41.168 115.953  51.249  1.00  0.00     0.003 C
HETATM   28  C26 UNL     1      39.777 115.560  51.621  1.00  0.00     0.042 C
HETATM   29  C27 UNL     1      39.411 117.055  51.426  1.00  0.00     0.233 C
HETATM   30  C32 UNL     1      40.888 117.397  51.482  1.00  0.00     0.001 C
HETATM   31  C33 UNL     1      41.074 117.598  53.009  1.00  0.00     0.019 C
HETATM   32  C34 UNL     1      43.865 118.449  49.817  1.00  0.00    -0.000 C
HETATM   33  C35 UNL     1      44.637 119.001  48.595  1.00  0.00     0.040 C
HETATM   34  C36 UNL     1      45.409 120.220  48.835  1.00  0.00    -0.018 C
HETATM   35  C37 UNL     1      46.166 120.482  50.055  1.00  0.00    -0.026 C
HETATM   36  C38 UNL     1      47.290 119.538  50.385  1.00  0.00     0.049 C
ENDROOT
BRANCH  10  37
HETATM   37  O3  UNL     1      42.327 119.738  52.530  1.00  0.00    -0.392 OA
ATOM     38  H3  UNL     1      41.972 120.605  52.695  1.00  0.00     0.210 HD
ENDBRANCH  10  37
BRANCH  29  39
HETATM   39  N1  UNL     1      38.546 117.298  52.559  1.00  0.00     0.098 N
HETATM   40  C28 UNL     1      37.137 117.038  52.174  1.00  0.00     0.299 C
HETATM   41  C29 UNL     1      36.182 117.939  52.902  1.00  0.00     0.198 C
HETATM   42  O5  UNL     1      36.293 119.280  52.558  1.00  0.00    -0.388 OA
HETATM   43  C30 UNL     1      37.608 119.521  52.159  1.00  0.00     0.198 C
HETATM   44  C31 UNL     1      38.454 118.618  53.069  1.00  0.00     0.299 C
ENDBRANCH  29  39
BRANCH  22  45
HETATM   45  O4  UNL     1      43.012 111.537  54.289  1.00  0.00    -0.395 OA
ATOM     46  H4  UNL     1      43.595 111.194  53.622  1.00  0.00     0.210 HD
ENDBRANCH  22  45
TORSDOF 3
ENDMDL