MODEL 4
REMARK VINA RESULT: -8.876607467      3.637      8.467
REMARK  2 active torsions:
REMARK  status: ('A' for Active; 'I' for Inactive)
REMARK       I    between atoms: N1_12  and  C11_13
REMARK    1  A    between atoms: C11_13  and  C12_15
REMARK    2  A    between atoms: C34_43  and  O5_44
ROOT
HETATM    1  O1  UNL     1      49.285 110.196  55.451  1.00  0.00    -0.265 OA
HETATM    2  C1  UNL     1      48.045 110.066  55.589  1.00  0.00     0.258 C
HETATM    3  C2  UNL     1      47.134 111.189  55.277  1.00  0.00     0.111 C
HETATM    4  C3  UNL     1      47.894 112.254  54.494  1.00  0.00     0.010 C
HETATM    5  C4  UNL     1      46.858 113.183  53.889  1.00  0.00     0.000 C
HETATM    6  C5  UNL     1      47.423 114.517  53.521  1.00  0.00     0.000 C
HETATM    7  C6  UNL     1      46.467 115.616  53.936  1.00  0.00     0.004 C
HETATM    8  C7  UNL     1      45.288 115.629  52.987  1.00  0.00     0.027 C
HETATM    9  C8  UNL     1      44.143 114.904  53.619  1.00  0.00    -0.029 C
HETATM   10  C9  UNL     1      43.153 114.351  52.970  1.00  0.00    -0.011 C
HETATM   11  C10 UNL     1      42.965 114.329  51.500  1.00  0.00     0.153 C
HETATM   12  N1  UNL     1      42.122 115.467  51.041  1.00  0.00    -0.335 N
HETATM   13  C11 UNL     1      42.530 116.047  49.825  1.00  0.00     0.225 C
HETATM   14  O2  UNL     1      43.584 115.534  49.266  1.00  0.00    -0.273 OA
HETATM   15  C15 UNL     1      41.010 115.839  51.871  1.00  0.00     0.185 C
HETATM   16  C16 UNL     1      40.807 117.294  52.000  1.00  0.00     0.241 C
HETATM   17  O3  UNL     1      41.678 118.172  52.154  1.00  0.00    -0.271 OA
HETATM   18  N2  UNL     1      39.410 117.540  51.917  1.00  0.00    -0.359 N
ATOM     19  H2  UNL     1      38.910 118.328  52.327  1.00  0.00     0.162 HD
HETATM   20  C17 UNL     1      38.825 116.455  51.135  1.00  0.00     0.130 C
HETATM   21  C18 UNL     1      39.691 115.298  51.480  1.00  0.00     0.036 C
HETATM   22  C19 UNL     1      39.753 114.251  50.393  1.00  0.00     0.009 C
HETATM   23  C20 UNL     1      38.302 113.899  50.048  1.00  0.00     0.001 C
HETATM   24  C21 UNL     1      37.712 112.926  51.029  1.00  0.00     0.000 C
HETATM   25  C22 UNL     1      37.992 111.487  50.692  1.00  0.00     0.000 C
HETATM   26  C23 UNL     1      36.812 110.596  51.011  1.00  0.00     0.000 C
HETATM   27  C24 UNL     1      36.641 110.342  52.474  1.00  0.00     0.000 C
HETATM   28  C25 UNL     1      37.298 109.058  52.941  1.00  0.00     0.000 C
HETATM   29  C26 UNL     1      37.085 108.959  54.438  1.00  0.00     0.000 C
HETATM   30  C27 UNL     1      37.522 107.601  54.943  1.00  0.00     0.000 C
HETATM   31  C28 UNL     1      38.960 107.375  54.573  1.00  0.00     0.000 C
HETATM   32  C29 UNL     1      39.701 106.687  55.701  1.00  0.00     0.000 C
HETATM   33  C30 UNL     1      40.518 105.554  55.098  1.00  0.00     0.002 C
HETATM   34  C31 UNL     1      41.668 105.234  56.007  1.00  0.00     0.020 C
HETATM   35  C32 UNL     1      42.799 106.178  55.728  1.00  0.00     0.122 C
HETATM   36  N3  UNL     1      43.794 106.084  56.799  1.00  0.00    -0.359 N
ATOM     37  H3  UNL     1      43.587 105.491  57.602  1.00  0.00     0.162 HD
HETATM   38  C33 UNL     1      45.019 106.774  56.772  1.00  0.00     0.248 C
HETATM   39  O4  UNL     1      46.035 106.198  57.256  1.00  0.00    -0.271 OA
HETATM   40  C34 UNL     1      45.208 108.128  56.219  1.00  0.00     0.234 C
HETATM   41  C35 UNL     1      46.382 108.808  56.899  1.00  0.00     0.220 C
HETATM   42  O6  UNL     1      47.503 108.875  56.033  1.00  0.00    -0.318 OA
ENDROOT
BRANCH  13  43
HETATM   43  C12 UNL     1      41.939 117.160  49.083  1.00  0.00     0.078 A
HETATM   44  C13 UNL     1      42.062 117.136  47.556  1.00  0.00     0.015 A
HETATM   45  C14 UNL     1      40.772 116.738  48.118  1.00  0.00     0.015 A
ENDBRANCH  13  43
BRANCH  40  46
HETATM   46  O5  UNL     1      44.080 108.932  56.418  1.00  0.00    -0.384 OA
ATOM     47  H5  UNL     1      44.159 109.767  55.972  1.00  0.00     0.210 HD
ENDBRANCH  40  46
TORSDOF 2
ENDMDL