MODEL 1
REMARK VINA RESULT: -10.937664544      0.000      0.000
REMARK  8 active torsions:
REMARK  status: ('A' for Active; 'I' for Inactive)
REMARK    1  A    between atoms: C4_4  and  O1_5
REMARK    2  A    between atoms: C20_22  and  N1_23
REMARK    3  A    between atoms: C23_26  and  C24_27
REMARK    4  A    between atoms: C24_27  and  C25_28
REMARK       I    between atoms: C25_28  and  N2_30
REMARK    5  A    between atoms: N2_30  and  C26_32
REMARK    6  A    between atoms: C26_32  and  O3_33
REMARK    7  A    between atoms: C26_32  and  N3_35
REMARK    8  A    between atoms: C30_40  and  O5_41
ROOT
HETATM    1  C1  UNL     1      38.108 122.186  48.437  1.00  0.00     0.018 C
HETATM    2  C2  UNL     1      39.138 122.025  49.562  1.00  0.00    -0.018 C
HETATM    3  C3  UNL     1      40.389 122.737  49.031  1.00  0.00     0.018 C
HETATM    4  C4  UNL     1      38.667 122.676  50.751  1.00  0.00     0.126 C
HETATM    5  C5  UNL     1      39.152 122.148  52.090  1.00  0.00     0.033 C
HETATM    6  C6  UNL     1      38.484 120.867  52.418  1.00  0.00     0.012 C
HETATM    7  C7  UNL     1      39.225 119.583  52.145  1.00  0.00    -0.036 C
HETATM    8  C8  UNL     1      39.379 118.985  53.548  1.00  0.00     0.016 C
HETATM    9  C9  UNL     1      40.659 119.785  51.741  1.00  0.00     0.010 C
HETATM   10  C10 UNL     1      40.731 120.268  50.366  1.00  0.00     0.007 C
HETATM   11  C11 UNL     1      39.450 120.521  49.655  1.00  0.00     0.001 C
HETATM   12  C12 UNL     1      38.269 119.715  49.984  1.00  0.00    -0.000 C
HETATM   13  C13 UNL     1      37.990 118.800  48.780  1.00  0.00     0.006 C
HETATM   14  C14 UNL     1      39.003 117.756  49.020  1.00  0.00     0.007 C
HETATM   15  C15 UNL     1      38.993 117.560  50.544  1.00  0.00     0.004 C
HETATM   16  C16 UNL     1      38.525 116.205  50.915  1.00  0.00    -0.032 C
HETATM   17  C17 UNL     1      39.522 115.633  51.932  1.00  0.00     0.016 C
HETATM   18  C18 UNL     1      38.561 115.170  49.788  1.00  0.00     0.016 C
HETATM   19  C19 UNL     1      38.442 113.775  50.324  1.00  0.00     0.053 C
HETATM   20  C20 UNL     1      37.696 113.566  51.584  1.00  0.00    -0.013 C
HETATM   21  C31 UNL     1      36.985 114.716  52.162  1.00  0.00     0.062 C
HETATM   22  C32 UNL     1      37.141 116.045  51.440  1.00  0.00    -0.031 C
HETATM   23  C33 UNL     1      35.992 116.198  50.536  1.00  0.00     0.016 C
HETATM   24  C34 UNL     1      36.988 117.147  52.497  1.00  0.00     0.011 C
HETATM   25  C35 UNL     1      37.115 118.499  51.885  1.00  0.00     0.012 C
HETATM   26  C36 UNL     1      38.423 118.752  51.178  1.00  0.00    -0.025 C
ENDROOT
BRANCH  20  27
HETATM   27  N1  UNL     1      36.960 112.296  51.602  1.00  0.00    -0.361 N
HETATM   28  C21 UNL     1      36.503 111.991  52.927  1.00  0.00     0.125 C
HETATM   29  C22 UNL     1      35.405 110.937  52.841  1.00  0.00     0.025 C
HETATM   30  C23 UNL     1      35.899 109.777  52.043  1.00  0.00    -0.000 C
HETATM   31  C29 UNL     1      36.182 110.275  50.632  1.00  0.00     0.059 C
HETATM   32  C30 UNL     1      37.366 111.260  50.790  1.00  0.00     0.220 C
BRANCH  30  33
HETATM   33  C24 UNL     1      35.095 108.541  52.075  1.00  0.00     0.108 C
BRANCH  33  34
HETATM   34  C25 UNL     1      35.807 107.295  51.674  1.00  0.00     0.225 C
HETATM   35  O2  UNL     1      35.169 106.427  51.063  1.00  0.00    -0.273 OA
HETATM   36  N2  UNL     1      37.168 107.115  51.984  1.00  0.00    -0.291 N
ATOM     37  H2  UNL     1      37.617 107.882  52.485  1.00  0.00     0.172 HD
BRANCH  36  38
HETATM   38  C26 UNL     1      37.979 106.023  51.693  1.00  0.00     0.246 C
BRANCH  38  39
HETATM   39  O3  UNL     1      38.176 105.826  50.410  1.00  0.00    -0.331 OA
ATOM     40  H3  UNL     1      38.354 104.922  50.178  1.00  0.00     0.221 HD
ENDBRANCH  38  39
BRANCH  38  41
HETATM   41  N3  UNL     1      38.601 105.125  52.564  1.00  0.00    -0.219 N
HETATM   42  C27 UNL     1      39.091 105.221  53.963  1.00  0.00     0.188 C
HETATM   43  C28 UNL     1      40.077 104.187  53.455  1.00  0.00     0.224 C
HETATM   44  O4  UNL     1      39.025 103.860  52.578  1.00  0.00    -0.273 OA
ENDBRANCH  38  41
ENDBRANCH  36  38
ENDBRANCH  33  34
ENDBRANCH  30  33
BRANCH  32  45
HETATM   45  O5  UNL     1      38.384 110.442  51.339  1.00  0.00    -0.377 OA
ATOM     46  H5  UNL     1      38.135 109.975  52.129  1.00  0.00     0.212 HD
ENDBRANCH  32  45
ENDBRANCH  20  27
BRANCH   4  47
HETATM   47  O1  UNL     1      38.980 124.038  50.722  1.00  0.00    -0.395 OA
ATOM     48  H1  UNL     1      38.370 124.509  50.167  1.00  0.00     0.210 HD
ENDBRANCH   4  47
TORSDOF 8
ENDMDL