MODEL 2
REMARK VINA RESULT: -8.480233511      1.038      1.302
REMARK  6 active torsions:
REMARK  status: ('A' for Active; 'I' for Inactive)
REMARK    1  A    between atoms: O1_2  and  C2_3
REMARK    2  A    between atoms: C2_3  and  C3_5
REMARK    3  A    between atoms: C5_7  and  C6_8
REMARK    4  A    between atoms: C6_8  and  C7_9
REMARK    5  A    between atoms: C16_20  and  O3_21
REMARK    6  A    between atoms: C37_45  and  O4_46
ROOT
HETATM    1  C7  UNL     1      35.691 106.615  52.082  1.00  0.00    -0.004 C
HETATM    2  C8  UNL     1      36.116 107.190  53.300  1.00  0.00     0.014 C
HETATM    3  C9  UNL     1      36.860 108.266  53.850  1.00  0.00     0.016 C
HETATM    4  C10 UNL     1      36.867 108.011  55.404  1.00  0.00     0.096 C
HETATM    5  N1  UNL     1      37.515 106.793  55.761  1.00  0.00    -0.277 NA
HETATM    6  C11 UNL     1      38.887 107.376  56.021  1.00  0.00     0.140 C
HETATM    7  C12 UNL     1      38.827 108.221  57.256  1.00  0.00     0.072 C
HETATM    8  N2  UNL     1      37.797 108.063  58.178  1.00  0.00    -0.391 N
HETATM    9  C13 UNL     1      38.232 108.091  59.562  1.00  0.00     0.149 C
HETATM   10  C14 UNL     1      36.738 107.151  57.947  1.00  0.00     0.177 C
HETATM   11  C15 UNL     1      37.205 106.095  56.939  1.00  0.00     0.057 C
HETATM   12  C16 UNL     1      36.620 104.801  57.093  1.00  0.00     0.155 C
HETATM   13  N3  UNL     1      35.476 104.089  56.672  1.00  0.00    -0.361 N
ATOM     14  H3  UNL     1      35.070 103.463  57.368  1.00  0.00     0.162 HD
HETATM   15  C17 UNL     1      34.786 104.119  55.379  1.00  0.00     0.118 C
HETATM   16  C18 UNL     1      33.367 104.578  55.763  1.00  0.00     0.017 C
HETATM   17  C19 UNL     1      33.175 106.015  56.020  1.00  0.00     0.034 C
HETATM   18  C20 UNL     1      32.318 106.811  55.116  1.00  0.00    -0.026 C
HETATM   19  C21 UNL     1      32.574 107.004  53.698  1.00  0.00     0.002 C
HETATM   20  C22 UNL     1      33.168 105.965  52.792  1.00  0.00    -0.047 C
HETATM   21  C23 UNL     1      33.304 104.632  53.403  1.00  0.00     0.021 C
HETATM   22  C24 UNL     1      32.512 104.332  54.593  1.00  0.00     0.016 C
HETATM   23  C25 UNL     1      33.130 103.350  52.653  1.00  0.00     0.043 C
HETATM   24  C26 UNL     1      34.205 102.506  53.366  1.00  0.00    -0.074 C
HETATM   25  C27 UNL     1      33.805 101.052  53.361  1.00  0.00     0.034 C
HETATM   26  C28 UNL     1      35.123 100.279  53.502  1.00  0.00     0.005 C
HETATM   27  C29 UNL     1      35.999 100.775  54.591  1.00  0.00     0.013 C
HETATM   28  C30 UNL     1      36.228 102.325  54.512  1.00  0.00     0.039 C
HETATM   29  C31 UNL     1      37.024 102.498  53.297  1.00  0.00    -0.017 C
HETATM   30  C32 UNL     1      37.746 103.678  52.936  1.00  0.00    -0.001 C
HETATM   31  C33 UNL     1      37.560 104.817  52.277  1.00  0.00    -0.083 C
HETATM   32  C34 UNL     1      38.806 105.716  52.235  1.00  0.00     0.043 C
HETATM   33  C35 UNL     1      36.413 105.361  51.572  1.00  0.00     0.046 C
HETATM   34  C36 UNL     1      34.812 102.875  54.604  1.00  0.00    -0.047 C
HETATM   35  C37 UNL     1      34.206 106.429  51.846  1.00  0.00     0.156 C
ENDROOT
BRANCH   1  36
HETATM   36  C6  UNL     1      36.025 107.675  50.991  1.00  0.00     0.040 C
BRANCH  36  37
HETATM   37  C5  UNL     1      35.600 109.027  51.292  1.00  0.00    -0.013 C
HETATM   38  C3  UNL     1      36.356 110.081  51.185  1.00  0.00     0.009 C
HETATM   39  C4  UNL     1      35.722 111.449  51.553  1.00  0.00     0.054 C
BRANCH  38  40
HETATM   40  C2  UNL     1      37.723 110.210  50.772  1.00  0.00     0.288 C
HETATM   41  O2  UNL     1      38.055 110.438  49.600  1.00  0.00    -0.260 OA
BRANCH  40  42
HETATM   42  O1  UNL     1      38.805 110.087  51.673  1.00  0.00    -0.323 OA
HETATM   43  C1  UNL     1      39.032 111.069  52.674  1.00  0.00     0.213 C
ENDBRANCH  40  42
ENDBRANCH  38  40
ENDBRANCH  36  37
ENDBRANCH   1  36
BRANCH  35  44
HETATM   44  O4  UNL     1      34.167 105.619  50.666  1.00  0.00    -0.390 OA
ATOM     45  H4  UNL     1      34.003 106.254  49.978  1.00  0.00     0.210 HD
ENDBRANCH  35  44
BRANCH  12  46
HETATM   46  O3  UNL     1      37.306 103.962  57.853  1.00  0.00    -0.345 OA
ATOM     47  H3  UNL     1      38.171 103.739  57.527  1.00  0.00     0.219 HD
ENDBRANCH  12  46
TORSDOF 6
ENDMDL