MODEL 4
REMARK VINA RESULT: -10.096601164      2.318      9.039
REMARK  5 active torsions:
REMARK  status: ('A' for Active; 'I' for Inactive)
REMARK    1  A    between atoms: C13_13  and  O1_14
REMARK    2  A    between atoms: C16_18  and  O2_19
REMARK    3  A    between atoms: O2_19  and  C17_20
REMARK       I    between atoms: C17_20  and  N1_22
REMARK    4  A    between atoms: C24_29  and  O4_30
REMARK    5  A    between atoms: C27_34  and  C29_36
ROOT
HETATM    1  C17 UNL     1      40.869 112.966  51.976  1.00  0.00     0.363 C
HETATM    2  O3  UNL     1      41.218 112.284  52.956  1.00  0.00    -0.238 OA
HETATM    3  N1  UNL     1      39.532 113.090  51.517  1.00  0.00    -0.318 N
HETATM    4  C18 UNL     1      39.128 113.901  50.385  1.00  0.00     0.133 C
HETATM    5  C19 UNL     1      37.743 114.415  50.782  1.00  0.00     0.006 C
HETATM    6  C20 UNL     1      36.766 113.774  49.838  1.00  0.00     0.007 C
HETATM    7  C21 UNL     1      36.459 112.376  50.255  1.00  0.00     0.008 C
HETATM    8  C22 UNL     1      37.620 111.694  50.898  1.00  0.00     0.021 C
HETATM    9  C23 UNL     1      37.301 110.315  51.376  1.00  0.00     0.026 C
HETATM   10  C24 UNL     1      36.744 109.426  50.299  1.00  0.00     0.123 C
HETATM   11  C25 UNL     1      36.902 107.989  50.754  1.00  0.00     0.033 C
HETATM   12  C26 UNL     1      37.126 107.867  52.219  1.00  0.00     0.023 C
HETATM   13  C27 UNL     1      36.328 108.851  53.061  1.00  0.00     0.049 C
HETATM   14  C28 UNL     1      36.803 108.584  54.496  1.00  0.00     0.027 C
HETATM   15  C30 UNL     1      36.496 110.272  52.643  1.00  0.00     0.011 C
HETATM   16  C31 UNL     1      37.071 111.197  53.652  1.00  0.00     0.009 C
HETATM   17  C32 UNL     1      38.434 111.754  53.266  1.00  0.00     0.032 C
HETATM   18  C33 UNL     1      38.299 112.496  51.984  1.00  0.00     0.042 C
HETATM   19  C34 UNL     1      37.481 113.785  52.156  1.00  0.00     0.038 C
ENDROOT
BRANCH   1  20
HETATM   20  O2  UNL     1      41.927 113.621  51.341  1.00  0.00    -0.297 OA
BRANCH  20  21
HETATM   21  C16 UNL     1      42.228 114.992  51.482  1.00  0.00     0.150 C
HETATM   22  C15 UNL     1      41.400 115.860  50.578  1.00  0.00     0.027 C
HETATM   23  C9  UNL     1      41.067 117.212  51.153  1.00  0.00    -0.034 C
HETATM   24  C14 UNL     1      41.834 115.875  49.147  1.00  0.00     0.039 C
HETATM   25  C8  UNL     1      41.962 117.648  52.258  1.00  0.00    -0.001 A
HETATM   26  C10 UNL     1      39.653 117.225  51.778  1.00  0.00     0.016 C
HETATM   27  C11 UNL     1      41.018 118.310  50.127  1.00  0.00     0.012 C
HETATM   28  C6  UNL     1      43.392 117.665  51.694  1.00  0.00    -0.000 A
HETATM   29  C7  UNL     1      42.799 118.826  52.304  1.00  0.00     0.011 A
HETATM   30  C4  UNL     1      44.046 116.505  52.351  1.00  0.00    -0.026 C
HETATM   31  C3  UNL     1      45.560 116.470  52.149  1.00  0.00     0.022 C
HETATM   32  C5  UNL     1      43.792 116.355  53.800  1.00  0.00     0.016 C
HETATM   33  C35 UNL     1      43.678 115.297  51.494  1.00  0.00     0.094 C
HETATM   34  C2  UNL     1      45.811 114.995  52.458  1.00  0.00     0.052 C
HETATM   35  C1  UNL     1      46.963 114.539  51.606  1.00  0.00     0.018 C
HETATM   36  C36 UNL     1      44.536 114.299  52.122  1.00  0.00     0.138 C
HETATM   37  O7  UNL     1      44.347 113.130  52.366  1.00  0.00    -0.297 OA
HETATM   38  C12 UNL     1      40.212 117.803  48.967  1.00  0.00     0.032 C
HETATM   39  C13 UNL     1      41.096 116.809  48.273  1.00  0.00     0.118 C
BRANCH  39  40
HETATM   40  O1  UNL     1      41.979 117.565  47.465  1.00  0.00    -0.396 OA
ATOM     41  H1  UNL     1      41.558 117.645  46.618  1.00  0.00     0.210 HD
ENDBRANCH  39  40
ENDBRANCH  20  21
ENDBRANCH   1  20
BRANCH  10  42
HETATM   42  O4  UNL     1      35.409 109.630  50.035  1.00  0.00    -0.395 OA
ATOM     43  H4  UNL     1      35.218 110.454  49.603  1.00  0.00     0.210 HD
ENDBRANCH  10  42
BRANCH  13  44
HETATM   44  C29 UNL     1      34.912 108.384  53.031  1.00  0.00     0.181 C
HETATM   45  O5  UNL     1      34.516 107.300  53.485  1.00  0.00    -0.647 OA
HETATM   46  O6  UNL     1      33.977 109.243  52.448  1.00  0.00    -0.647 OA
ENDBRANCH  13  44
TORSDOF 5
ENDMDL