MODEL 1
REMARK VINA RESULT: -8.623435823      0.000      0.000
REMARK  10 active torsions:
REMARK  status: ('A' for Active; 'I' for Inactive)
REMARK    1  A    between atoms: N2_4  and  S1_6
REMARK    2  A    between atoms: S1_6  and  C3_9
REMARK    3  A    between atoms: C6_12  and  N3_13
REMARK       I    between atoms: N3_13  and  C7_15
REMARK    4  A    between atoms: C7_15  and  C8_17
REMARK    5  A    between atoms: C8_17  and  C9_18
REMARK    6  A    between atoms: C8_17  and  N4_21
REMARK       I    between atoms: N4_21  and  C12_22
REMARK    7  A    between atoms: N4_21  and  C15_28
REMARK    8  A    between atoms: C12_22  and  C13_24
REMARK    9  A    between atoms: C13_24  and  S2_25
REMARK   10  A    between atoms: C21_35  and  O6_36
ROOT
HETATM    1  N3  UNL     1      -4.953  11.045  20.050  1.00  0.00    -0.323 N
ATOM      2  H3  UNL     1      -4.449  11.445  19.259  1.00  0.00     0.169 HD
HETATM    3  C7  UNL     1      -6.254  10.541  19.777  1.00  0.00     0.246 C
HETATM    4  O3  UNL     1      -6.919  10.038  20.690  1.00  0.00    -0.271 OA
ENDROOT
BRANCH   3   5
HETATM    5  C8  UNL     1      -6.798  10.629  18.366  1.00  0.00     0.188 C
BRANCH   5   6
HETATM    6  C9  UNL     1      -8.270  10.954  18.413  1.00  0.00     0.010 C
HETATM    7  C10 UNL     1      -9.077  10.492  17.263  1.00  0.00     0.012 C
HETATM    8  C11 UNL     1      -8.557  12.401  18.731  1.00  0.00     0.012 C
ENDBRANCH   5   6
BRANCH   5   9
HETATM    9  N4  UNL     1      -6.378   9.590  17.500  1.00  0.00    -0.303 N
HETATM   10  C12 UNL     1      -5.877  10.035  16.209  1.00  0.00     0.236 C
HETATM   11  O4  UNL     1      -5.464   9.142  15.432  1.00  0.00    -0.272 OA
BRANCH  10  12
HETATM   12  C13 UNL     1      -5.841  11.449  15.803  1.00  0.00     0.211 C
BRANCH  12  13
HETATM   13  S2  UNL     1      -4.216  12.082  16.021  1.00  0.00     0.019 S
HETATM   14  C14 UNL     1      -3.135  11.629  14.688  1.00  0.00     0.127 C
HETATM   15  O5  UNL     1      -3.556  11.747  17.507  1.00  0.00    -0.258 OA
ENDBRANCH  12  13
ENDBRANCH  10  12
BRANCH   9  16
HETATM   16  C15 UNL     1      -6.335   8.201  17.684  1.00  0.00     0.038 A
HETATM   17  C16 UNL     1      -5.182   7.545  18.141  1.00  0.00     0.033 A
HETATM   18  C17 UNL     1      -5.116   6.182  18.317  1.00  0.00     0.044 A
HETATM   19  C18 UNL     1      -6.209   5.393  18.042  1.00  0.00     0.116 A
HETATM   20  F1  UNL     1      -6.164   4.034  18.212  1.00  0.00    -0.206 F
HETATM   21  C19 UNL     1      -7.352   6.005  17.591  1.00  0.00     0.044 A
HETATM   22  C20 UNL     1      -7.399   7.388  17.418  1.00  0.00     0.033 A
ENDBRANCH   9  16
ENDBRANCH   5   9
ENDBRANCH   3   5
BRANCH   1  23
HETATM   23  C6  UNL     1      -4.282  11.059  21.283  1.00  0.00     0.068 A
HETATM   24  C5  UNL     1      -3.200  10.308  21.638  1.00  0.00     0.034 A
HETATM   25  C4  UNL     1      -2.633  10.407  22.887  1.00  0.00     0.028 A
HETATM   26  C3  UNL     1      -3.115  11.261  23.853  1.00  0.00     0.082 A
HETATM   27  C22 UNL     1      -4.207  12.021  23.497  1.00  0.00     0.064 A
HETATM   28  C21 UNL     1      -4.789  11.937  22.253  1.00  0.00     0.093 A
BRANCH  26  29
HETATM   29  S1  UNL     1      -2.360  11.340  25.427  1.00  0.00     0.263 S
HETATM   30  O1  UNL     1      -2.590  12.752  25.939  1.00  0.00    -0.200 OA
HETATM   31  O2  UNL     1      -0.882  11.137  25.309  1.00  0.00    -0.200 OA
BRANCH  29  32
HETATM   32  N2  UNL     1      -3.065  10.241  26.551  1.00  0.00    -0.272 N
HETATM   33  C2  UNL     1      -2.319   9.311  27.034  1.00  0.00     0.098 C
HETATM   34  C1  UNL     1      -0.880   9.152  26.661  1.00  0.00     0.086 C
HETATM   35  N1  UNL     1      -2.879   8.393  27.965  1.00  0.00    -0.087 NA
ATOM     36  H2  UNL     1      -4.044  10.324  26.825  1.00  0.00     0.179 HD
ENDBRANCH  29  32
ENDBRANCH  26  29
BRANCH  28  37
HETATM   37  O6  UNL     1      -5.885  12.752  22.011  1.00  0.00    -0.358 OA
ATOM     38  H6  UNL     1      -6.773  12.477  22.205  1.00  0.00     0.217 HD
ENDBRANCH  28  37
ENDBRANCH   1  23
TORSDOF 10
ENDMDL