MODEL 3
REMARK VINA RESULT: -8.569200244      3.031      3.893
REMARK  9 active torsions:
REMARK  status: ('A' for Active; 'I' for Inactive)
REMARK    1  A    between atoms: C2_2  and  C3_3
REMARK       I    between atoms: C3_3  and  N1_5
REMARK    2  A    between atoms: N1_5  and  N2_7
REMARK    3  A    between atoms: C4_9  and  C5_10
REMARK    4  A    between atoms: C11_16  and  C12_17
REMARK       I    between atoms: N4_24  and  C17_25
REMARK    5  A    between atoms: C17_25  and  C18_27
REMARK    6  A    between atoms: C18_27  and  C19_28
REMARK    7  A    between atoms: C18_27  and  N5_36
REMARK    8  A    between atoms: C19_28  and  C20_29
REMARK    9  A    between atoms: N5_36  and  S1_38
ROOT
HETATM    1  C1  UNL     1      -7.061  14.620  20.517  1.00  0.00     0.052 C
HETATM    2  C2  UNL     1      -7.695  13.443  21.280  1.00  0.00     0.139 A
HETATM    3  C11 UNL     1      -9.085  13.672  21.846  1.00  0.00     0.160 A
HETATM    4  N4  UNL     1      -7.881  13.600  22.683  1.00  0.00    -0.318 N
HETATM    5  C17 UNL     1      -7.422  13.681  24.021  1.00  0.00     0.245 C
HETATM    6  O2  UNL     1      -8.223  13.857  24.982  1.00  0.00    -0.271 OA
ENDROOT
BRANCH   2   7
HETATM    7  C3  UNL     1      -7.543  12.162  20.595  1.00  0.00     0.266 C
HETATM    8  O1  UNL     1      -7.881  11.994  19.384  1.00  0.00    -0.269 OA
HETATM    9  N1  UNL     1      -7.004  11.017  21.240  1.00  0.00    -0.268 N
ATOM     10  H1  UNL     1      -6.718  11.099  22.215  1.00  0.00     0.190 HD
BRANCH   9  11
HETATM   11  N2  UNL     1      -6.849   9.786  20.604  1.00  0.00    -0.308 N
HETATM   12  C4  UNL     1      -5.866   9.405  19.910  1.00  0.00     0.118 C
ATOM     13  H2  UNL     1      -7.614   9.120  20.712  1.00  0.00     0.186 HD
BRANCH  12  14
HETATM   14  C5  UNL     1      -5.855   8.077  19.308  1.00  0.00    -0.019 A
HETATM   15  C6  UNL     1      -4.691   7.562  18.749  1.00  0.00     0.013 A
HETATM   16  C7  UNL     1      -4.721   6.310  18.192  1.00  0.00     0.001 A
HETATM   17  C8  UNL     1      -5.875   5.575  18.183  1.00  0.00     0.000 A
HETATM   18  C9  UNL     1      -7.034   6.070  18.732  1.00  0.00     0.001 A
HETATM   19  C10 UNL     1      -7.020   7.324  19.294  1.00  0.00     0.013 A
ENDBRANCH  12  14
ENDBRANCH   9  11
ENDBRANCH   2   7
BRANCH   3  20
HETATM   20  C12 UNL     1     -10.078  12.607  21.835  1.00  0.00    -0.017 A
HETATM   21  C13 UNL     1     -10.179  11.565  22.726  1.00  0.00     0.012 A
HETATM   22  C14 UNL     1     -11.180  10.635  22.589  1.00  0.00     0.018 A
HETATM   23  C15 UNL     1     -12.108  10.715  21.561  1.00  0.00     0.087 A
HETATM   24  N3  UNL     1     -12.002  11.732  20.697  1.00  0.00    -0.375 N
HETATM   25  C16 UNL     1     -11.030  12.634  20.833  1.00  0.00     0.096 A
ATOM     26  H3  UNL     1     -12.669  11.818  19.930  1.00  0.00     0.164 HD
ENDBRANCH   3  20
BRANCH   5  27
HETATM   27  C18 UNL     1      -5.995  13.575  24.425  1.00  0.00     0.189 C
BRANCH  27  28
HETATM   28  C19 UNL     1      -5.430  12.217  24.306  1.00  0.00     0.074 C
BRANCH  28  29
HETATM   29  C20 UNL     1      -3.990  12.109  24.089  1.00  0.00    -0.056 A
HETATM   30  C21 UNL     1      -3.349  12.474  22.923  1.00  0.00     0.010 A
HETATM   31  C22 UNL     1      -1.991  12.362  22.715  1.00  0.00     0.043 A
HETATM   32  C23 UNL     1      -1.201  11.852  23.735  1.00  0.00     0.116 A
HETATM   33  F1  UNL     1       0.141  11.736  23.545  1.00  0.00    -0.206 F
HETATM   34  C24 UNL     1      -1.811  11.481  24.904  1.00  0.00     0.043 A
HETATM   35  C25 UNL     1      -3.192  11.603  25.092  1.00  0.00     0.010 A
ENDBRANCH  28  29
ENDBRANCH  27  28
BRANCH  27  36
HETATM   36  N5  UNL     1      -5.752  14.185  25.682  1.00  0.00    -0.306 N
ATOM     37  H5  UNL     1      -6.180  13.814  26.530  1.00  0.00     0.173 HD
BRANCH  36  38
HETATM   38  S1  UNL     1      -4.748  15.527  25.748  1.00  0.00     0.223 S
HETATM   39  C26 UNL     1      -3.952  15.904  24.206  1.00  0.00     0.185 C
HETATM   40  O3  UNL     1      -3.705  15.530  26.805  1.00  0.00    -0.206 OA
HETATM   41  O4  UNL     1      -5.635  16.733  26.046  1.00  0.00    -0.206 OA
ENDBRANCH  36  38
ENDBRANCH  27  36
ENDBRANCH   5  27
TORSDOF 9
ENDMDL