MODEL 1
REMARK VINA RESULT: -9.575205171      0.000      0.000
REMARK  8 active torsions:
REMARK  status: ('A' for Active; 'I' for Inactive)
REMARK    1  A    between atoms: N1_2  and  C2_3
REMARK       I    between atoms: N1_2  and  C9_11
REMARK    2  A    between atoms: C2_3  and  C3_4
REMARK       I    between atoms: C9_11  and  N2_13
REMARK    3  A    between atoms: N2_13  and  S1_15
REMARK    4  A    between atoms: S1_15  and  C10_18
REMARK    5  A    between atoms: C13_21  and  S2_22
REMARK    6  A    between atoms: S2_22  and  N3_25
REMARK       I    between atoms: N3_25  and  C14_27
REMARK    7  A    between atoms: C14_27  and  C15_29
REMARK    8  A    between atoms: C15_29  and  C16_30
ROOT
HETATM    1  C10 UNL     1      -3.713  12.888  19.534  1.00  0.00     0.080 A
HETATM    2  C11 UNL     1      -3.171  11.618  19.542  1.00  0.00     0.027 A
HETATM    3  C12 UNL     1      -2.161  11.245  20.408  1.00  0.00     0.027 A
HETATM    4  C13 UNL     1      -1.629  12.137  21.324  1.00  0.00     0.080 A
HETATM    5  C22 UNL     1      -2.154  13.408  21.330  1.00  0.00     0.027 A
HETATM    6  C23 UNL     1      -3.163  13.783  20.468  1.00  0.00     0.027 A
ENDROOT
BRANCH   1   7
HETATM    7  S1  UNL     1      -5.020  13.343  18.484  1.00  0.00     0.266 S
HETATM    8  O2  UNL     1      -4.456  13.766  17.141  1.00  0.00    -0.200 OA
HETATM    9  O3  UNL     1      -5.771  14.514  19.106  1.00  0.00    -0.200 OA
BRANCH   7  10
HETATM   10  N2  UNL     1      -6.116  12.044  18.277  1.00  0.00    -0.232 N
HETATM   11  C9  UNL     1      -6.987  11.650  19.298  1.00  0.00     0.331 C
HETATM   12  N1  UNL     1      -7.899  10.585  19.145  1.00  0.00    -0.334 N
HETATM   13  O1  UNL     1      -6.943  12.295  20.404  1.00  0.00    -0.246 OA
HETATM   14  C1  UNL     1      -8.832  10.273  20.238  1.00  0.00     0.154 C
ATOM     15  H2  UNL     1      -6.135  11.544  17.388  1.00  0.00     0.183 HD
BRANCH  12  16
HETATM   16  C2  UNL     1      -7.942   9.770  17.978  1.00  0.00     0.165 C
BRANCH  16  17
HETATM   17  C3  UNL     1      -7.000   8.641  18.093  1.00  0.00    -0.040 A
HETATM   18  C4  UNL     1      -7.512   7.342  17.978  1.00  0.00     0.012 A
HETATM   19  C5  UNL     1      -6.701   6.235  18.067  1.00  0.00     0.043 A
HETATM   20  C6  UNL     1      -5.350   6.378  18.272  1.00  0.00     0.116 A
HETATM   21  F1  UNL     1      -4.592   5.240  18.353  1.00  0.00    -0.206 F
HETATM   22  C7  UNL     1      -4.824   7.633  18.388  1.00  0.00     0.043 A
HETATM   23  C8  UNL     1      -5.666   8.740  18.295  1.00  0.00     0.012 A
ENDBRANCH  16  17
ENDBRANCH  12  16
ENDBRANCH   7  10
ENDBRANCH   1   7
BRANCH   4  24
HETATM   24  S2  UNL     1      -0.334  11.643  22.401  1.00  0.00     0.265 S
HETATM   25  O4  UNL     1       0.108  10.233  22.027  1.00  0.00    -0.200 OA
HETATM   26  O5  UNL     1       0.849  12.529  22.066  1.00  0.00    -0.200 OA
BRANCH  24  27
HETATM   27  N3  UNL     1      -0.781  11.690  24.032  1.00  0.00    -0.250 N
HETATM   28  C14 UNL     1      -1.882  10.926  24.541  1.00  0.00     0.235 C
HETATM   29  O6  UNL     1      -2.526  10.209  23.731  1.00  0.00    -0.272 OA
ATOM     30  H3  UNL     1      -0.251  12.280  24.673  1.00  0.00     0.181 HD
BRANCH  28  31
HETATM   31  C15 UNL     1      -2.253  10.981  25.977  1.00  0.00     0.142 C
BRANCH  31  32
HETATM   32  C16 UNL     1      -1.981   9.671  26.640  1.00  0.00    -0.049 A
HETATM   33  C17 UNL     1      -0.836   8.977  26.365  1.00  0.00     0.007 A
HETATM   34  C18 UNL     1      -0.560   7.760  26.984  1.00  0.00     0.001 A
HETATM   35  C19 UNL     1      -1.454   7.241  27.893  1.00  0.00     0.000 A
HETATM   36  C20 UNL     1      -2.626   7.954  28.173  1.00  0.00     0.001 A
HETATM   37  C21 UNL     1      -2.873   9.144  27.551  1.00  0.00     0.007 A
ENDBRANCH  31  32
ENDBRANCH  28  31
ENDBRANCH  24  27
ENDBRANCH   4  24
TORSDOF 8
ENDMDL