MODEL 1
REMARK VINA RESULT: -8.978039187      0.000      0.000
REMARK  9 active torsions:
REMARK  status: ('A' for Active; 'I' for Inactive)
REMARK       I    between atoms: N1_2  and  C2_3
REMARK    1  A    between atoms: N1_2  and  C16_29
REMARK    2  A    between atoms: C2_3  and  C3_5
REMARK    3  A    between atoms: C3_5  and  N2_6
REMARK    4  A    between atoms: N2_6  and  C4_7
REMARK    5  A    between atoms: N2_6  and  S1_14
REMARK    6  A    between atoms: S1_14  and  C10_17
REMARK    7  A    between atoms: C13_20  and  S2_21
REMARK    8  A    between atoms: S2_21  and  N3_22
REMARK    9  A    between atoms: C20_33  and  C21_34
ROOT
HETATM    1  N2  UNL     1      -5.174  10.126  19.114  1.00  0.00    -0.263 N
ENDROOT
BRANCH   1   2
HETATM    2  C3  UNL     1      -3.842  10.206  19.600  1.00  0.00     0.245 C
BRANCH   2   3
HETATM    3  C2  UNL     1      -3.682  10.219  21.066  1.00  0.00     0.243 C
HETATM    4  N1  UNL     1      -2.743  11.071  21.702  1.00  0.00    -0.321 N
HETATM    5  C1  UNL     1      -1.917  11.929  20.870  1.00  0.00     0.159 C
HETATM    6  O1  UNL     1      -4.397   9.458  21.758  1.00  0.00    -0.271 OA
BRANCH   4   7
HETATM    7  C16 UNL     1      -2.606  11.082  23.107  1.00  0.00     0.037 A
HETATM    8  C17 UNL     1      -3.290  11.994  23.908  1.00  0.00     0.030 A
HETATM    9  C18 UNL     1      -3.158  12.003  25.273  1.00  0.00     0.003 A
HETATM   10  C19 UNL     1      -2.332  11.094  25.901  1.00  0.00     0.017 A
HETATM   11  C20 UNL     1      -1.645  10.185  25.159  1.00  0.00     0.031 A
HETATM   12  C22 UNL     1      -1.791  10.190  23.768  1.00  0.00     0.046 A
BRANCH  11  13
HETATM   13  C21 UNL     1      -0.774   9.227  25.819  1.00  0.00     0.265 C
HETATM   14  N4  UNL     1      -0.884   9.067  27.249  1.00  0.00    -0.057 NA
HETATM   15  O6  UNL     1       0.056   8.542  25.219  1.00  0.00    -0.271 OA
ENDBRANCH  11  13
ENDBRANCH   4   7
ENDBRANCH   2   3
ENDBRANCH   1   2
BRANCH   1  16
HETATM   16  C4  UNL     1      -5.698   8.835  18.750  1.00  0.00     0.048 A
HETATM   17  C5  UNL     1      -7.015   8.608  18.439  1.00  0.00     0.030 A
HETATM   18  C6  UNL     1      -7.453   7.333  18.097  1.00  0.00     0.005 A
HETATM   19  C7  UNL     1      -6.593   6.258  18.058  1.00  0.00     0.042 A
HETATM   20  C8  UNL     1      -5.275   6.484  18.369  1.00  0.00     0.118 A
HETATM   21  F1  UNL     1      -4.439   5.417  18.327  1.00  0.00    -0.206 F
HETATM   22  C9  UNL     1      -4.827   7.743  18.710  1.00  0.00     0.072 A
ENDBRANCH   1  16
BRANCH   1  23
HETATM   23  S1  UNL     1      -6.163  11.518  18.918  1.00  0.00     0.265 S
HETATM   24  O2  UNL     1      -6.644  11.526  17.500  1.00  0.00    -0.200 OA
HETATM   25  O3  UNL     1      -5.377  12.788  19.175  1.00  0.00    -0.200 OA
BRANCH  23  26
HETATM   26  C10 UNL     1      -7.551  11.478  19.977  1.00  0.00     0.080 A
HETATM   27  C11 UNL     1      -8.835  11.686  19.524  1.00  0.00     0.027 A
HETATM   28  C12 UNL     1      -9.915  11.642  20.400  1.00  0.00     0.027 A
HETATM   29  C13 UNL     1      -9.732  11.388  21.743  1.00  0.00     0.079 A
HETATM   30  C14 UNL     1      -8.444  11.182  22.182  1.00  0.00     0.027 A
HETATM   31  C15 UNL     1      -7.346  11.220  21.333  1.00  0.00     0.027 A
BRANCH  29  32
HETATM   32  S2  UNL     1     -11.114  11.369  22.842  1.00  0.00     0.256 S
HETATM   33  O4  UNL     1     -10.538  11.578  24.227  1.00  0.00    -0.201 OA
HETATM   34  O5  UNL     1     -12.065  12.444  22.497  1.00  0.00    -0.201 OA
BRANCH  32  35
HETATM   35  N3  UNL     1     -11.943   9.851  22.792  1.00  0.00    -0.324 N
ATOM     36  H32 UNL     1     -12.577   9.533  23.525  1.00  0.00     0.169 HD
ATOM     37  H31 UNL     1     -11.716   9.328  21.947  1.00  0.00     0.169 HD
ENDBRANCH  32  35
ENDBRANCH  29  32
ENDBRANCH  23  26
ENDBRANCH   1  23
TORSDOF 9
ENDMDL