MODEL 4
REMARK VINA RESULT: -7.650638413      1.278      1.499
REMARK  12 active torsions:
REMARK  status: ('A' for Active; 'I' for Inactive)
REMARK    1  A    between atoms: C2_2  and  O1_3
REMARK    2  A    between atoms: O1_3  and  C3_4
REMARK    3  A    between atoms: C3_4  and  C4_6
REMARK    4  A    between atoms: C4_6  and  N1_7
REMARK    5  A    between atoms: C4_6  and  C18_33
REMARK    6  A    between atoms: N1_7  and  C5_9
REMARK    7  A    between atoms: C5_9  and  O3_10
REMARK    8  A    between atoms: C5_9  and  C6_12
REMARK    9  A    between atoms: N2_17  and  O4_18
REMARK   10  A    between atoms: C11_20  and  N3_21
REMARK   11  A    between atoms: N3_21  and  S1_23
REMARK   12  A    between atoms: S1_23  and  C12_26
ROOT
HETATM    1  C6  UNL     1      -5.355  13.125  24.605  1.00  0.00     0.067 A
HETATM    2  C7  UNL     1      -5.477  14.199  25.443  1.00  0.00    -0.042 A
HETATM    3  C8  UNL     1      -4.407  14.650  26.348  1.00  0.00     0.049 C
HETATM    4  C9  UNL     1      -6.665  14.946  25.521  1.00  0.00     0.027 A
HETATM    5  C10 UNL     1      -7.704  14.552  24.721  1.00  0.00     0.125 A
HETATM    6  N2  UNL     1      -7.578  13.487  23.894  1.00  0.00    -0.218 N
HETATM    7  C11 UNL     1      -6.470  12.770  23.799  1.00  0.00     0.157 A
ENDROOT
BRANCH   1   8
HETATM    8  C5  UNL     1      -4.190  12.279  24.579  1.00  0.00     0.151 C
BRANCH   8   9
HETATM    9  N1  UNL     1      -2.950  12.375  23.961  1.00  0.00    -0.356 N
ATOM     10  H1  UNL     1      -2.517  13.288  23.816  1.00  0.00     0.162 HD
BRANCH   9  11
HETATM   11  C4  UNL     1      -2.259  11.137  23.514  1.00  0.00     0.186 C
BRANCH  11  12
HETATM   12  C3  UNL     1      -1.379  10.635  24.588  1.00  0.00     0.282 C
HETATM   13  O2  UNL     1      -0.275  11.204  24.774  1.00  0.00    -0.263 OA
BRANCH  12  14
HETATM   14  O1  UNL     1      -1.719   9.568  25.402  1.00  0.00    -0.320 OA
BRANCH  14  15
HETATM   15  C2  UNL     1      -0.873   9.234  26.511  1.00  0.00     0.174 C
HETATM   16  C1  UNL     1      -1.608   8.339  27.459  1.00  0.00     0.034 C
ENDBRANCH  14  15
ENDBRANCH  12  14
ENDBRANCH  11  12
BRANCH  11  17
HETATM   17  C18 UNL     1      -1.430  11.412  22.297  1.00  0.00     0.010 C
HETATM   18  C19 UNL     1      -1.307  10.207  21.396  1.00  0.00     0.012 C
HETATM   19  C20 UNL     1      -1.998  12.538  21.464  1.00  0.00     0.012 C
ENDBRANCH  11  17
ENDBRANCH   9  11
ENDBRANCH   8   9
BRANCH   8  20
HETATM   20  O3  UNL     1      -4.310  11.162  25.290  1.00  0.00    -0.346 OA
ATOM     21  H3  UNL     1      -4.895  10.537  24.878  1.00  0.00     0.219 HD
ENDBRANCH   8  20
ENDBRANCH   1   8
BRANCH   7  22
HETATM   22  N3  UNL     1      -6.404  11.734  22.876  1.00  0.00    -0.263 N
ATOM     23  H3  UNL     1      -6.352  10.792  23.265  1.00  0.00     0.180 HD
BRANCH  22  24
HETATM   24  S1  UNL     1      -6.401  11.839  21.175  1.00  0.00     0.264 S
HETATM   25  O5  UNL     1      -7.699  12.310  20.576  1.00  0.00    -0.200 OA
HETATM   26  O6  UNL     1      -5.310  12.745  20.678  1.00  0.00    -0.200 OA
BRANCH  24  27
HETATM   27  C12 UNL     1      -6.095  10.272  20.404  1.00  0.00     0.080 A
HETATM   28  C13 UNL     1      -4.876   9.996  19.820  1.00  0.00     0.026 A
HETATM   29  C14 UNL     1      -4.642   8.784  19.215  1.00  0.00     0.020 A
HETATM   30  C15 UNL     1      -5.611   7.788  19.161  1.00  0.00     0.011 A
HETATM   31 BR1  UNL     1      -5.249   6.121  18.312  1.00  0.00    -0.051 Br
HETATM   32  C16 UNL     1      -6.821   8.084  19.749  1.00  0.00     0.020 A
HETATM   33  C17 UNL     1      -7.067   9.298  20.360  1.00  0.00     0.026 A
ENDBRANCH  24  27
ENDBRANCH  22  24
ENDBRANCH   7  22
BRANCH   6  34
HETATM   34  O4  UNL     1      -8.712  13.196  23.163  1.00  0.00    -0.281 OA
ATOM     35  H4  UNL     1      -9.417  12.809  23.669  1.00  0.00     0.245 HD
ENDBRANCH   6  34
TORSDOF 12
ENDMDL