MODEL 1
REMARK VINA RESULT: -7.192006740      0.000      0.000
REMARK  10 active torsions:
REMARK  status: ('A' for Active; 'I' for Inactive)
REMARK    1  A    between atoms: N1_2  and  C3_4
REMARK    2  A    between atoms: C4_5  and  C5_6
REMARK    3  A    between atoms: C5_6  and  C6_7
REMARK    4  A    between atoms: C5_6  and  N2_19
REMARK    5  A    between atoms: C6_7  and  C7_8
REMARK    6  A    between atoms: C7_8  and  S1_9
REMARK    7  A    between atoms: S1_9  and  C8_12
REMARK       I    between atoms: N2_19  and  C14_21
REMARK    8  A    between atoms: C14_21  and  C15_23
REMARK       I    between atoms: C15_23  and  N3_25
REMARK    9  A    between atoms: N3_25  and  C16_27
REMARK   10  A    between atoms: C16_27  and  N4_30
ROOT
HETATM    1  N4  UNL     1      -5.775   9.754  18.229  1.00  0.00    -0.297 N
HETATM    2  C19 UNL     1      -7.160  10.001  17.949  1.00  0.00     0.165 C
HETATM    3  C20 UNL     1      -4.821  10.541  17.573  1.00  0.00     0.181 C
HETATM    4  N5  UNL     1      -4.016  11.194  17.017  1.00  0.00    -0.172 NA
ENDROOT
BRANCH   1   5
HETATM    5  C16 UNL     1      -5.342   8.729  19.159  1.00  0.00     0.110 C
HETATM    6  C17 UNL     1      -6.514   8.244  19.981  1.00  0.00     0.064 C
HETATM    7  C18 UNL     1      -4.841   7.562  18.345  1.00  0.00     0.064 C
BRANCH   5   8
HETATM    8  N3  UNL     1      -4.330   9.214  20.072  1.00  0.00    -0.326 N
HETATM    9  C15 UNL     1      -4.588  10.195  21.062  1.00  0.00     0.311 C
HETATM   10  O4  UNL     1      -5.779  10.640  21.113  1.00  0.00    -0.262 OA
ATOM     11  H3  UNL     1      -3.387   8.833  19.999  1.00  0.00     0.165 HD
BRANCH   9  12
HETATM   12  C14 UNL     1      -3.583  10.683  21.976  1.00  0.00     0.314 C
HETATM   13  N2  UNL     1      -3.803  10.854  23.395  1.00  0.00    -0.319 N
ATOM     14  H2  UNL     1      -4.714  10.621  23.789  1.00  0.00     0.169 HD
HETATM   15  O3  UNL     1      -2.458  10.978  21.542  1.00  0.00    -0.262 OA
BRANCH  13  16
HETATM   16  C5  UNL     1      -2.768  11.344  24.263  1.00  0.00     0.033 C
BRANCH  16  17
HETATM   17  C4  UNL     1      -2.078  10.342  25.081  1.00  0.00     0.046 C
HETATM   18  C3  UNL     1      -2.500   9.998  26.284  1.00  0.00     0.086 C
BRANCH  18  19
HETATM   19  N1  UNL     1      -1.862   9.043  27.088  1.00  0.00    -0.398 N
HETATM   20  C1  UNL     1      -0.444   8.830  27.018  1.00  0.00     0.148 C
HETATM   21  C2  UNL     1      -2.642   8.250  28.014  1.00  0.00     0.148 C
ENDBRANCH  18  19
ENDBRANCH  16  17
BRANCH  16  22
HETATM   22  C6  UNL     1      -2.952  12.666  24.888  1.00  0.00     0.018 C
BRANCH  22  23
HETATM   23  C7  UNL     1      -4.268  13.165  25.293  1.00  0.00     0.175 C
BRANCH  23  24
HETATM   24  S1  UNL     1      -5.459  13.591  24.107  1.00  0.00     0.180 S
HETATM   25  O1  UNL     1      -6.533  12.494  24.143  1.00  0.00    -0.222 OA
HETATM   26  O2  UNL     1      -4.983  13.720  22.714  1.00  0.00    -0.222 OA
BRANCH  24  27
HETATM   27  C8  UNL     1      -6.285  15.111  24.525  1.00  0.00     0.076 A
HETATM   28  C9  UNL     1      -7.636  15.058  24.900  1.00  0.00     0.025 A
HETATM   29  C10 UNL     1      -8.316  16.217  25.204  1.00  0.00     0.002 A
HETATM   30  C11 UNL     1      -7.642  17.415  25.130  1.00  0.00     0.001 A
HETATM   31  C12 UNL     1      -6.316  17.446  24.760  1.00  0.00     0.020 A
HETATM   32  C13 UNL     1      -5.608  16.282  24.447  1.00  0.00     0.032 A
HETATM   33 BR1  UNL     1      -3.773  16.336  23.971  1.00  0.00    -0.050 Br
ENDBRANCH  24  27
ENDBRANCH  23  24
ENDBRANCH  22  23
ENDBRANCH  16  22
ENDBRANCH  13  16
ENDBRANCH   9  12
ENDBRANCH   5   8
ENDBRANCH   1   5
TORSDOF 10
ENDMDL