MODEL 3
REMARK VINA RESULT: -7.564617919      1.529      2.082
REMARK  13 active torsions:
REMARK  status: ('A' for Active; 'I' for Inactive)
REMARK       I    between atoms: N1_2  and  C2_4
REMARK    1  A    between atoms: C2_4  and  C3_6
REMARK    2  A    between atoms: C8_12  and  N2_13
REMARK    3  A    between atoms: N2_13  and  C9_14
REMARK    4  A    between atoms: C9_14  and  O2_15
REMARK    5  A    between atoms: C9_14  and  C10_17
REMARK    6  A    between atoms: C10_17  and  O3_18
REMARK    7  A    between atoms: O3_18  and  C11_19
REMARK    8  A    between atoms: C11_19  and  O4_20
REMARK    9  A    between atoms: C11_19  and  C12_22
REMARK   10  A    between atoms: C12_22  and  C13_23
REMARK   11  A    between atoms: C13_23  and  S1_24
REMARK   12  A    between atoms: S1_24  and  N3_27
REMARK       I    between atoms: N3_27  and  C15_29
REMARK   13  A    between atoms: C15_29  and  C16_31
ROOT
HETATM    1  C10 UNL     1      -1.298  12.098  21.600  1.00  0.00     0.271 C
ENDROOT
BRANCH   1   2
HETATM    2  C9  UNL     1      -0.371  11.923  22.817  1.00  0.00     0.214 C
BRANCH   2   3
HETATM    3  N2  UNL     1      -0.646  11.242  23.947  1.00  0.00    -0.382 NA
BRANCH   3   4
HETATM    4  C8  UNL     1      -0.911  10.560  25.082  1.00  0.00     0.125 A
HETATM    5  C3  UNL     1      -2.133  10.597  25.716  1.00  0.00     0.073 A
HETATM    6  C4  UNL     1      -2.472   9.669  26.676  1.00  0.00     0.039 A
HETATM    7  C5  UNL     1      -1.570   8.655  27.043  1.00  0.00     0.012 A
HETATM    8 BR1  UNL     1      -2.059   7.384  28.378  1.00  0.00    -0.051 Br
HETATM    9  C6  UNL     1      -0.372   8.632  26.426  1.00  0.00     0.022 A
HETATM   10  C7  UNL     1       0.018   9.515  25.468  1.00  0.00     0.047 A
BRANCH   5  11
HETATM   11  C2  UNL     1      -3.019  11.752  25.523  1.00  0.00     0.254 C
HETATM   12  N1  UNL     1      -4.340  11.569  25.039  1.00  0.00    -0.361 N
HETATM   13  C1  UNL     1      -5.256  12.719  24.877  1.00  0.00     0.149 C
ATOM     14  H1  UNL     1      -4.662  10.631  24.800  1.00  0.00     0.162 HD
HETATM   15  O1  UNL     1      -2.647  12.883  25.767  1.00  0.00    -0.268 OA
ENDBRANCH   5  11
ENDBRANCH   3   4
ENDBRANCH   2   3
BRANCH   2  16
HETATM   16  O2  UNL     1       0.774  12.509  22.598  1.00  0.00    -0.337 OA
ATOM     17  H2  UNL     1       0.851  13.419  22.335  1.00  0.00     0.220 HD
ENDBRANCH   2  16
ENDBRANCH   1   2
BRANCH   1  18
HETATM   18  O3  UNL     1      -2.633  11.859  22.227  1.00  0.00    -0.352 OA
BRANCH  18  19
HETATM   19  C11 UNL     1      -3.207  10.650  21.729  1.00  0.00     0.258 C
BRANCH  19  20
HETATM   20  O4  UNL     1      -3.884   9.988  22.621  1.00  0.00    -0.371 OA
ATOM     21  H4  UNL     1      -4.799   9.872  22.396  1.00  0.00     0.212 HD
ENDBRANCH  19  20
BRANCH  19  22
HETATM   22  C12 UNL     1      -3.094  10.120  20.390  1.00  0.00     0.077 C
BRANCH  22  23
HETATM   23  C13 UNL     1      -4.141  10.468  19.380  1.00  0.00     0.168 C
BRANCH  23  24
HETATM   24  S1  UNL     1      -5.219   9.023  19.242  1.00  0.00     0.234 S
HETATM   25  O5  UNL     1      -4.504   7.813  18.808  1.00  0.00    -0.205 OA
HETATM   26  O6  UNL     1      -5.686   8.760  20.662  1.00  0.00    -0.205 OA
BRANCH  24  27
HETATM   27  N3  UNL     1      -6.582   9.367  18.232  1.00  0.00    -0.249 N
HETATM   28  C14 UNL     1      -7.832   9.565  18.865  1.00  0.00     0.172 C
HETATM   29  C15 UNL     1      -6.341   9.438  16.859  1.00  0.00     0.240 C
HETATM   30  O7  UNL     1      -5.104   9.335  16.507  1.00  0.00    -0.272 OA
BRANCH  29  31
HETATM   31  C16 UNL     1      -7.307   9.614  15.746  1.00  0.00     0.031 C
HETATM   32  C17 UNL     1      -6.588   9.435  14.397  1.00  0.00     0.025 C
HETATM   33  C18 UNL     1      -7.877  10.986  15.746  1.00  0.00     0.025 C
HETATM   34  C19 UNL     1      -8.314   8.490  15.810  1.00  0.00     0.025 C
ENDBRANCH  29  31
ENDBRANCH  24  27
ENDBRANCH  23  24
ENDBRANCH  22  23
ENDBRANCH  19  22
ENDBRANCH  18  19
ENDBRANCH   1  18
TORSDOF 13
ENDMDL