MODEL 1
REMARK VINA RESULT: -8.240108167      0.000      0.000
REMARK  9 active torsions:
REMARK  status: ('A' for Active; 'I' for Inactive)
REMARK    1  A    between atoms: O1_2  and  C2_3
REMARK    2  A    between atoms: C5_6  and  S1_7
REMARK    3  A    between atoms: S1_7  and  N1_10
REMARK    4  A    between atoms: N1_10  and  C6_11
REMARK    5  A    between atoms: N1_10  and  C14_28
REMARK    6  A    between atoms: C6_11  and  C7_12
REMARK       I    between atoms: C7_12  and  N2_14
REMARK    7  A    between atoms: N2_14  and  C8_16
REMARK    8  A    between atoms: C11_19  and  S2_20
REMARK    9  A    between atoms: S2_20  and  N3_21
ROOT
HETATM    1  N1  UNL     1      -5.587  12.150  19.934  1.00  0.00    -0.260 N
ENDROOT
BRANCH   1   2
HETATM    2  S1  UNL     1      -5.202  11.331  18.463  1.00  0.00     0.265 S
HETATM    3  O2  UNL     1      -5.981  11.929  17.301  1.00  0.00    -0.200 OA
HETATM    4  O3  UNL     1      -3.761  11.520  18.134  1.00  0.00    -0.200 OA
BRANCH   2   5
HETATM    5  C5  UNL     1      -5.632   9.639  18.540  1.00  0.00     0.080 A
HETATM    6  C4  UNL     1      -4.709   8.645  18.788  1.00  0.00     0.028 A
HETATM    7  C3  UNL     1      -5.046   7.311  18.849  1.00  0.00     0.038 A
HETATM    8  C2  UNL     1      -6.351   6.909  18.659  1.00  0.00     0.068 A
HETATM    9  C22 UNL     1      -7.288   7.887  18.410  1.00  0.00     0.038 A
HETATM   10  C21 UNL     1      -6.934   9.217  18.353  1.00  0.00     0.028 A
BRANCH   8  11
HETATM   11  O1  UNL     1      -6.683   5.562  18.723  1.00  0.00    -0.356 OA
HETATM   12  C1  UNL     1      -6.928   4.797  17.581  1.00  0.00     0.210 C
ENDBRANCH   8  11
ENDBRANCH   2   5
ENDBRANCH   1   2
BRANCH   1  13
HETATM   13  C6  UNL     1      -4.526  12.591  20.793  1.00  0.00     0.245 C
BRANCH  13  14
HETATM   14  C7  UNL     1      -4.030  11.576  21.733  1.00  0.00     0.241 C
HETATM   15  O4  UNL     1      -4.194  10.361  21.568  1.00  0.00    -0.271 OA
HETATM   16  N2  UNL     1      -3.326  12.004  22.896  1.00  0.00    -0.326 N
ATOM     17  H2  UNL     1      -3.215  13.012  23.002  1.00  0.00     0.169 HD
BRANCH  16  18
HETATM   18  C8  UNL     1      -2.767  11.219  23.911  1.00  0.00     0.034 A
HETATM   19  C9  UNL     1      -1.616  10.507  23.601  1.00  0.00     0.031 A
HETATM   20  C10 UNL     1      -0.996   9.694  24.510  1.00  0.00     0.027 A
HETATM   21  C11 UNL     1      -1.519   9.567  25.778  1.00  0.00     0.079 A
HETATM   22  C12 UNL     1      -2.650  10.247  26.135  1.00  0.00     0.027 A
HETATM   23  C13 UNL     1      -3.266  11.073  25.184  1.00  0.00     0.031 A
BRANCH  21  24
HETATM   24  S2  UNL     1      -0.720   8.520  26.951  1.00  0.00     0.256 S
HETATM   25  O5  UNL     1       0.538   9.179  27.392  1.00  0.00    -0.201 OA
HETATM   26  O6  UNL     1      -0.394   7.226  26.239  1.00  0.00    -0.201 OA
BRANCH  24  27
HETATM   27  N3  UNL     1      -1.792   8.202  28.271  1.00  0.00    -0.324 N
ATOM     28  H32 UNL     1      -1.489   7.920  29.203  1.00  0.00     0.169 HD
ATOM     29  H31 UNL     1      -2.756   8.340  27.971  1.00  0.00     0.169 HD
ENDBRANCH  24  27
ENDBRANCH  21  24
ENDBRANCH  16  18
ENDBRANCH  13  14
ENDBRANCH   1  13
BRANCH   1  30
HETATM   30  C14 UNL     1      -6.915  12.297  20.382  1.00  0.00     0.084 A
HETATM   31  C15 UNL     1      -7.582  13.502  20.116  1.00  0.00     0.033 A
HETATM   32  C16 UNL     1      -8.888  13.726  20.496  1.00  0.00     0.003 A
HETATM   33  C17 UNL     1      -9.566  12.733  21.162  1.00  0.00     0.010 A
HETATM   34  C18 UNL     1      -8.951  11.557  21.436  1.00  0.00    -0.021 A
HETATM   35  C19 UNL     1      -9.698  10.493  22.158  1.00  0.00     0.051 C
HETATM   36  C20 UNL     1      -7.609  11.351  21.035  1.00  0.00     0.149 A
HETATM   37  F1  UNL     1      -7.098  10.167  21.378  1.00  0.00    -0.203 F
ENDBRANCH   1  30
TORSDOF 9
ENDMDL