MODEL 2
REMARK VINA RESULT: -7.667778663      3.681      8.864
REMARK  7 active torsions:
REMARK  status: ('A' for Active; 'I' for Inactive)
REMARK    1  A    between atoms: C2_2  and  C4_5
REMARK    2  A    between atoms: C4_5  and  C5_7
REMARK    3  A    between atoms: C6_8  and  C7_9
REMARK       I    between atoms: C7_9  and  N1_11
REMARK    4  A    between atoms: N2_14  and  S1_15
REMARK    5  A    between atoms: S1_15  and  C10_18
REMARK    6  A    between atoms: C10_18  and  C11_19
REMARK    7  A    between atoms: C16_24  and  C18_26
ROOT
HETATM    1  C7  UNL     1      -1.261  12.868  22.310  1.00  0.00     0.243 C
HETATM    2  O2  UNL     1      -1.731  13.504  23.284  1.00  0.00    -0.268 OA
HETATM    3  N1  UNL     1      -1.898  11.651  21.942  1.00  0.00    -0.342 N
HETATM    4  C8  UNL     1      -3.050  11.142  22.645  1.00  0.00     0.171 C
HETATM    5  C9  UNL     1      -4.143  10.680  21.703  1.00  0.00     0.096 C
HETATM    6  N2  UNL     1      -3.678  10.103  20.522  1.00  0.00    -0.287 N
HETATM    7  C19 UNL     1      -2.273   9.753  20.522  1.00  0.00     0.160 C
HETATM    8  C20 UNL     1      -1.375  10.901  20.826  1.00  0.00     0.147 C
ENDROOT
BRANCH   6   9
HETATM    9  S1  UNL     1      -4.318  10.487  19.037  1.00  0.00     0.232 S
HETATM   10  O3  UNL     1      -3.286  11.428  18.350  1.00  0.00    -0.205 OA
HETATM   11  O4  UNL     1      -5.502  11.441  19.264  1.00  0.00    -0.205 OA
BRANCH   9  12
HETATM   12  C10 UNL     1      -4.694   9.246  17.923  1.00  0.00     0.174 C
BRANCH  12  13
HETATM   13  C11 UNL     1      -5.674   8.211  18.083  1.00  0.00    -0.008 C
HETATM   14  C12 UNL     1      -5.291   6.756  17.939  1.00  0.00     0.012 C
HETATM   15  C13 UNL     1      -6.502   6.104  18.603  1.00  0.00     0.007 C
HETATM   16  C14 UNL     1      -7.201   7.348  19.105  1.00  0.00     0.006 C
HETATM   17  C15 UNL     1      -6.063   8.115  19.642  1.00  0.00     0.017 C
HETATM   18  C16 UNL     1      -7.115   8.257  17.866  1.00  0.00     0.057 C
HETATM   19  C17 UNL     1      -7.709   7.501  16.665  1.00  0.00     0.028 C
BRANCH  18  20
HETATM   20  C18 UNL     1      -7.866   9.504  18.017  1.00  0.00     0.182 C
HETATM   21  O5  UNL     1      -7.829  10.359  17.097  1.00  0.00    -0.647 OA
HETATM   22  O6  UNL     1      -8.623   9.816  19.115  1.00  0.00    -0.647 OA
ENDBRANCH  18  20
ENDBRANCH  12  13
ENDBRANCH   9  12
ENDBRANCH   6   9
BRANCH   1  23
HETATM   23  C6  UNL     1      -0.090  13.362  21.576  1.00  0.00     0.078 C
HETATM   24  C5  UNL     1       0.953  13.878  22.194  1.00  0.00     0.057 C
BRANCH  24  25
HETATM   25  C4  UNL     1       2.085  14.352  21.411  1.00  0.00     0.172 C
HETATM   26  O1  UNL     1       2.857  13.528  20.855  1.00  0.00    -0.291 OA
BRANCH  25  27
HETATM   27  C2  UNL     1       2.354  15.811  21.253  1.00  0.00     0.094 C
HETATM   28  C1  UNL     1       2.633  16.374  22.648  1.00  0.00     0.041 C
HETATM   29  C3  UNL     1       3.553  16.028  20.388  1.00  0.00     0.041 C
HETATM   30 CL1  UNL     1       0.950  16.642  20.556  1.00  0.00    -0.111 Cl
ENDBRANCH  25  27
ENDBRANCH  24  25
ENDBRANCH   1  23
TORSDOF 7
ENDMDL