MODEL 5
REMARK VINA RESULT: -8.370275683      3.820      5.566
REMARK  9 active torsions:
REMARK  status: ('A' for Active; 'I' for Inactive)
REMARK    1  A    between atoms: N1_2  and  S1_4
REMARK    2  A    between atoms: S1_4  and  C3_7
REMARK    3  A    between atoms: C6_10  and  C7_11
REMARK    4  A    between atoms: C7_11  and  O3_12
REMARK    5  A    between atoms: C7_11  and  N2_14
REMARK    6  A    between atoms: N2_14  and  N3_15
REMARK    7  A    between atoms: N2_14  and  S2_23
REMARK    8  A    between atoms: N3_15  and  C8_17
REMARK    9  A    between atoms: S2_23  and  C14_26
ROOT
HETATM    1  N2  UNL     1      -5.179  10.772  20.395  1.00  0.00    -0.152 N
ENDROOT
BRANCH   1   2
HETATM    2  C7  UNL     1      -4.061  10.549  21.184  1.00  0.00     0.183 C
BRANCH   2   3
HETATM    3  C6  UNL     1      -2.776  11.200  21.235  1.00  0.00     0.017 A
HETATM    4  C5  UNL     1      -1.837  11.240  20.234  1.00  0.00     0.017 A
HETATM    5  C4  UNL     1      -0.616  11.910  20.338  1.00  0.00     0.026 A
HETATM    6  C3  UNL     1      -0.332  12.565  21.504  1.00  0.00     0.074 A
HETATM    7  C21 UNL     1      -1.221  12.567  22.543  1.00  0.00     0.026 A
HETATM    8  C20 UNL     1      -2.413  11.897  22.403  1.00  0.00     0.017 A
BRANCH   6   9
HETATM    9  S1  UNL     1       1.193  13.418  21.683  1.00  0.00     0.242 S
HETATM   10  O1  UNL     1       2.203  12.930  20.715  1.00  0.00    -0.206 OA
HETATM   11  O2  UNL     1       1.740  13.136  23.072  1.00  0.00    -0.206 OA
BRANCH   9  12
HETATM   12  N1  UNL     1       0.927  15.104  21.588  1.00  0.00    -0.215 NA
HETATM   13  C1  UNL     1       0.012  15.475  20.554  1.00  0.00     0.129 C
HETATM   14  C2  UNL     1       2.150  15.846  21.568  1.00  0.00     0.129 C
ENDBRANCH   9  12
ENDBRANCH   6   9
ENDBRANCH   2   3
BRANCH   2  15
HETATM   15  O3  UNL     1      -4.199   9.572  22.037  1.00  0.00    -0.344 OA
ATOM     16  H3  UNL     1      -4.933   8.997  21.855  1.00  0.00     0.219 HD
ENDBRANCH   2  15
ENDBRANCH   1   2
BRANCH   1  17
HETATM   17  N3  UNL     1      -5.335  10.238  19.124  1.00  0.00    -0.282 N
ATOM     18  H3  UNL     1      -5.239  10.853  18.316  1.00  0.00     0.188 HD
BRANCH  17  19
HETATM   19  C8  UNL     1      -5.628   8.851  18.909  1.00  0.00     0.049 A
HETATM   20  C9  UNL     1      -4.697   7.928  18.509  1.00  0.00     0.031 A
HETATM   21  C10 UNL     1      -5.022   6.597  18.299  1.00  0.00     0.002 A
HETATM   22  C11 UNL     1      -6.302   6.176  18.492  1.00  0.00     0.000 A
HETATM   23  C12 UNL     1      -7.263   7.090  18.897  1.00  0.00     0.002 A
HETATM   24  C13 UNL     1      -6.921   8.416  19.103  1.00  0.00     0.031 A
ENDBRANCH  17  19
ENDBRANCH   1  17
BRANCH   1  25
HETATM   25  S2  UNL     1      -6.474  11.765  21.033  1.00  0.00     0.284 S
HETATM   26  O4  UNL     1      -7.495  10.932  21.741  1.00  0.00    -0.198 OA
HETATM   27  O5  UNL     1      -7.129  12.457  19.878  1.00  0.00    -0.198 OA
BRANCH  25  28
HETATM   28  C14 UNL     1      -5.831  12.984  22.106  1.00  0.00     0.084 A
HETATM   29  C15 UNL     1      -5.321  14.176  21.639  1.00  0.00     0.025 A
HETATM   30  C16 UNL     1      -4.816  15.122  22.516  1.00  0.00     0.005 A
HETATM   31  C17 UNL     1      -4.814  14.894  23.867  1.00  0.00     0.042 A
HETATM   32  C18 UNL     1      -5.311  13.724  24.355  1.00  0.00     0.117 A
HETATM   33  F1  UNL     1      -5.303  13.508  25.694  1.00  0.00    -0.206 F
HETATM   34  C19 UNL     1      -5.817  12.775  23.473  1.00  0.00     0.067 A
ENDBRANCH  25  28
ENDBRANCH   1  25
TORSDOF 9
ENDMDL