MODEL 1
REMARK VINA RESULT: -8.424204891      0.000      0.000
REMARK  7 active torsions:
REMARK  status: ('A' for Active; 'I' for Inactive)
REMARK    1  A    between atoms: C2_2  and  C3_4
REMARK    2  A    between atoms: C3_4  and  N1_5
REMARK    3  A    between atoms: C3_4  and  C18_27
REMARK       I    between atoms: N1_5  and  C4_7
REMARK    4  A    between atoms: C4_7  and  C5_9
REMARK    5  A    between atoms: C8_12  and  N2_13
REMARK    6  A    between atoms: N2_13  and  S1_15
REMARK    7  A    between atoms: S1_15  and  C10_18
ROOT
HETATM    1  C5  UNL     1      -4.016  10.278  19.254  1.00  0.00     0.032 A
HETATM    2  C6  UNL     1      -3.338  11.439  18.953  1.00  0.00     0.019 A
HETATM    3  C7  UNL     1      -2.633  12.091  19.919  1.00  0.00     0.031 A
HETATM    4  C8  UNL     1      -2.570  11.619  21.230  1.00  0.00     0.044 A
HETATM    5  C16 UNL     1      -3.242  10.469  21.532  1.00  0.00     0.031 A
HETATM    6  C17 UNL     1      -3.958   9.809  20.539  1.00  0.00     0.019 A
ENDROOT
BRANCH   4   7
HETATM    7  N2  UNL     1      -1.840  12.291  22.241  1.00  0.00    -0.276 N
HETATM    8  C9  UNL     1      -2.278  13.610  22.641  1.00  0.00     0.170 C
BRANCH   7   9
HETATM    9  S1  UNL     1      -0.479  11.532  22.952  1.00  0.00     0.264 S
HETATM   10  O3  UNL     1       0.190  10.727  21.867  1.00  0.00    -0.200 OA
HETATM   11  O4  UNL     1       0.477  12.595  23.409  1.00  0.00    -0.200 OA
BRANCH   9  12
HETATM   12  C10 UNL     1      -0.914  10.530  24.304  1.00  0.00     0.080 A
HETATM   13  C11 UNL     1      -0.234   9.366  24.584  1.00  0.00     0.027 A
HETATM   14  C12 UNL     1      -0.588   8.564  25.674  1.00  0.00     0.020 A
HETATM   15  C13 UNL     1      -1.625   8.931  26.483  1.00  0.00     0.011 A
HETATM   16 BR1  UNL     1      -2.092   7.818  27.970  1.00  0.00    -0.051 Br
HETATM   17  C14 UNL     1      -2.311  10.097  26.210  1.00  0.00     0.020 A
HETATM   18  C15 UNL     1      -1.956  10.882  25.133  1.00  0.00     0.027 A
ENDBRANCH   9  12
ENDBRANCH   7   9
ENDBRANCH   4   7
BRANCH   1  19
HETATM   19  C4  UNL     1      -4.773   9.567  18.210  1.00  0.00     0.252 C
HETATM   20  N1  UNL     1      -5.345   8.310  18.450  1.00  0.00    -0.339 N
ATOM     21  H1  UNL     1      -5.223   7.902  19.376  1.00  0.00     0.164 HD
HETATM   22  O2  UNL     1      -4.879  10.137  17.103  1.00  0.00    -0.268 OA
BRANCH  20  23
HETATM   23  C3  UNL     1      -6.103   7.546  17.468  1.00  0.00     0.223 C
BRANCH  23  24
HETATM   24  C2  UNL     1      -5.990   6.101  17.693  1.00  0.00     0.152 C
HETATM   25  C1  UNL     1      -7.029   5.080  17.472  1.00  0.00     0.093 C
HETATM   26  O1  UNL     1      -4.902   5.656  18.119  1.00  0.00    -0.296 OA
ENDBRANCH  23  24
BRANCH  23  27
HETATM   27  C18 UNL     1      -7.510   7.993  17.412  1.00  0.00     0.152 C
HETATM   28  C19 UNL     1      -8.261   8.082  16.148  1.00  0.00     0.093 C
HETATM   29  O5  UNL     1      -8.118   8.314  18.438  1.00  0.00    -0.296 OA
ENDBRANCH  23  27
ENDBRANCH  20  23
ENDBRANCH   1  19
TORSDOF 7
ENDMDL