MODEL 2
REMARK VINA RESULT: -8.114097593      1.602      8.587
REMARK  8 active torsions:
REMARK  status: ('A' for Active; 'I' for Inactive)
REMARK    1  A    between atoms: N1_2  and  C2_3
REMARK    2  A    between atoms: C2_3  and  C3_4
REMARK    3  A    between atoms: C3_4  and  O2_6
REMARK    4  A    between atoms: O2_6  and  C4_7
REMARK    5  A    between atoms: C4_7  and  C5_8
REMARK    6  A    between atoms: C12_15  and  C13_16
REMARK       I    between atoms: C13_16  and  N2_18
REMARK    7  A    between atoms: N2_18  and  C14_20
REMARK    8  A    between atoms: C23_30  and  C24_31
ROOT
HETATM    1  C1  UNL     1      -1.661  14.052  22.486  1.00  0.00     0.279 C
HETATM    2  N1  UNL     1      -0.870  12.857  22.533  1.00  0.00    -0.035 N
HETATM    3  C9  UNL     1      -1.253  11.864  23.453  1.00  0.00     0.196 C
HETATM    4  C10 UNL     1      -2.688  11.614  23.686  1.00  0.00     0.035 C
HETATM    5  C11 UNL     1      -3.542  11.051  22.650  1.00  0.00     0.022 C
HETATM    6  C12 UNL     1      -3.002  10.915  21.257  1.00  0.00     0.055 C
HETATM    7  C19 UNL     1      -1.904   9.906  21.141  1.00  0.00     0.027 C
HETATM    8  C20 UNL     1      -0.676  10.704  21.527  1.00  0.00     0.021 C
HETATM    9  C21 UNL     1      -0.606  10.563  23.039  1.00  0.00     0.040 C
HETATM   10  C22 UNL     1      -1.017  12.154  21.261  1.00  0.00     0.213 C
HETATM   11  C23 UNL     1      -2.420  12.167  20.725  1.00  0.00     0.122 C
ENDROOT
BRANCH   2  12
HETATM   12  C2  UNL     1       0.494  13.298  22.630  1.00  0.00     0.284 C
BRANCH  12  13
HETATM   13  C3  UNL     1       1.201  13.639  21.416  1.00  0.00     0.306 C
HETATM   14  O1  UNL     1       2.080  12.796  21.009  1.00  0.00    -0.259 OA
BRANCH  13  15
HETATM   15  O2  UNL     1       1.066  14.756  20.621  1.00  0.00    -0.317 OA
BRANCH  15  16
HETATM   16  C4  UNL     1       1.336  16.088  20.961  1.00  0.00     0.183 C
BRANCH  16  17
HETATM   17  C5  UNL     1       2.830  16.251  21.119  1.00  0.00     0.010 C
HETATM   18  C6  UNL     1       3.335  17.272  20.090  1.00  0.00     0.007 C
HETATM   19  C7  UNL     1       3.295  18.363  21.137  1.00  0.00     0.001 C
HETATM   20  C8  UNL     1       3.220  17.272  22.181  1.00  0.00     0.007 C
ENDBRANCH  16  17
ENDBRANCH  15  16
ENDBRANCH  13  15
ENDBRANCH  12  13
ENDBRANCH   2  12
BRANCH  11  21
HETATM   21  C24 UNL     1      -2.372  12.352  19.279  1.00  0.00     0.226 C
HETATM   22  O5  UNL     1      -1.320  12.211  18.622  1.00  0.00    -0.279 OA
HETATM   23 CL1  UNL     1      -3.749  12.784  18.287  1.00  0.00    -0.043 Cl
ENDBRANCH  11  21
BRANCH   6  24
HETATM   24  C13 UNL     1      -4.128  10.384  20.444  1.00  0.00     0.227 C
HETATM   25  O3  UNL     1      -5.263  10.836  20.639  1.00  0.00    -0.273 OA
HETATM   26  N2  UNL     1      -3.936   9.372  19.450  1.00  0.00    -0.356 N
ATOM     27  H2  UNL     1      -2.991   9.015  19.307  1.00  0.00     0.162 HD
BRANCH  26  28
HETATM   28  C14 UNL     1      -4.980   8.833  18.649  1.00  0.00     0.088 C
HETATM   29  C15 UNL     1      -4.977   7.311  18.603  1.00  0.00     0.051 C
HETATM   30  C16 UNL     1      -6.341   6.904  18.077  1.00  0.00     0.169 C
HETATM   31  O4  UNL     1      -7.019   7.981  17.511  1.00  0.00    -0.391 OA
HETATM   32  C17 UNL     1      -6.216   8.641  16.565  1.00  0.00     0.169 C
HETATM   33  C18 UNL     1      -5.034   9.330  17.245  1.00  0.00     0.051 C
ENDBRANCH  26  28
ENDBRANCH   6  24
TORSDOF 8
ENDMDL