MODEL 3
REMARK VINA RESULT: -8.633339441      1.650      2.576
REMARK  10 active torsions:
REMARK  status: ('A' for Active; 'I' for Inactive)
REMARK    1  A    between atoms: O1_1  and  C1_3
REMARK    2  A    between atoms: C1_3  and  C2_4
REMARK    3  A    between atoms: C1_3  and  N2_25
REMARK    4  A    between atoms: C2_4  and  O2_5
REMARK    5  A    between atoms: O2_5  and  C3_6
REMARK    6  A    between atoms: C3_6  and  C4_7
REMARK    7  A    between atoms: N1_14  and  C11_15
REMARK    8  A    between atoms: C11_15  and  O3_16
REMARK    9  A    between atoms: C11_15  and  C12_18
REMARK   10  A    between atoms: N3_28  and  C19_29
ROOT
HETATM    1  C4  UNL     1      -3.713  11.293  21.198  1.00  0.00     0.146 C
HETATM    2  C5  UNL     1      -2.955  10.661  20.059  1.00  0.00     0.034 C
HETATM    3  C6  UNL     1      -1.762   9.972  20.639  1.00  0.00     0.006 C
HETATM    4  C7  UNL     1      -1.681  10.046  22.141  1.00  0.00     0.038 C
HETATM    5  C8  UNL     1      -2.076  11.357  22.720  1.00  0.00     0.067 C
HETATM    6  C9  UNL     1      -0.878  12.168  23.178  1.00  0.00     0.058 C
HETATM    7  C10 UNL     1      -0.083  11.427  24.247  1.00  0.00     0.130 C
HETATM    8  N1  UNL     1      -1.057  10.617  25.038  1.00  0.00    -0.334 N
HETATM    9  C15 UNL     1      -2.310  11.247  25.213  1.00  0.00     0.275 C
HETATM   10  F1  UNL     1      -3.116  10.783  26.189  1.00  0.00    -0.227 F
HETATM   11  C16 UNL     1      -3.051  11.091  23.871  1.00  0.00     0.097 C
HETATM   12  O4  UNL     1      -2.794  12.173  21.826  1.00  0.00    -0.372 OA
ENDROOT
BRANCH   1  13
HETATM   13  C3  UNL     1      -4.943  12.057  20.749  1.00  0.00     0.200 C
BRANCH  13  14
HETATM   14  O2  UNL     1      -4.563  13.175  20.067  1.00  0.00    -0.381 OA
BRANCH  14  15
HETATM   15  C2  UNL     1      -5.114  13.428  18.863  1.00  0.00     0.251 C
BRANCH  15  16
HETATM   16  C1  UNL     1      -4.594  12.676  17.729  1.00  0.00     0.138 C
BRANCH  16  17
HETATM   17  O1  UNL     1      -3.440  13.009  17.226  1.00  0.00    -0.348 OA
ATOM     18  H1  UNL     1      -3.196  12.676  16.370  1.00  0.00     0.219 HD
ENDBRANCH  16  17
BRANCH  16  19
HETATM   19  N2  UNL     1      -5.229  11.605  17.104  1.00  0.00    -0.360 N
HETATM   20  C17 UNL     1      -4.576  10.560  16.355  1.00  0.00     0.155 C
HETATM   21  C18 UNL     1      -5.348   9.271  16.717  1.00  0.00     0.292 C
HETATM   22  N3  UNL     1      -5.810   9.420  18.061  1.00  0.00     0.096 N
HETATM   23  C24 UNL     1      -6.949  10.314  18.156  1.00  0.00     0.292 C
HETATM   24  C25 UNL     1      -6.710  11.467  17.172  1.00  0.00     0.155 C
BRANCH  22  25
HETATM   25  C19 UNL     1      -5.945   8.210  18.808  1.00  0.00     0.223 C
HETATM   26  C20 UNL     1      -7.228   7.483  18.514  1.00  0.00     0.036 C
HETATM   27  C21 UNL     1      -6.845   6.042  18.576  1.00  0.00     0.002 C
HETATM   28  C22 UNL     1      -5.418   5.990  18.043  1.00  0.00     0.002 C
HETATM   29  C23 UNL     1      -4.797   7.291  18.514  1.00  0.00     0.036 C
ENDBRANCH  22  25
ENDBRANCH  16  19
ENDBRANCH  15  16
ENDBRANCH  14  15
ENDBRANCH  13  14
ENDBRANCH   1  13
BRANCH   8  30
HETATM   30  C11 UNL     1      -0.637   9.382  25.490  1.00  0.00     0.119 C
BRANCH  30  31
HETATM   31  O3  UNL     1      -0.164   8.510  24.645  1.00  0.00    -0.349 OA
ATOM     32  H3  UNL     1      -0.699   7.771  24.379  1.00  0.00     0.219 HD
ENDBRANCH  30  31
BRANCH  30  33
HETATM   33  C12 UNL     1      -0.671   8.930  26.884  1.00  0.00     0.060 A
HETATM   34  C13 UNL     1      -0.833   7.462  27.096  1.00  0.00     0.013 A
HETATM   35  C14 UNL     1      -2.008   8.312  27.292  1.00  0.00     0.013 A
ENDBRANCH  30  33
ENDBRANCH   8  30
TORSDOF 10
ENDMDL