MODEL 3
REMARK VINA RESULT: -9.325858339      1.465      1.700
REMARK  6 active torsions:
REMARK  status: ('A' for Active; 'I' for Inactive)
REMARK    1  A    between atoms: C1_2  and  C2_3
REMARK       I    between atoms: C1_2  and  N3_22
REMARK    2  A    between atoms: C2_3  and  C3_4
REMARK    3  A    between atoms: C3_4  and  C4_5
REMARK       I    between atoms: C4_5  and  N1_7
REMARK       I    between atoms: N2_10  and  C7_11
REMARK    4  A    between atoms: C7_11  and  C8_13
REMARK    5  A    between atoms: N3_22  and  N4_24
REMARK    6  A    between atoms: N5_27  and  C18_28
ROOT
HETATM    1  C3  UNL     1      -3.403  15.220  20.115  1.00  0.00     0.112 C
ENDROOT
BRANCH   1   2
HETATM    2  C2  UNL     1      -2.277  15.399  21.120  1.00  0.00     0.113 C
BRANCH   2   3
HETATM    3  C1  UNL     1      -2.301  14.397  22.201  1.00  0.00     0.232 C
HETATM    4  O1  UNL     1      -3.171  14.512  23.128  1.00  0.00    -0.272 OA
HETATM    5  N3  UNL     1      -1.407  13.334  22.237  1.00  0.00    -0.289 N
ATOM      6  H3  UNL     1      -0.721  13.257  21.487  1.00  0.00     0.183 HD
BRANCH   5   7
HETATM    7  N4  UNL     1      -1.394  12.388  23.218  1.00  0.00    -0.226 NA
HETATM    8  C16 UNL     1      -2.230  11.258  22.771  1.00  0.00     0.133 C
HETATM    9  C17 UNL     1      -2.626  10.493  23.997  1.00  0.00     0.139 C
HETATM   10  N5  UNL     1      -1.479  10.231  24.841  1.00  0.00    -0.378 N
HETATM   11  C24 UNL     1      -0.182  10.835  24.657  1.00  0.00     0.139 C
HETATM   12  C25 UNL     1      -0.107  11.810  23.517  1.00  0.00     0.133 C
BRANCH  10  13
HETATM   13  C18 UNL     1      -1.642   9.313  25.944  1.00  0.00     0.030 A
HETATM   14  C19 UNL     1      -0.780   8.216  26.058  1.00  0.00     0.029 A
HETATM   15  C20 UNL     1      -0.866   7.301  27.081  1.00  0.00     0.002 A
HETATM   16  C21 UNL     1      -1.859   7.485  28.038  1.00  0.00     0.000 A
HETATM   17  C22 UNL     1      -2.696   8.560  27.914  1.00  0.00     0.002 A
HETATM   18  C23 UNL     1      -2.629   9.497  26.895  1.00  0.00     0.029 A
ENDBRANCH  10  13
ENDBRANCH   5   7
ENDBRANCH   2   3
ENDBRANCH   1   2
BRANCH   1  19
HETATM   19  C4  UNL     1      -3.163  13.982  19.369  1.00  0.00     0.220 C
HETATM   20  O2  UNL     1      -2.136  13.876  18.692  1.00  0.00    -0.273 OA
HETATM   21  N1  UNL     1      -4.099  12.908  19.433  1.00  0.00    -0.349 N
HETATM   22  C5  UNL     1      -3.650  11.681  18.758  1.00  0.00     0.145 C
HETATM   23  C15 UNL     1      -5.404  12.976  20.004  1.00  0.00     0.145 C
HETATM   24  C6  UNL     1      -4.821  10.786  18.551  1.00  0.00     0.146 C
HETATM   25  N2  UNL     1      -5.672  10.615  19.707  1.00  0.00    -0.345 N
HETATM   26  C7  UNL     1      -6.411   9.404  19.934  1.00  0.00     0.257 C
HETATM   27  C14 UNL     1      -5.770  11.675  20.671  1.00  0.00     0.146 C
HETATM   28  O3  UNL     1      -7.149   9.365  20.973  1.00  0.00    -0.267 OA
BRANCH  26  29
HETATM   29  C8  UNL     1      -6.320   8.282  19.028  1.00  0.00     0.070 A
HETATM   30  C9  UNL     1      -5.176   7.484  19.034  1.00  0.00     0.020 A
HETATM   31  C10 UNL     1      -5.062   6.404  18.183  1.00  0.00     0.001 A
HETATM   32  C11 UNL     1      -6.081   6.102  17.313  1.00  0.00     0.003 A
HETATM   33  C12 UNL     1      -7.209   6.878  17.296  1.00  0.00     0.043 A
HETATM   34  C13 UNL     1      -7.330   7.978  18.162  1.00  0.00     0.132 A
HETATM   35  F1  UNL     1      -8.440   8.740  18.150  1.00  0.00    -0.205 F
ENDBRANCH  26  29
ENDBRANCH   1  19
TORSDOF 6
ENDMDL