MODEL 5
REMARK VINA RESULT: -8.252544324      1.079      2.309
REMARK  7 active torsions:
REMARK  status: ('A' for Active; 'I' for Inactive)
REMARK    1  A    between atoms: N1_7  and  C5_8
REMARK    2  A    between atoms: C8_12  and  C9_13
REMARK    3  A    between atoms: C9_13  and  S1_14
REMARK    4  A    between atoms: S1_14  and  N2_17
REMARK    5  A    between atoms: C12_20  and  N3_21
REMARK    6  A    between atoms: C12_20  and  C16_26
REMARK    7  A    between atoms: N3_21  and  C13_23
ROOT
HETATM    1  C9  UNL     1      -4.091  10.495  21.740  1.00  0.00     0.167 C
ENDROOT
BRANCH   1   2
HETATM    2  C8  UNL     1      -2.811  11.190  22.047  1.00  0.00    -0.023 C
HETATM    3  C7  UNL     1      -2.955  12.514  22.708  1.00  0.00     0.049 C
HETATM    4  C6  UNL     1      -1.695  13.257  22.975  1.00  0.00     0.194 C
HETATM    5  C5  UNL     1      -0.453  12.746  22.319  1.00  0.00     0.125 C
HETATM    6  F1  UNL     1      -1.837  14.597  22.665  1.00  0.00    -0.247 F
HETATM    7  C22 UNL     1      -0.623  11.617  21.392  1.00  0.00     0.012 C
HETATM    8  C21 UNL     1      -0.538  10.318  22.165  1.00  0.00     0.007 C
HETATM    9  C23 UNL     1      -2.000  11.487  20.769  1.00  0.00     0.017 C
HETATM   10  C20 UNL     1      -1.914  10.244  22.803  1.00  0.00     0.011 C
BRANCH   5  11
HETATM   11  N1  UNL     1       0.286  13.843  21.679  1.00  0.00    -0.341 N
HETATM   12  C1  UNL     1       1.595  14.209  22.144  1.00  0.00     0.244 C
HETATM   13  O1  UNL     1       2.131  13.581  23.093  1.00  0.00    -0.271 OA
HETATM   14  C2  UNL     1       2.363  15.323  21.545  1.00  0.00     0.270 C
HETATM   15  O2  UNL     1       1.724  15.993  20.538  1.00  0.00    -0.380 OA
HETATM   16  C3  UNL     1       0.347  15.999  20.651  1.00  0.00     0.188 C
HETATM   17  C4  UNL     1      -0.221  14.584  20.551  1.00  0.00     0.152 C
ENDBRANCH   5  11
ENDBRANCH   1   2
BRANCH   1  18
HETATM   18  S1  UNL     1      -5.143  11.221  20.567  1.00  0.00     0.212 S
HETATM   19  O3  UNL     1      -4.523  12.442  19.914  1.00  0.00    -0.211 OA
HETATM   20  O4  UNL     1      -6.495  11.649  21.156  1.00  0.00    -0.211 OA
BRANCH  18  21
HETATM   21  N2  UNL     1      -5.546  10.142  19.326  1.00  0.00    -0.208 NA
HETATM   22  C10 UNL     1      -4.599  10.108  18.259  1.00  0.00     0.110 C
HETATM   23  C11 UNL     1      -5.280   9.290  17.194  1.00  0.00     0.048 C
HETATM   24  C12 UNL     1      -6.650   8.958  17.734  1.00  0.00     0.043 C
HETATM   25  C19 UNL     1      -6.833  10.223  18.734  1.00  0.00     0.138 C
BRANCH  24  26
HETATM   26  N3  UNL     1      -6.743   7.902  18.605  1.00  0.00    -0.407 N
ATOM     27  H3  UNL     1      -7.490   7.979  19.296  1.00  0.00     0.154 HD
BRANCH  26  28
HETATM   28  C13 UNL     1      -5.986   6.751  18.697  1.00  0.00     0.077 A
HETATM   29  C14 UNL     1      -6.781   5.463  18.358  1.00  0.00     0.027 A
HETATM   30  C15 UNL     1      -5.513   5.815  17.685  1.00  0.00     0.027 A
ENDBRANCH  26  28
ENDBRANCH  24  26
BRANCH  24  31
HETATM   31  C16 UNL     1      -7.767   9.131  16.774  1.00  0.00     0.015 A
HETATM   32  C17 UNL     1      -8.324   7.999  15.987  1.00  0.00     0.007 A
HETATM   33  C18 UNL     1      -7.658   9.131  15.319  1.00  0.00     0.007 A
ENDBRANCH  24  31
ENDBRANCH  18  21
ENDBRANCH   1  18
TORSDOF 7
ENDMDL