MODEL 4
REMARK VINA RESULT: -9.161801605      1.227      2.171
REMARK  8 active torsions:
REMARK  status: ('A' for Active; 'I' for Inactive)
REMARK    1  A    between atoms: C2_2  and  O1_3
REMARK    2  A    between atoms: C2_2  and  C15_23
REMARK    3  A    between atoms: O1_3  and  C3_4
REMARK    4  A    between atoms: C3_4  and  C4_6
REMARK       I    between atoms: C4_6  and  N1_8
REMARK    5  A    between atoms: N2_11  and  S1_12
REMARK    6  A    between atoms: S1_12  and  C7_15
REMARK       I    between atoms: C15_23  and  N3_25
REMARK    7  A    between atoms: N3_25  and  C16_27
REMARK    8  A    between atoms: C16_27  and  C17_28
ROOT
HETATM    1  C4  UNL     1      -1.348  10.742  21.693  1.00  0.00     0.319 C
HETATM    2  O3  UNL     1      -1.161   9.762  22.463  1.00  0.00    -0.262 OA
HETATM    3  N1  UNL     1      -2.322  10.630  20.686  1.00  0.00    -0.340 N
HETATM    4  C5  UNL     1      -3.110   9.393  20.521  1.00  0.00     0.147 C
HETATM    5  C6  UNL     1      -4.569   9.853  20.502  1.00  0.00     0.155 C
HETATM    6  N2  UNL     1      -4.838  10.669  19.360  1.00  0.00    -0.304 N
HETATM    7  C13 UNL     1      -3.679  11.229  18.738  1.00  0.00     0.155 C
HETATM    8  C14 UNL     1      -2.639  11.680  19.745  1.00  0.00     0.147 C
ENDROOT
BRANCH   1   9
HETATM    9  C3  UNL     1      -0.571  11.939  21.857  1.00  0.00     0.352 C
HETATM   10  O2  UNL     1       0.549  12.083  21.332  1.00  0.00    -0.254 OA
BRANCH   9  11
HETATM   11  O1  UNL     1      -1.039  13.013  22.618  1.00  0.00    -0.299 OA
BRANCH  11  12
HETATM   12  C2  UNL     1      -2.394  13.285  22.828  1.00  0.00     0.220 C
HETATM   13  C1  UNL     1      -2.668  14.732  22.554  1.00  0.00     0.050 C
BRANCH  12  14
HETATM   14  C15 UNL     1      -2.785  12.948  24.229  1.00  0.00     0.247 C
HETATM   15  O6  UNL     1      -3.440  13.796  24.881  1.00  0.00    -0.271 OA
HETATM   16  N3  UNL     1      -2.431  11.710  24.815  1.00  0.00    -0.355 N
ATOM     17  H3  UNL     1      -1.898  11.051  24.246  1.00  0.00     0.162 HD
BRANCH  16  18
HETATM   18  C16 UNL     1      -2.768  11.311  26.156  1.00  0.00     0.161 C
BRANCH  18  19
HETATM   19  C17 UNL     1      -2.196   9.991  26.482  1.00  0.00    -0.041 A
HETATM   20  C18 UNL     1      -2.672   9.170  27.467  1.00  0.00     0.009 A
HETATM   21  C19 UNL     1      -2.062   7.936  27.694  1.00  0.00     0.001 A
HETATM   22  C20 UNL     1      -0.978   7.505  26.951  1.00  0.00     0.000 A
HETATM   23  C21 UNL     1      -0.510   8.351  25.959  1.00  0.00     0.001 A
HETATM   24  C22 UNL     1      -1.101   9.578  25.718  1.00  0.00     0.009 A
ENDBRANCH  18  19
ENDBRANCH  16  18
ENDBRANCH  12  14
ENDBRANCH  11  12
ENDBRANCH   9  11
ENDBRANCH   1   9
BRANCH   6  25
HETATM   25  S1  UNL     1      -6.064  10.155  18.326  1.00  0.00     0.260 S
HETATM   26  O4  UNL     1      -7.409  10.736  18.657  1.00  0.00    -0.200 OA
HETATM   27  O5  UNL     1      -5.738  10.582  16.901  1.00  0.00    -0.200 OA
BRANCH  25  28
HETATM   28  C7  UNL     1      -6.119   8.407  18.299  1.00  0.00     0.079 A
HETATM   29  C8  UNL     1      -7.253   7.714  18.690  1.00  0.00     0.025 A
HETATM   30  C9  UNL     1      -7.255   6.317  18.654  1.00  0.00     0.002 A
HETATM   31  C10 UNL     1      -6.172   5.598  18.243  1.00  0.00     0.000 A
HETATM   32  C11 UNL     1      -5.039   6.290  17.852  1.00  0.00     0.002 A
HETATM   33  C12 UNL     1      -5.026   7.676  17.885  1.00  0.00     0.025 A
ENDBRANCH  25  28
ENDBRANCH   6  25
TORSDOF 8
ENDMDL