MODEL 2
REMARK VINA RESULT: -8.263019587      1.208      1.418
REMARK  7 active torsions:
REMARK  status: ('A' for Active; 'I' for Inactive)
REMARK       I    between atoms: C2_2  and  N1_4
REMARK    1  A    between atoms: C3_6  and  O2_7
REMARK    2  A    between atoms: C3_6  and  C14_25
REMARK    3  A    between atoms: O2_7  and  C4_8
REMARK    4  A    between atoms: C4_8  and  C6_10
REMARK       I    between atoms: C6_10  and  N2_12
REMARK    5  A    between atoms: N2_12  and  N3_14
REMARK    6  A    between atoms: N3_14  and  S1_16
REMARK    7  A    between atoms: S1_16  and  C8_19
ROOT
HETATM    1  C6  UNL     1      -3.633  10.631  21.513  1.00  0.00     0.262 C
HETATM    2  O3  UNL     1      -4.079   9.594  22.038  1.00  0.00    -0.269 OA
HETATM    3  N2  UNL     1      -2.959  11.579  22.312  1.00  0.00    -0.274 N
ATOM      4  H2  UNL     1      -2.615  12.414  21.839  1.00  0.00     0.185 HD
ENDROOT
BRANCH   1   5
HETATM    5  C4  UNL     1      -3.827  10.833  20.058  1.00  0.00     0.219 C
HETATM    6  C5  UNL     1      -2.682  11.614  19.451  1.00  0.00     0.050 C
BRANCH   5   7
HETATM    7  O2  UNL     1      -3.832   9.545  19.422  1.00  0.00    -0.320 OA
BRANCH   7   8
HETATM    8  C3  UNL     1      -4.931   9.248  18.577  1.00  0.00     0.163 C
HETATM    9  N1  UNL     1      -4.962   9.842  17.460  1.00  0.00    -0.307 N
HETATM   10  C2  UNL     1      -5.872   9.780  16.420  1.00  0.00     0.219 C
ATOM     11  H1  UNL     1      -4.181  10.477  17.298  1.00  0.00     0.171 HD
HETATM   12  C1  UNL     1      -6.980  10.762  16.323  1.00  0.00     0.117 C
HETATM   13  O1  UNL     1      -5.808   8.896  15.507  1.00  0.00    -0.274 OA
BRANCH   8  14
HETATM   14  C14 UNL     1      -5.923   8.295  19.060  1.00  0.00     0.064 C
HETATM   15 BR1  UNL     1      -7.224   8.763  20.392  1.00  0.00    -0.046 Br
HETATM   16  C15 UNL     1      -5.910   7.060  18.551  1.00  0.00    -0.058 A
HETATM   17  C16 UNL     1      -6.458   5.689  18.477  1.00  0.00     0.040 A
HETATM   18  C17 UNL     1      -5.279   6.038  17.608  1.00  0.00     0.040 A
ENDBRANCH   8  14
ENDBRANCH   7   8
ENDBRANCH   5   7
ENDBRANCH   1   5
BRANCH   3  19
HETATM   19  N3  UNL     1      -2.717  11.491  23.672  1.00  0.00    -0.118 NA
HETATM   20  C7  UNL     1      -2.631  12.868  24.200  1.00  0.00     0.156 C
BRANCH  19  21
HETATM   21  S1  UNL     1      -1.209  10.740  24.031  1.00  0.00     0.260 S
HETATM   22  O4  UNL     1      -0.648   9.930  22.932  1.00  0.00    -0.204 OA
HETATM   23  O5  UNL     1      -0.165  11.777  24.424  1.00  0.00    -0.204 OA
BRANCH  21  24
HETATM   24  C8  UNL     1      -1.408   9.681  25.416  1.00  0.00     0.076 A
HETATM   25  C9  UNL     1      -2.409   9.910  26.342  1.00  0.00     0.025 A
HETATM   26  C10 UNL     1      -2.595   9.081  27.449  1.00  0.00     0.002 A
HETATM   27  C11 UNL     1      -1.762   7.992  27.639  1.00  0.00     0.000 A
HETATM   28  C12 UNL     1      -0.767   7.783  26.699  1.00  0.00     0.002 A
HETATM   29  C13 UNL     1      -0.582   8.595  25.613  1.00  0.00     0.025 A
ENDBRANCH  21  24
ENDBRANCH  19  21
ENDBRANCH   3  19
TORSDOF 7
ENDMDL