MODEL 1
REMARK VINA RESULT: -8.256566617      0.000      0.000
REMARK  6 active torsions:
REMARK  status: ('A' for Active; 'I' for Inactive)
REMARK       I    between atoms: N1_7  and  C6_8
REMARK    1  A    between atoms: C6_8  and  C7_10
REMARK    2  A    between atoms: C7_10  and  C8_11
REMARK    3  A    between atoms: C8_11  and  S1_12
REMARK    4  A    between atoms: S1_12  and  N2_15
REMARK    5  A    between atoms: C12_19  and  C13_20
REMARK       I    between atoms: C13_20  and  N3_22
REMARK    6  A    between atoms: N3_22  and  C14_24
ROOT
HETATM    1  C14 UNL     1      -1.389  10.022  25.270  1.00  0.00     0.122 A
HETATM    2  C15 UNL     1      -2.155   9.596  26.447  1.00  0.00     0.091 C
HETATM    3  N4  UNL     1      -2.777   9.259  27.378  1.00  0.00    -0.195 NA
HETATM    4  C16 UNL     1       0.100  10.148  25.369  1.00  0.00     0.050 A
HETATM    5  C17 UNL     1      -0.497   8.966  24.692  1.00  0.00     0.050 A
ENDROOT
BRANCH   1   6
HETATM    6  N3  UNL     1      -2.124  10.862  24.362  1.00  0.00    -0.338 N
HETATM    7  C13 UNL     1      -2.714  12.094  24.706  1.00  0.00     0.229 C
HETATM    8  O4  UNL     1      -2.636  12.536  25.847  1.00  0.00    -0.273 OA
ATOM      9  H3  UNL     1      -2.225  10.542  23.398  1.00  0.00     0.164 HD
BRANCH   7  10
HETATM   10  C12 UNL     1      -3.461  12.887  23.646  1.00  0.00     0.058 C
HETATM   11  C11 UNL     1      -2.694  14.053  23.143  1.00  0.00     0.022 C
HETATM   12  C10 UNL     1      -2.906  14.284  21.665  1.00  0.00     0.017 C
HETATM   13  C9  UNL     1      -2.980  12.994  20.927  1.00  0.00     0.107 C
HETATM   14  N2  UNL     1      -4.145  12.208  21.317  1.00  0.00    -0.205 NA
HETATM   15  C20 UNL     1      -4.297  12.100  22.750  1.00  0.00     0.091 C
HETATM   16  C19 UNL     1      -5.563  12.814  23.222  1.00  0.00     0.023 C
HETATM   17  C18 UNL     1      -4.748  13.401  24.315  1.00  0.00     0.022 C
BRANCH  14  18
HETATM   18  S1  UNL     1      -3.726  10.603  20.669  1.00  0.00     0.213 S
HETATM   19  O2  UNL     1      -3.356  10.696  19.235  1.00  0.00    -0.211 OA
HETATM   20  O3  UNL     1      -2.550  10.127  21.445  1.00  0.00    -0.211 OA
BRANCH  18  21
HETATM   21  C8  UNL     1      -5.164   9.586  20.918  1.00  0.00     0.177 C
BRANCH  21  22
HETATM   22  C7  UNL     1      -6.309   9.957  20.044  1.00  0.00     0.055 A
HETATM   23  C21 UNL     1      -7.065  11.213  20.329  1.00  0.00     0.021 A
HETATM   24  C22 UNL     1      -7.668   9.922  20.842  1.00  0.00     0.021 A
BRANCH  22  25
HETATM   25  C6  UNL     1      -6.496   9.403  18.697  1.00  0.00     0.230 C
HETATM   26  N1  UNL     1      -6.640   8.036  18.297  1.00  0.00    -0.344 N
HETATM   27  C2  UNL     1      -6.765   7.598  16.917  1.00  0.00     0.086 C
HETATM   28  C5  UNL     1      -6.812   6.889  19.167  1.00  0.00     0.163 C
HETATM   29  C1  UNL     1      -5.422   7.384  16.311  1.00  0.00     0.032 C
HETATM   30  C3  UNL     1      -7.461   6.250  17.005  1.00  0.00     0.064 C
HETATM   31  C4  UNL     1      -6.983   5.688  18.305  1.00  0.00     0.190 C
HETATM   32  F1  UNL     1      -5.826   4.972  18.247  1.00  0.00    -0.248 F
HETATM   33  O1  UNL     1      -6.559  10.270  17.744  1.00  0.00    -0.272 OA
ENDBRANCH  22  25
ENDBRANCH  21  22
ENDBRANCH  18  21
ENDBRANCH  14  18
ENDBRANCH   7  10
ENDBRANCH   1   6
TORSDOF 6
ENDMDL