MODEL 1
REMARK VINA RESULT: -7.712477667      0.000      0.000
REMARK  8 active torsions:
REMARK  status: ('A' for Active; 'I' for Inactive)
REMARK    1  A    between atoms: C2_2  and  C3_3
REMARK    2  A    between atoms: C2_2  and  C4_5
REMARK    3  A    between atoms: C4_5  and  N1_7
REMARK       I    between atoms: N1_7  and  C6_9
REMARK    4  A    between atoms: C6_9  and  C7_11
REMARK       I    between atoms: N2_15  and  C11_16
REMARK    5  A    between atoms: C11_16  and  C12_18
REMARK    6  A    between atoms: C13_19  and  C14_20
REMARK    7  A    between atoms: C14_20  and  O4_21
REMARK    8  A    between atoms: C14_20  and  N3_23
ROOT
HETATM    1  C12 UNL     1      -5.684   9.675  18.223  1.00  0.00     0.095 C
HETATM    2  C13 UNL     1      -4.798   9.032  19.255  1.00  0.00     0.074 C
HETATM    3  C19 UNL     1      -5.081   7.570  19.228  1.00  0.00     0.018 C
HETATM    4  C20 UNL     1      -5.717   7.255  17.905  1.00  0.00    -0.007 A
HETATM    5  C21 UNL     1      -7.167   6.831  17.927  1.00  0.00     0.015 A
HETATM    6  C22 UNL     1      -7.523   8.134  17.334  1.00  0.00    -0.035 A
HETATM    7  C23 UNL     1      -8.669   8.965  17.602  1.00  0.00     0.011 A
HETATM    8  C24 UNL     1      -8.466   8.304  16.222  1.00  0.00     0.011 A
HETATM    9  C25 UNL     1      -6.093   8.576  17.263  1.00  0.00     0.012 A
ENDROOT
BRANCH   1  10
HETATM   10  C11 UNL     1      -5.088  10.845  17.564  1.00  0.00     0.226 C
HETATM   11  N2  UNL     1      -5.181  12.202  17.923  1.00  0.00    -0.338 N
HETATM   12  C7  UNL     1      -4.608  13.350  17.225  1.00  0.00     0.179 C
HETATM   13  C10 UNL     1      -5.863  12.716  19.088  1.00  0.00     0.127 C
HETATM   14  C8  UNL     1      -5.204  14.571  17.855  1.00  0.00     0.037 C
HETATM   15  C9  UNL     1      -6.370  14.087  18.656  1.00  0.00     0.022 C
HETATM   16  O3  UNL     1      -4.386  10.610  16.514  1.00  0.00    -0.273 OA
BRANCH  12  17
HETATM   17  C6  UNL     1      -3.140  13.416  17.394  1.00  0.00     0.241 C
HETATM   18  N1  UNL     1      -2.364  13.936  16.334  1.00  0.00    -0.354 N
ATOM     19  H1  UNL     1      -2.847  14.249  15.492  1.00  0.00     0.162 HD
HETATM   20  O2  UNL     1      -2.556  13.031  18.431  1.00  0.00    -0.271 OA
BRANCH  18  21
HETATM   21  C4  UNL     1      -0.921  14.051  16.378  1.00  0.00     0.090 C
HETATM   22  C5  UNL     1      -0.469  15.476  16.567  1.00  0.00     0.033 C
BRANCH  21  23
HETATM   23  C2  UNL     1      -0.393  13.597  15.018  1.00  0.00     0.065 C
HETATM   24  C1  UNL     1       0.834  14.394  14.625  1.00  0.00     0.019 C
BRANCH  23  25
HETATM   25  C3  UNL     1      -0.103  12.154  14.998  1.00  0.00     0.237 C
HETATM   26  O1  UNL     1      -0.998  11.343  15.049  1.00  0.00    -0.306 OA
ENDBRANCH  23  25
ENDBRANCH  21  23
ENDBRANCH  18  21
ENDBRANCH  12  17
ENDBRANCH   1  10
BRANCH   2  27
HETATM   27  C14 UNL     1      -4.868   9.582  20.600  1.00  0.00     0.118 C
BRANCH  27  28
HETATM   28  O4  UNL     1      -5.844   9.107  21.324  1.00  0.00    -0.349 OA
ATOM     29  H4  UNL     1      -6.314   9.764  21.825  1.00  0.00     0.219 HD
ENDBRANCH  27  28
BRANCH  27  30
HETATM   30  N3  UNL     1      -4.077  10.522  21.245  1.00  0.00    -0.361 N
HETATM   31  C15 UNL     1      -4.464  11.512  22.210  1.00  0.00     0.151 C
HETATM   32  C16 UNL     1      -3.462  11.409  23.360  1.00  0.00     0.187 C
HETATM   33  O5  UNL     1      -2.725  10.234  23.313  1.00  0.00    -0.388 OA
HETATM   34  C17 UNL     1      -1.904  10.177  22.188  1.00  0.00     0.187 C
HETATM   35  C18 UNL     1      -2.633  10.555  20.931  1.00  0.00     0.151 C
ENDBRANCH  27  30
ENDBRANCH   2  27
TORSDOF 8
ENDMDL