MODEL 5
REMARK VINA RESULT: -8.069963274      1.564      1.845
REMARK  6 active torsions:
REMARK  status: ('A' for Active; 'I' for Inactive)
REMARK    1  A    between atoms: C3_3  and  C4_4
REMARK       I    between atoms: C4_4  and  N1_6
REMARK    2  A    between atoms: N1_6  and  S1_8
REMARK    3  A    between atoms: S1_8  and  C5_11
REMARK    4  A    between atoms: C8_14  and  S2_15
REMARK    5  A    between atoms: S2_15  and  N2_18
REMARK    6  A    between atoms: N2_18  and  C10_20
ROOT
HETATM    1  C1  UNL     1      -2.084   8.983  27.231  1.00  0.00     0.012 C
HETATM    2  C2  UNL     1      -1.334   9.141  26.305  1.00  0.00    -0.108 C
HETATM    3  C3  UNL     1      -0.430   9.318  25.181  1.00  0.00     0.196 C
ENDROOT
BRANCH   3   4
HETATM    4  C4  UNL     1      -1.029  10.327  24.245  1.00  0.00     0.242 C
HETATM    5  O1  UNL     1      -1.662  11.315  24.698  1.00  0.00    -0.272 OA
HETATM    6  N1  UNL     1      -0.886  10.173  22.848  1.00  0.00    -0.249 N
ATOM      7  H1  UNL     1      -0.373   9.372  22.478  1.00  0.00     0.182 HD
BRANCH   6   8
HETATM    8  S1  UNL     1      -1.564  11.314  21.778  1.00  0.00     0.265 S
HETATM    9  O2  UNL     1      -1.417  12.735  22.248  1.00  0.00    -0.200 OA
HETATM   10  O3  UNL     1      -0.841  11.229  20.441  1.00  0.00    -0.200 OA
BRANCH   8  11
HETATM   11  C5  UNL     1      -3.275  11.019  21.537  1.00  0.00     0.080 A
HETATM   12  C6  UNL     1      -3.722   9.821  21.000  1.00  0.00     0.027 A
HETATM   13  C7  UNL     1      -5.076   9.570  20.802  1.00  0.00     0.027 A
HETATM   14  C8  UNL     1      -6.023  10.512  21.134  1.00  0.00     0.080 A
HETATM   15  C16 UNL     1      -5.568  11.697  21.666  1.00  0.00     0.027 A
HETATM   16  C17 UNL     1      -4.227  11.956  21.867  1.00  0.00     0.027 A
BRANCH  14  17
HETATM   17  S2  UNL     1      -7.757  10.261  20.891  1.00  0.00     0.264 S
HETATM   18  O4  UNL     1      -8.448  11.496  21.390  1.00  0.00    -0.200 OA
HETATM   19  O5  UNL     1      -8.143   9.041  21.718  1.00  0.00    -0.200 OA
BRANCH  17  20
HETATM   20  N2  UNL     1      -8.113   9.984  19.246  1.00  0.00    -0.276 N
HETATM   21  C9  UNL     1      -9.233  10.736  18.671  1.00  0.00     0.170 C
BRANCH  20  22
HETATM   22  C10 UNL     1      -7.390   9.079  18.441  1.00  0.00     0.046 A
HETATM   23  C11 UNL     1      -6.575   9.500  17.412  1.00  0.00     0.030 A
HETATM   24  C12 UNL     1      -5.855   8.644  16.621  1.00  0.00     0.004 A
HETATM   25  C13 UNL     1      -5.936   7.277  16.853  1.00  0.00     0.019 A
HETATM   26  C14 UNL     1      -6.740   6.842  17.872  1.00  0.00     0.013 A
HETATM   27 BR1  UNL     1      -6.859   4.963  18.200  1.00  0.00    -0.051 Br
HETATM   28  C15 UNL     1      -7.453   7.702  18.653  1.00  0.00     0.049 A
ENDBRANCH  20  22
ENDBRANCH  17  20
ENDBRANCH  14  17
ENDBRANCH   8  11
ENDBRANCH   6   8
ENDBRANCH   3   4
TORSDOF 6
ENDMDL