MODEL 3
REMARK VINA RESULT: -10.071766565      0.879      1.229
REMARK  6 active torsions:
REMARK  status: ('A' for Active; 'I' for Inactive)
REMARK       I    between atoms: C1_2  and  N1_3
REMARK    1  A    between atoms: C1_2  and  C20_30
REMARK    2  A    between atoms: N1_3  and  C2_5
REMARK    3  A    between atoms: C2_5  and  C3_6
REMARK    4  A    between atoms: C2_5  and  C9_15
REMARK    5  A    between atoms: C3_6  and  C4_7
REMARK       I    between atoms: C4_7  and  N2_9
REMARK       I    between atoms: C9_15  and  N3_17
REMARK    6  A    between atoms: N4_20  and  C12_21
ROOT
HETATM    1  C2  UNL     1      -5.310  12.013  20.620  1.00  0.00     0.185 C
ENDROOT
BRANCH   1   2
HETATM    2  N1  UNL     1      -5.210  10.588  20.279  1.00  0.00    -0.343 N
HETATM    3  C1  UNL     1      -6.257   9.968  19.594  1.00  0.00     0.252 C
HETATM    4  O1  UNL     1      -7.275  10.647  19.281  1.00  0.00    -0.268 OA
ATOM      5  H1  UNL     1      -4.381  10.055  20.541  1.00  0.00     0.163 HD
BRANCH   3   6
HETATM    6  C20 UNL     1      -6.218   8.563  19.228  1.00  0.00     0.032 A
HETATM    7  C21 UNL     1      -5.064   7.920  18.862  1.00  0.00     0.017 A
HETATM    8  C22 UNL     1      -5.077   6.565  18.520  1.00  0.00     0.001 A
HETATM    9  C23 UNL     1      -6.240   5.826  18.537  1.00  0.00     0.000 A
HETATM   10  C24 UNL     1      -7.400   6.470  18.905  1.00  0.00     0.001 A
HETATM   11  C25 UNL     1      -7.375   7.805  19.239  1.00  0.00     0.017 A
ENDBRANCH   3   6
ENDBRANCH   1   2
BRANCH   1  12
HETATM   12  C3  UNL     1      -4.051  12.719  20.155  1.00  0.00     0.138 C
BRANCH  12  13
HETATM   13  C4  UNL     1      -3.948  12.918  18.711  1.00  0.00     0.222 C
HETATM   14  O2  UNL     1      -4.892  12.730  17.907  1.00  0.00    -0.273 OA
HETATM   15  N2  UNL     1      -2.674  13.357  18.217  1.00  0.00    -0.348 N
HETATM   16  C5  UNL     1      -1.548  13.590  19.094  1.00  0.00     0.152 C
HETATM   17  C8  UNL     1      -2.509  13.569  16.824  1.00  0.00     0.152 C
HETATM   18  C6  UNL     1      -0.825  14.797  18.522  1.00  0.00     0.187 C
HETATM   19  O3  UNL     1      -0.288  14.410  17.315  1.00  0.00    -0.388 OA
HETATM   20  C7  UNL     1      -1.185  14.014  16.371  1.00  0.00     0.187 C
ENDBRANCH  12  13
ENDBRANCH   1  12
BRANCH   1  21
HETATM   21  C9  UNL     1      -5.544  12.156  22.065  1.00  0.00     0.243 C
HETATM   22  O4  UNL     1      -6.741  12.008  22.497  1.00  0.00    -0.271 OA
HETATM   23  N3  UNL     1      -4.530  12.449  22.994  1.00  0.00    -0.347 N
HETATM   24  C10 UNL     1      -3.142  12.704  22.690  1.00  0.00     0.145 C
HETATM   25  C19 UNL     1      -4.918  12.500  24.423  1.00  0.00     0.145 C
HETATM   26  C11 UNL     1      -2.311  11.629  23.374  1.00  0.00     0.143 C
HETATM   27  N4  UNL     1      -2.734  11.525  24.764  1.00  0.00    -0.378 N
HETATM   28  C18 UNL     1      -3.643  12.529  25.235  1.00  0.00     0.143 C
BRANCH  27  29
HETATM   29  C12 UNL     1      -2.230  10.462  25.554  1.00  0.00     0.030 A
HETATM   30  C13 UNL     1      -1.087   9.761  25.134  1.00  0.00     0.032 A
HETATM   31  C14 UNL     1      -0.547   8.722  25.850  1.00  0.00     0.044 A
HETATM   32  C15 UNL     1      -1.108   8.310  27.038  1.00  0.00     0.116 A
HETATM   33  F1  UNL     1      -0.571   7.275  27.753  1.00  0.00    -0.206 F
HETATM   34  C16 UNL     1      -2.227   8.980  27.470  1.00  0.00     0.044 A
HETATM   35  C17 UNL     1      -2.775  10.035  26.743  1.00  0.00     0.032 A
ENDBRANCH  27  29
ENDBRANCH   1  21
TORSDOF 6
ENDMDL