MODEL 3
REMARK VINA RESULT: -8.475647629      2.300      6.574
REMARK  6 active torsions:
REMARK  status: ('A' for Active; 'I' for Inactive)
REMARK    1  A    between atoms: C1_2  and  C2_3
REMARK       I    between atoms: C1_2  and  N3_25
REMARK    2  A    between atoms: C2_3  and  C3_4
REMARK    3  A    between atoms: N1_6  and  C5_7
REMARK    4  A    between atoms: C5_7  and  C6_8
REMARK       I    between atoms: C6_8  and  N2_10
REMARK    5  A    between atoms: C11_19  and  C12_20
REMARK    6  A    between atoms: N3_25  and  C17_27
ROOT
HETATM    1  C3  UNL     1      -3.187  11.120  22.176  1.00  0.00     0.029 C
HETATM    2  C4  UNL     1      -2.683  10.840  20.796  1.00  0.00     0.114 C
HETATM    3  N1  UNL     1      -1.667  11.778  20.410  1.00  0.00    -0.201 NA
HETATM    4  S1  UNL     1      -0.851  12.092  21.892  1.00  0.00     0.217 S
HETATM    5  O4  UNL     1      -0.329  13.491  21.968  1.00  0.00    -0.211 OA
HETATM    6  O5  UNL     1       0.184  11.064  22.117  1.00  0.00    -0.211 OA
HETATM    7  C11 UNL     1      -2.273  11.944  22.944  1.00  0.00     0.134 C
ENDROOT
BRANCH   1   8
HETATM    8  C2  UNL     1      -4.606  11.626  22.023  1.00  0.00     0.110 C
BRANCH   8   9
HETATM    9  C1  UNL     1      -5.244  10.902  20.863  1.00  0.00     0.218 C
HETATM   10  O1  UNL     1      -5.536  11.488  19.791  1.00  0.00    -0.274 OA
HETATM   11  N3  UNL     1      -5.532   9.528  20.953  1.00  0.00    -0.356 N
ATOM     12  H3  UNL     1      -5.308   9.022  21.810  1.00  0.00     0.162 HD
BRANCH  11  13
HETATM   13  C17 UNL     1      -6.138   8.831  19.859  1.00  0.00     0.084 C
HETATM   14  C18 UNL     1      -7.310   7.982  20.242  1.00  0.00     0.025 C
HETATM   15  C19 UNL     1      -7.473   6.913  19.183  1.00  0.00     0.002 C
HETATM   16  C20 UNL     1      -7.033   7.405  17.812  1.00  0.00     0.000 C
HETATM   17  C21 UNL     1      -5.555   7.720  17.774  1.00  0.00     0.002 C
HETATM   18  C22 UNL     1      -5.106   7.898  19.213  1.00  0.00     0.025 C
ENDBRANCH  11  13
ENDBRANCH   8   9
ENDBRANCH   1   8
BRANCH   7  19
HETATM   19  C12 UNL     1      -1.833  11.550  24.301  1.00  0.00     0.006 C
HETATM   20  C13 UNL     1      -2.802  11.896  25.395  1.00  0.00     0.006 C
HETATM   21  C14 UNL     1      -3.188  10.540  26.015  1.00  0.00     0.000 C
HETATM   22  C15 UNL     1      -1.819   9.859  25.940  1.00  0.00     0.000 C
HETATM   23  C16 UNL     1      -1.449  10.139  24.499  1.00  0.00     0.006 C
ENDBRANCH   7  19
BRANCH   3  24
HETATM   24  C5  UNL     1      -2.188  13.002  19.860  1.00  0.00     0.210 C
BRANCH  24  25
HETATM   25  C6  UNL     1      -1.480  13.311  18.606  1.00  0.00     0.234 C
HETATM   26  O2  UNL     1      -0.269  12.926  18.500  1.00  0.00    -0.272 OA
HETATM   27  N2  UNL     1      -2.067  14.005  17.525  1.00  0.00    -0.347 N
HETATM   28  C7  UNL     1      -3.428  14.448  17.620  1.00  0.00     0.152 C
HETATM   29  C10 UNL     1      -1.320  14.273  16.333  1.00  0.00     0.152 C
HETATM   30  C8  UNL     1      -4.108  14.125  16.305  1.00  0.00     0.187 C
HETATM   31  O3  UNL     1      -3.379  14.769  15.306  1.00  0.00    -0.388 OA
HETATM   32  C9  UNL     1      -2.176  14.094  15.110  1.00  0.00     0.187 C
ENDBRANCH  24  25
ENDBRANCH   3  24
TORSDOF 6
ENDMDL