MODEL 1
REMARK VINA RESULT: -8.097868064      0.000      0.000
REMARK  10 active torsions:
REMARK  status: ('A' for Active; 'I' for Inactive)
REMARK    1  A    between atoms: O1_2  and  C2_3
REMARK    2  A    between atoms: C2_3  and  C3_5
REMARK    3  A    between atoms: C3_5  and  C4_6
REMARK    4  A    between atoms: C3_5  and  N1_13
REMARK    5  A    between atoms: C4_6  and  C5_7
REMARK    6  A    between atoms: N1_13  and  C11_15
REMARK    7  A    between atoms: C11_15  and  O3_16
REMARK    8  A    between atoms: C11_15  and  C12_18
REMARK    9  A    between atoms: C14_20  and  S1_21
REMARK   10  A    between atoms: S1_21  and  N2_24
ROOT
HETATM    1  C11 UNL     1      -3.176  10.105  21.470  1.00  0.00     0.148 C
ENDROOT
BRANCH   1   2
HETATM    2  N1  UNL     1      -1.815  10.013  21.724  1.00  0.00    -0.356 N
ATOM      3  H1  UNL     1      -1.230   9.361  21.201  1.00  0.00     0.162 HD
BRANCH   2   4
HETATM    4  C3  UNL     1      -1.230  10.886  22.775  1.00  0.00     0.187 C
BRANCH   4   5
HETATM    5  C2  UNL     1      -0.412  11.937  22.183  1.00  0.00     0.281 C
HETATM    6  O2  UNL     1      -0.162  11.852  20.926  1.00  0.00    -0.263 OA
BRANCH   5   7
HETATM    7  O1  UNL     1       0.131  13.019  22.808  1.00  0.00    -0.325 OA
HETATM    8  C1  UNL     1       0.867  14.026  22.145  1.00  0.00     0.213 C
ENDBRANCH   5   7
ENDBRANCH   4   5
BRANCH   4   9
HETATM    9  C4  UNL     1      -0.511   9.939  23.696  1.00  0.00     0.074 C
BRANCH   9  10
HETATM   10  C5  UNL     1      -1.128   9.709  24.992  1.00  0.00    -0.056 A
HETATM   11  C6  UNL     1      -2.195  10.470  25.396  1.00  0.00     0.007 A
HETATM   12  C7  UNL     1      -2.828  10.298  26.617  1.00  0.00     0.001 A
HETATM   13  C8  UNL     1      -2.346   9.310  27.452  1.00  0.00     0.000 A
HETATM   14  C9  UNL     1      -1.269   8.531  27.062  1.00  0.00     0.001 A
HETATM   15  C10 UNL     1      -0.663   8.729  25.840  1.00  0.00     0.007 A
ENDBRANCH   9  10
ENDBRANCH   4   9
ENDBRANCH   2   4
ENDBRANCH   1   2
BRANCH   1  16
HETATM   16  O3  UNL     1      -3.924  10.143  22.545  1.00  0.00    -0.346 OA
ATOM     17  H3  UNL     1      -4.839  10.338  22.378  1.00  0.00     0.219 HD
ENDBRANCH   1  16
BRANCH   1  18
HETATM   18  C12 UNL     1      -3.906  10.169  20.224  1.00  0.00     0.033 A
HETATM   19  C13 UNL     1      -4.454   8.976  19.693  1.00  0.00     0.042 A
HETATM   20  C14 UNL     1      -5.190   8.998  18.542  1.00  0.00     0.075 A
HETATM   21  C17 UNL     1      -5.428  10.164  17.859  1.00  0.00     0.026 A
HETATM   22  C18 UNL     1      -4.918  11.338  18.335  1.00  0.00     0.021 A
HETATM   23  C19 UNL     1      -4.164  11.301  19.518  1.00  0.00     0.025 A
HETATM   24 BR1  UNL     1      -3.439  12.969  20.061  1.00  0.00    -0.050 Br
BRANCH  20  25
HETATM   25  S1  UNL     1      -5.831   7.482  17.951  1.00  0.00     0.243 S
HETATM   26  O4  UNL     1      -5.022   6.377  18.528  1.00  0.00    -0.206 OA
HETATM   27  O5  UNL     1      -5.684   7.396  16.439  1.00  0.00    -0.206 OA
BRANCH  25  28
HETATM   28  N2  UNL     1      -7.468   7.346  18.438  1.00  0.00    -0.215 NA
HETATM   29  C15 UNL     1      -7.635   7.893  19.758  1.00  0.00     0.129 C
HETATM   30  C16 UNL     1      -8.286   8.023  17.441  1.00  0.00     0.129 C
ENDBRANCH  25  28
ENDBRANCH  20  25
ENDBRANCH   1  18
TORSDOF 10
ENDMDL