MODEL 3
REMARK VINA RESULT: -8.460565446      1.898      2.193
REMARK  10 active torsions:
REMARK  status: ('A' for Active; 'I' for Inactive)
REMARK    1  A    between atoms: N1_2  and  C2_3
REMARK    2  A    between atoms: N1_2  and  C9_11
REMARK    3  A    between atoms: C2_3  and  C3_4
REMARK    4  A    between atoms: C9_11  and  O1_12
REMARK    5  A    between atoms: C9_11  and  C10_14
REMARK    6  A    between atoms: C13_17  and  S1_18
REMARK    7  A    between atoms: S1_18  and  C14_21
REMARK    8  A    between atoms: C17_24  and  S2_25
REMARK    9  A    between atoms: S2_25  and  N2_26
REMARK   10  A    between atoms: N3_34  and  O6_35
ROOT
HETATM    1  C10 UNL     1      -4.440  10.798  19.388  1.00  0.00     0.112 A
HETATM    2  C11 UNL     1      -3.992   9.881  20.300  1.00  0.00     0.038 A
HETATM    3  C12 UNL     1      -2.990  10.206  21.226  1.00  0.00     0.028 A
HETATM    4  C13 UNL     1      -2.423  11.452  21.248  1.00  0.00     0.082 A
HETATM    5  C20 UNL     1      -2.886  12.356  20.323  1.00  0.00     0.147 A
HETATM    6  N3  UNL     1      -3.842  12.041  19.445  1.00  0.00    -0.230 N
ENDROOT
BRANCH   4   7
HETATM    7  S1  UNL     1      -1.170  11.891  22.387  1.00  0.00     0.208 S
HETATM    8  O2  UNL     1       0.172  11.574  21.781  1.00  0.00    -0.217 OA
HETATM    9  O3  UNL     1      -1.285  13.367  22.688  1.00  0.00    -0.217 OA
BRANCH   7  10
HETATM   10  C14 UNL     1      -1.390  10.945  23.825  1.00  0.00     0.064 A
HETATM   11  C15 UNL     1      -0.555   9.890  24.079  1.00  0.00     0.025 A
HETATM   12  C16 UNL     1      -0.688   9.108  25.207  1.00  0.00     0.027 A
HETATM   13  C17 UNL     1      -1.703   9.425  26.086  1.00  0.00     0.079 A
HETATM   14  C18 UNL     1      -2.537  10.488  25.825  1.00  0.00     0.027 A
HETATM   15  C19 UNL     1      -2.394  11.256  24.700  1.00  0.00     0.025 A
BRANCH  13  16
HETATM   16  S2  UNL     1      -1.952   8.484  27.557  1.00  0.00     0.256 S
HETATM   17  O4  UNL     1      -2.480   7.135  27.145  1.00  0.00    -0.201 OA
HETATM   18  O5  UNL     1      -0.655   8.364  28.284  1.00  0.00    -0.201 OA
BRANCH  16  19
HETATM   19  N2  UNL     1      -3.114   9.327  28.515  1.00  0.00    -0.324 N
ATOM     20  H22 UNL     1      -4.027   9.647  28.194  1.00  0.00     0.169 HD
ATOM     21  H21 UNL     1      -2.713   9.440  29.446  1.00  0.00     0.169 HD
ENDBRANCH  16  19
ENDBRANCH  13  16
ENDBRANCH   7  10
ENDBRANCH   4   7
BRANCH   6  22
HETATM   22  O6  UNL     1      -4.278  12.975  18.535  1.00  0.00    -0.283 OA
ATOM     23  H6  UNL     1      -4.956  13.572  18.831  1.00  0.00     0.245 HD
ENDBRANCH   6  22
BRANCH   1  24
HETATM   24  C9  UNL     1      -5.466  10.562  18.417  1.00  0.00     0.168 C
BRANCH  24  25
HETATM   25  N1  UNL     1      -6.858  10.561  18.475  1.00  0.00    -0.360 N
HETATM   26  C1  UNL     1      -7.572  11.670  17.717  1.00  0.00     0.152 C
BRANCH  25  27
HETATM   27  C2  UNL     1      -7.792   9.704  19.136  1.00  0.00     0.163 C
BRANCH  27  28
HETATM   28  C3  UNL     1      -7.697   8.312  18.571  1.00  0.00    -0.040 A
HETATM   29  C4  UNL     1      -7.133   7.305  19.322  1.00  0.00     0.012 A
HETATM   30  C5  UNL     1      -7.055   6.041  18.793  1.00  0.00     0.043 A
HETATM   31  C6  UNL     1      -7.528   5.787  17.540  1.00  0.00     0.116 A
HETATM   32  F1  UNL     1      -7.471   4.544  16.969  1.00  0.00    -0.206 F
HETATM   33  C7  UNL     1      -8.092   6.777  16.779  1.00  0.00     0.043 A
HETATM   34  C8  UNL     1      -8.178   8.050  17.294  1.00  0.00     0.012 A
ENDBRANCH  27  28
ENDBRANCH  25  27
ENDBRANCH  24  25
BRANCH  24  35
HETATM   35  O1  UNL     1      -5.017  10.283  17.209  1.00  0.00    -0.344 OA
ATOM     36  H1  UNL     1      -4.224  10.762  17.001  1.00  0.00     0.219 HD
ENDBRANCH  24  35
ENDBRANCH   1  24
TORSDOF 10
ENDMDL