MODEL 4
REMARK VINA RESULT: -10.208576206      3.375      4.047
REMARK  6 active torsions:
REMARK  status: ('A' for Active; 'I' for Inactive)
REMARK    1  A    between atoms: C2_2  and  C3_3
REMARK       I    between atoms: C3_3  and  N1_5
REMARK    2  A    between atoms: N2_8  and  S1_9
REMARK    3  A    between atoms: S1_9  and  C6_12
REMARK    4  A    between atoms: C10_16  and  N3_17
REMARK       I    between atoms: N3_17  and  C11_18
REMARK    5  A    between atoms: C11_18  and  C12_20
REMARK    6  A    between atoms: C14_23  and  C15_24
ROOT
HETATM    1  C12 UNL     1      -8.295   9.634  20.845  1.00  0.00     0.127 C
HETATM    2  C13 UNL     1      -8.145  10.159  19.523  1.00  0.00     0.106 C
HETATM    3  N4  UNL     1      -8.028  10.596  18.473  1.00  0.00    -0.191 NA
HETATM    4  C14 UNL     1      -7.734   8.494  21.138  1.00  0.00     0.044 C
ENDROOT
BRANCH   1   5
HETATM    5  C11 UNL     1      -9.084  10.453  21.821  1.00  0.00     0.337 C
HETATM    6  N3  UNL     1      -8.596  11.461  22.477  1.00  0.00    -0.366 NA
HETATM    7  O4  UNL     1     -10.292  10.004  21.898  1.00  0.00    -0.250 OA
BRANCH   6   8
HETATM    8  C10 UNL     1      -8.066  12.556  23.190  1.00  0.00     0.112 A
HETATM    9  C9  UNL     1      -8.869  13.527  23.785  1.00  0.00     0.045 A
HETATM   10  C8  UNL     1      -8.338  14.591  24.493  1.00  0.00     0.005 A
HETATM   11  C7  UNL     1      -6.939  14.684  24.617  1.00  0.00     0.025 A
HETATM   12  C6  UNL     1      -6.128  13.755  24.054  1.00  0.00     0.083 A
HETATM   13  C21 UNL     1      -6.704  12.714  23.353  1.00  0.00     0.070 A
BRANCH  12  14
HETATM   14  S1  UNL     1      -4.408  13.800  24.136  1.00  0.00     0.264 S
HETATM   15  O2  UNL     1      -3.904  14.686  23.012  1.00  0.00    -0.200 OA
HETATM   16  O3  UNL     1      -4.083  14.664  25.395  1.00  0.00    -0.200 OA
BRANCH  14  17
HETATM   17  N2  UNL     1      -3.547  12.401  24.314  1.00  0.00    -0.283 N
HETATM   18  C5  UNL     1      -3.208  12.090  25.670  1.00  0.00     0.160 C
HETATM   19  C4  UNL     1      -3.217  10.523  25.771  1.00  0.00     0.147 C
HETATM   20  N1  UNL     1      -2.036  10.183  24.977  1.00  0.00    -0.342 N
HETATM   21  C3  UNL     1      -0.910   9.496  25.455  1.00  0.00     0.242 C
HETATM   22  C23 UNL     1      -2.090  10.624  23.590  1.00  0.00     0.171 C
HETATM   23  O1  UNL     1       0.049   9.271  24.633  1.00  0.00    -0.268 OA
HETATM   24  C22 UNL     1      -2.500  12.079  23.428  1.00  0.00     0.096 C
BRANCH  21  25
HETATM   25  C2  UNL     1      -0.808   9.046  26.824  1.00  0.00     0.064 C
HETATM   26  C1  UNL     1      -1.034   7.769  27.094  1.00  0.00     0.017 C
ENDBRANCH  21  25
ENDBRANCH  14  17
ENDBRANCH  12  14
ENDBRANCH   6   8
ENDBRANCH   1   5
BRANCH   4  27
HETATM   27  C15 UNL     1      -6.993   7.811  20.067  1.00  0.00     0.004 A
HETATM   28  C16 UNL     1      -7.564   6.926  19.208  1.00  0.00     0.014 A
HETATM   29  C17 UNL     1      -6.849   6.390  18.146  1.00  0.00     0.001 A
HETATM   30  C18 UNL     1      -5.528   6.732  17.920  1.00  0.00     0.003 A
HETATM   31  C19 UNL     1      -4.951   7.639  18.811  1.00  0.00     0.043 A
HETATM   32  C20 UNL     1      -5.679   8.170  19.872  1.00  0.00     0.126 A
HETATM   33  F1  UNL     1      -5.027   9.059  20.679  1.00  0.00    -0.205 F
ENDBRANCH   4  27
TORSDOF 6
ENDMDL