MODEL 2
REMARK VINA RESULT: -8.464637053      0.931      1.333
REMARK  7 active torsions:
REMARK  status: ('A' for Active; 'I' for Inactive)
REMARK    1  A    between atoms: C4_4  and  C5_5
REMARK       I    between atoms: C5_5  and  N1_7
REMARK    2  A    between atoms: C9_11  and  C10_12
REMARK       I    between atoms: C10_12  and  N2_14
REMARK    3  A    between atoms: C13_17  and  C14_19
REMARK    4  A    between atoms: C14_19  and  O4_21
REMARK    5  A    between atoms: O4_21  and  C15_22
REMARK    6  A    between atoms: C15_22  and  C16_23
REMARK    7  A    between atoms: C16_23  and  N3_24
ROOT
HETATM    1  C10 UNL     1      -4.811  12.279  21.345  1.00  0.00     0.225 C
HETATM    2  O2  UNL     1      -5.056  11.784  22.507  1.00  0.00    -0.273 OA
HETATM    3  N2  UNL     1      -3.895  13.351  21.226  1.00  0.00    -0.352 N
HETATM    4  C11 UNL     1      -3.613  13.907  19.928  1.00  0.00     0.129 C
HETATM    5  C12 UNL     1      -2.219  14.479  19.853  1.00  0.00     0.074 C
HETATM    6  C13 UNL     1      -1.283  13.856  20.851  1.00  0.00     0.193 C
HETATM    7  F1  UNL     1      -0.088  14.546  20.818  1.00  0.00    -0.232 F
HETATM    8  C22 UNL     1      -1.784  13.800  22.240  1.00  0.00     0.074 C
HETATM    9  C23 UNL     1      -3.261  13.866  22.431  1.00  0.00     0.129 C
ENDROOT
BRANCH   1  10
HETATM   10  C9  UNL     1      -5.470  11.752  20.136  1.00  0.00     0.096 C
HETATM   11  C8  UNL     1      -4.490  10.724  19.536  1.00  0.00     0.017 C
HETATM   12  C7  UNL     1      -4.899  10.616  18.075  1.00  0.00     0.021 C
HETATM   13  C6  UNL     1      -6.346  10.150  18.078  1.00  0.00     0.126 C
HETATM   14  N1  UNL     1      -6.828   9.914  19.408  1.00  0.00    -0.348 N
HETATM   15  C5  UNL     1      -7.390   8.684  19.836  1.00  0.00     0.243 C
HETATM   16  C24 UNL     1      -6.743  11.011  20.396  1.00  0.00     0.140 C
HETATM   17  O1  UNL     1      -7.795   8.550  21.038  1.00  0.00    -0.268 OA
BRANCH  15  18
HETATM   18  C4  UNL     1      -7.540   7.532  18.969  1.00  0.00     0.076 C
HETATM   19  C2  UNL     1      -6.557   6.757  18.556  1.00  0.00    -0.082 C
HETATM   20  C1  UNL     1      -6.874   5.583  17.648  1.00  0.00     0.043 C
HETATM   21  C3  UNL     1      -5.151   7.005  18.958  1.00  0.00     0.043 C
ENDBRANCH  15  18
ENDBRANCH   1  10
BRANCH   6  22
HETATM   22  C14 UNL     1      -0.951  12.458  20.403  1.00  0.00     0.299 C
HETATM   23  O3  UNL     1      -0.222  12.288  19.403  1.00  0.00    -0.261 OA
BRANCH  22  24
HETATM   24  O4  UNL     1      -1.423  11.350  21.057  1.00  0.00    -0.317 OA
BRANCH  24  25
HETATM   25  C15 UNL     1      -0.877  10.825  22.256  1.00  0.00     0.198 C
BRANCH  25  26
HETATM   26  C16 UNL     1      -2.054  10.272  23.049  1.00  0.00     0.152 C
BRANCH  26  27
HETATM   27  N3  UNL     1      -1.681  10.027  24.425  1.00  0.00    -0.350 N
HETATM   28  C17 UNL     1      -0.400   9.507  24.833  1.00  0.00     0.126 C
HETATM   29  C18 UNL     1      -0.512   8.443  25.887  1.00  0.00     0.020 C
HETATM   30  C19 UNL     1      -1.556   8.705  26.921  1.00  0.00     0.011 C
HETATM   31  C20 UNL     1      -2.068  10.147  26.864  1.00  0.00     0.103 C
HETATM   32  C21 UNL     1      -2.617  10.307  25.476  1.00  0.00     0.219 C
HETATM   33  O5  UNL     1      -3.788  10.654  25.272  1.00  0.00    -0.273 OA
ENDBRANCH  26  27
ENDBRANCH  25  26
ENDBRANCH  24  25
ENDBRANCH  22  24
ENDBRANCH   6  22
TORSDOF 7
ENDMDL