MODEL 1
REMARK VINA RESULT: -9.517064996      0.000      0.000
REMARK  9 active torsions:
REMARK  status: ('A' for Active; 'I' for Inactive)
REMARK    1  A    between atoms: C1_2  and  O2_3
REMARK    2  A    between atoms: C1_2  and  C20_30
REMARK    3  A    between atoms: O2_3  and  C2_4
REMARK    4  A    between atoms: C2_4  and  C3_5
REMARK    5  A    between atoms: C2_4  and  C14_24
REMARK    6  A    between atoms: C3_5  and  O3_6
REMARK    7  A    between atoms: C3_5  and  N1_8
REMARK    8  A    between atoms: N2_11  and  S1_12
REMARK    9  A    between atoms: S1_12  and  C6_15
ROOT
HETATM    1  C3  UNL     1      -5.222   9.964  19.529  1.00  0.00     0.148 C
ENDROOT
BRANCH   1   2
HETATM    2  C2  UNL     1      -6.290   9.143  20.124  1.00  0.00     0.239 C
BRANCH   2   3
HETATM    3  O2  UNL     1      -7.520   9.811  20.063  1.00  0.00    -0.301 OA
BRANCH   3   4
HETATM    4  C1  UNL     1      -8.139  10.202  21.239  1.00  0.00     0.291 C
HETATM    5  O1  UNL     1      -8.841   9.379  21.859  1.00  0.00    -0.263 OA
BRANCH   4   6
HETATM    6  C20 UNL     1      -7.971  11.557  21.740  1.00  0.00     0.286 C
HETATM    7  C21 UNL     1      -8.927  11.956  22.864  1.00  0.00     0.071 C
HETATM    8  C22 UNL     1      -7.724  12.806  23.294  1.00  0.00     0.236 C
HETATM    9  N3  UNL     1      -6.892  11.769  22.663  1.00  0.00    -0.062 N
ATOM     10  H32 UNL     1      -6.505  10.998  23.208  1.00  0.00     0.278 HD
ATOM     11  H31 UNL     1      -5.949  11.977  22.334  1.00  0.00     0.278 HD
ENDBRANCH   4   6
ENDBRANCH   3   4
ENDBRANCH   2   3
BRANCH   2  12
HETATM   12  C14 UNL     1      -6.335   7.889  19.278  1.00  0.00    -0.021 A
HETATM   13  C15 UNL     1      -7.542   7.476  18.766  1.00  0.00     0.010 A
HETATM   14  C16 UNL     1      -7.649   6.340  17.988  1.00  0.00     0.001 A
HETATM   15  C17 UNL     1      -6.511   5.617  17.728  1.00  0.00     0.000 A
HETATM   16  C18 UNL     1      -5.281   6.034  18.247  1.00  0.00     0.001 A
HETATM   17  C19 UNL     1      -5.187   7.185  19.033  1.00  0.00     0.010 A
ENDBRANCH   2  12
ENDBRANCH   1   2
BRANCH   1  18
HETATM   18  O3  UNL     1      -5.221  10.123  18.238  1.00  0.00    -0.347 OA
ATOM     19  H3  UNL     1      -4.520  10.637  17.852  1.00  0.00     0.219 HD
ENDBRANCH   1  18
BRANCH   1  20
HETATM   20  N1  UNL     1      -4.192  10.605  20.202  1.00  0.00    -0.361 N
HETATM   21  C4  UNL     1      -3.655  11.904  19.939  1.00  0.00     0.140 C
HETATM   22  C5  UNL     1      -2.374  12.165  20.707  1.00  0.00     0.127 C
HETATM   23  N2  UNL     1      -2.491  11.912  22.108  1.00  0.00    -0.203 NA
HETATM   24  C12 UNL     1      -3.483  10.924  22.446  1.00  0.00     0.127 C
HETATM   25  C13 UNL     1      -3.538   9.898  21.334  1.00  0.00     0.140 C
BRANCH  23  26
HETATM   26  S1  UNL     1      -0.990  11.433  22.804  1.00  0.00     0.243 S
HETATM   27  O4  UNL     1      -0.118  12.639  23.095  1.00  0.00    -0.206 OA
HETATM   28  O5  UNL     1      -0.208  10.552  21.890  1.00  0.00    -0.206 OA
BRANCH  26  29
HETATM   29  C6  UNL     1      -1.293  10.621  24.341  1.00  0.00     0.074 A
HETATM   30  C7  UNL     1      -2.271  11.028  25.213  1.00  0.00     0.028 A
HETATM   31  C8  UNL     1      -2.509  10.388  26.421  1.00  0.00     0.044 A
HETATM   32  C9  UNL     1      -1.742   9.308  26.766  1.00  0.00     0.116 A
HETATM   33  F1  UNL     1      -1.965   8.664  27.958  1.00  0.00    -0.206 F
HETATM   34  C10 UNL     1      -0.755   8.883  25.906  1.00  0.00     0.044 A
HETATM   35  C11 UNL     1      -0.527   9.525  24.708  1.00  0.00     0.028 A
ENDBRANCH  26  29
ENDBRANCH  23  26
ENDBRANCH   1  20
TORSDOF 9
ENDMDL