MODEL 5
REMARK VINA RESULT: -7.942346578      1.958      2.159
REMARK  6 active torsions:
REMARK  status: ('A' for Active; 'I' for Inactive)
REMARK    1  A    between atoms: N1_2  and  C2_3
REMARK    2  A    between atoms: N1_2  and  S2_18
REMARK    3  A    between atoms: C2_3  and  C3_4
REMARK       I    between atoms: C3_4  and  N2_6
REMARK    4  A    between atoms: N2_6  and  C4_8
REMARK    5  A    between atoms: C7_11  and  S1_12
REMARK    6  A    between atoms: S2_18  and  C11_21
ROOT
HETATM    1  C3  UNL     1      -6.348  11.693  21.711  1.00  0.00     0.240 C
HETATM    2  O1  UNL     1      -7.360  11.984  21.032  1.00  0.00    -0.271 OA
HETATM    3  N2  UNL     1      -5.679  10.478  21.549  1.00  0.00    -0.326 N
ATOM      4  H2  UNL     1      -4.869  10.338  22.153  1.00  0.00     0.169 HD
ENDROOT
BRANCH   1   5
HETATM    5  C2  UNL     1      -5.885  12.716  22.715  1.00  0.00     0.237 C
BRANCH   5   6
HETATM    6  N1  UNL     1      -4.757  13.463  22.269  1.00  0.00    -0.302 N
HETATM    7  C1  UNL     1      -5.009  14.472  21.295  1.00  0.00     0.163 C
BRANCH   6   8
HETATM    8  S2  UNL     1      -3.704  13.904  23.527  1.00  0.00     0.260 S
HETATM    9  O4  UNL     1      -2.550  14.689  22.918  1.00  0.00    -0.200 OA
HETATM   10  O5  UNL     1      -4.375  14.760  24.543  1.00  0.00    -0.200 OA
BRANCH   8  11
HETATM   11  C11 UNL     1      -2.942  12.497  24.276  1.00  0.00     0.079 A
HETATM   12  C12 UNL     1      -3.433  11.953  25.444  1.00  0.00     0.026 A
HETATM   13  C13 UNL     1      -2.853  10.852  26.048  1.00  0.00     0.020 A
HETATM   14  C14 UNL     1      -1.745  10.257  25.482  1.00  0.00     0.011 A
HETATM   15 BR1  UNL     1      -0.928   8.734  26.298  1.00  0.00    -0.051 Br
HETATM   16  C15 UNL     1      -1.245  10.794  24.309  1.00  0.00     0.020 A
HETATM   17  C16 UNL     1      -1.836  11.906  23.705  1.00  0.00     0.026 A
ENDBRANCH   8  11
ENDBRANCH   6   8
ENDBRANCH   5   6
ENDBRANCH   1   5
BRANCH   3  18
HETATM   18  C4  UNL     1      -5.968   9.427  20.671  1.00  0.00     0.034 A
HETATM   19  C5  UNL     1      -7.141   8.729  20.636  1.00  0.00     0.031 A
HETATM   20  C6  UNL     1      -7.383   7.669  19.743  1.00  0.00     0.025 A
HETATM   21  C7  UNL     1      -6.409   7.305  18.860  1.00  0.00     0.059 A
HETATM   22  C9  UNL     1      -5.212   7.980  18.860  1.00  0.00     0.025 A
HETATM   23  C10 UNL     1      -4.996   9.014  19.742  1.00  0.00     0.031 A
BRANCH  21  24
HETATM   24  S1  UNL     1      -6.648   6.005  17.734  1.00  0.00     0.171 S
HETATM   25  C8  UNL     1      -8.118   6.292  16.756  1.00  0.00     0.167 C
HETATM   26  O2  UNL     1      -5.443   5.955  16.811  1.00  0.00    -0.223 OA
HETATM   27  O3  UNL     1      -6.725   4.671  18.406  1.00  0.00    -0.223 OA
ENDBRANCH  21  24
ENDBRANCH   3  18
TORSDOF 6
ENDMDL