MODEL 3
REMARK VINA RESULT: -6.663412265      2.614      3.753
REMARK  7 active torsions:
REMARK  status: ('A' for Active; 'I' for Inactive)
REMARK    1  A    between atoms: N1_2  and  C2_4
REMARK    2  A    between atoms: C4_6  and  C5_7
REMARK    3  A    between atoms: C9_13  and  N3_14
REMARK       I    between atoms: N3_14  and  C10_16
REMARK    4  A    between atoms: C10_16  and  C11_18
REMARK    5  A    between atoms: C11_18  and  C12_19
REMARK    6  A    between atoms: C11_18  and  C14_22
REMARK    7  A    between atoms: C14_22  and  C15_24
ROOT
HETATM    1  C2  UNL     1       5.985   1.491  20.986  1.00  0.00     0.118 A
HETATM    2  C3  UNL     1       6.684   0.941  19.933  1.00  0.00     0.075 A
HETATM    3  C4  UNL     1       7.597   1.731  19.273  1.00  0.00     0.037 A
HETATM    4  N2  UNL     1       7.788   2.999  19.660  1.00  0.00    -0.194 N
ATOM      5  H2  UNL     1       8.466   3.584  19.170  1.00  0.00     0.184 HD
HETATM    6  C9  UNL     1       7.091   3.502  20.687  1.00  0.00     0.686 A
HETATM    7  N4  UNL     1       6.196   2.764  21.351  1.00  0.00    -0.177 N
ATOM      8  H4  UNL     1       5.676   3.167  22.130  1.00  0.00     0.186 HD
ENDROOT
BRANCH   6   9
HETATM    9  N3  UNL     1       7.328   4.744  21.014  1.00  0.00    -0.158 N
HETATM   10  C10 UNL     1       6.274   5.705  20.978  1.00  0.00     0.254 C
HETATM   11  O1  UNL     1       5.395   5.720  21.862  1.00  0.00    -0.271 OA
ATOM     12  H3  UNL     1       8.266   5.026  21.294  1.00  0.00     0.187 HD
BRANCH  10  13
HETATM   13  C11 UNL     1       6.320   6.663  19.818  1.00  0.00     0.219 C
BRANCH  13  14
HETATM   14  C12 UNL     1       7.364   7.636  20.122  1.00  0.00     0.143 C
HETATM   15  C13 UNL     1       7.693   8.835  19.341  1.00  0.00     0.092 C
HETATM   16  O2  UNL     1       8.053   7.445  21.139  1.00  0.00    -0.297 OA
ENDBRANCH  13  14
BRANCH  13  17
HETATM   17  C14 UNL     1       6.533   5.869  18.578  1.00  0.00     0.176 C
HETATM   18  O3  UNL     1       7.679   5.569  18.275  1.00  0.00    -0.294 OA
BRANCH  17  19
HETATM   19  C15 UNL     1       5.462   5.410  17.676  1.00  0.00     0.133 C
HETATM   20  C16 UNL     1       4.427   4.523  18.327  1.00  0.00     0.049 C
HETATM   21 BR1  UNL     1       6.268   4.439  16.177  1.00  0.00    -0.065 Br
HETATM   22 BR2  UNL     1       4.553   6.959  16.954  1.00  0.00    -0.065 Br
ENDBRANCH  17  19
ENDBRANCH  13  17
ENDBRANCH  10  13
ENDBRANCH   6   9
BRANCH   3  23
HETATM   23  C5  UNL     1       8.387   1.212  18.138  1.00  0.00    -0.008 C
HETATM   24  C6  UNL     1       9.268   0.068  18.583  1.00  0.00     0.021 C
HETATM   25  C7  UNL     1       7.433   0.801  17.052  1.00  0.00     0.021 C
HETATM   26  C8  UNL     1       9.250   2.365  17.636  1.00  0.00     0.021 C
ENDBRANCH   3  23
BRANCH   1  27
HETATM   27  N1  UNL     1       5.132   0.784  21.615  1.00  0.00    -0.380 N
HETATM   28  C1  UNL     1       4.038   1.414  22.321  1.00  0.00     0.147 C
ATOM     29  H1  UNL     1       5.221  -0.232  21.621  1.00  0.00     0.160 HD
ENDBRANCH   1  27
TORSDOF 7
ENDMDL