MODEL 5
REMARK VINA RESULT: -5.909838443      2.868      5.017
REMARK  6 active torsions:
REMARK  status: ('A' for Active; 'I' for Inactive)
REMARK    1  A    between atoms: C7_9  and  C8_11
REMARK    2  A    between atoms: C8_11  and  C9_12
REMARK    3  A    between atoms: C12_16  and  N2_17
REMARK       I    between atoms: N2_17  and  C13_19
REMARK    4  A    between atoms: C16_23  and  C17_24
REMARK    5  A    between atoms: C17_24  and  C18_25
REMARK    6  A    between atoms: C18_25  and  O3_26
ROOT
HETATM    1  C1  UNL     1       7.490  11.778  20.999  1.00  0.00     0.017 C
HETATM    2  C2  UNL     1       7.103  10.537  20.761  1.00  0.00    -0.053 C
HETATM    3  C3  UNL     1       8.105   9.528  20.191  1.00  0.00     0.272 C
HETATM    4  N1  UNL     1       7.513   8.259  20.283  1.00  0.00    -0.053 N
HETATM    5  C4  UNL     1       8.101   7.474  19.204  1.00  0.00     0.274 C
HETATM    6  C5  UNL     1       6.106   8.570  20.033  1.00  0.00     0.219 C
HETATM    7  C6  UNL     1       5.477   7.264  20.333  1.00  0.00     0.112 C
HETATM    8 BR1  UNL     1       3.628   7.309  20.864  1.00  0.00    -0.087 Br
HETATM    9  C7  UNL     1       6.313   6.538  21.316  1.00  0.00     0.070 C
HETATM   10 BR2  UNL     1       5.200   6.277  22.897  1.00  0.00    -0.081 Br
HETATM   11  C11 UNL     1       7.419   7.586  21.529  1.00  0.00     0.234 C
HETATM   12  C12 UNL     1       7.074   8.436  22.703  1.00  0.00     0.118 C
HETATM   13  C15 UNL     1       5.925   9.369  22.399  1.00  0.00     0.043 C
HETATM   14  C16 UNL     1       5.877   9.748  20.914  1.00  0.00     0.018 C
ENDROOT
BRANCH   9  15
HETATM   15  C8  UNL     1       6.848   5.201  20.996  1.00  0.00     0.102 C
BRANCH  15  16
HETATM   16  C9  UNL     1       6.072   4.384  20.035  1.00  0.00     0.124 C
HETATM   17  C10 UNL     1       6.596   4.186  18.659  1.00  0.00     0.091 C
HETATM   18  O1  UNL     1       5.027   3.873  20.335  1.00  0.00    -0.298 OA
ENDBRANCH  15  16
ENDBRANCH   9  15
BRANCH  12  19
HETATM   19  N2  UNL     1       8.203   9.078  23.340  1.00  0.00    -0.355 N
HETATM   20  C13 UNL     1       8.949   8.303  24.305  1.00  0.00     0.213 C
HETATM   21  C14 UNL     1      10.122   8.877  25.008  1.00  0.00     0.117 C
HETATM   22  O2  UNL     1       8.633   7.119  24.583  1.00  0.00    -0.274 OA
ATOM     23  H2  UNL     1       8.463  10.039  23.117  1.00  0.00     0.162 HD
ENDBRANCH  12  19
BRANCH  14  24
HETATM   24  C17 UNL     1       4.644  10.491  20.619  1.00  0.00     0.042 C
BRANCH  24  25
HETATM   25  C18 UNL     1       4.408  11.046  19.250  1.00  0.00     0.165 C
BRANCH  25  26
HETATM   26  O3  UNL     1       4.146  12.454  19.494  1.00  0.00    -0.401 OA
ATOM     27  H3  UNL     1       5.010  12.849  19.473  1.00  0.00     0.209 HD
ENDBRANCH  25  26
ENDBRANCH  24  25
ENDBRANCH  14  24
TORSDOF 6
ENDMDL