MODEL 2
REMARK VINA RESULT: -9.365088114      0.230      1.289
REMARK  9 active torsions:
REMARK  status: ('A' for Active; 'I' for Inactive)
REMARK    1  A    between atoms: N1_1  and  C1_5
REMARK    2  A    between atoms: C1_5  and  C2_6
REMARK       I    between atoms: C2_6  and  N2_8
REMARK    3  A    between atoms: N2_8  and  C3_10
REMARK    4  A    between atoms: C3_10  and  C4_11
REMARK    5  A    between atoms: C4_11  and  O2_12
REMARK    6  A    between atoms: C4_11  and  N3_14
REMARK    7  A    between atoms: N4_23  and  C11_24
REMARK    8  A    between atoms: C11_24  and  O3_25
REMARK    9  A    between atoms: C11_24  and  C12_27
ROOT
HETATM    1  C3  UNL     1       7.089   7.944  21.385  1.00  0.00     0.100 C
HETATM    2  C9  UNL     1       6.136   6.748  21.484  1.00  0.00     0.059 C
HETATM    3  C10 UNL     1       6.675   5.506  20.870  1.00  0.00     0.127 C
HETATM    4  N4  UNL     1       7.204   5.811  19.546  1.00  0.00    -0.365 N
HETATM    5  C22 UNL     1       8.121   6.904  19.440  1.00  0.00     0.127 C
HETATM    6  C23 UNL     1       8.386   7.385  20.899  1.00  0.00     0.059 C
ENDROOT
BRANCH   1   7
HETATM    7  N2  UNL     1       6.530   8.904  20.437  1.00  0.00    -0.342 N
HETATM    8  C2  UNL     1       7.102  10.160  20.208  1.00  0.00     0.255 C
HETATM    9  O1  UNL     1       8.138  10.603  20.769  1.00  0.00    -0.271 OA
ATOM     10  H2  UNL     1       5.689   8.648  19.921  1.00  0.00     0.163 HD
BRANCH   8  11
HETATM   11  C1  UNL     1       6.481  11.119  19.222  1.00  0.00     0.203 A
HETATM   12  C24 UNL     1       6.293  12.523  19.599  1.00  0.00     0.052 A
HETATM   13  C25 UNL     1       5.096  11.628  19.548  1.00  0.00     0.052 A
BRANCH  11  14
HETATM   14  N1  UNL     1       6.671  10.805  17.824  1.00  0.00    -0.061 N
ATOM     15  H13 UNL     1       7.594  10.392  17.685  1.00  0.00     0.275 HD
ATOM     16  H12 UNL     1       6.076  10.019  17.562  1.00  0.00     0.275 HD
ATOM     17  H11 UNL     1       6.535  11.575  17.169  1.00  0.00     0.275 HD
ENDBRANCH  11  14
ENDBRANCH   8  11
ENDBRANCH   1   7
BRANCH   1  18
HETATM   18  C4  UNL     1       7.115   8.584  22.711  1.00  0.00     0.143 C
BRANCH  18  19
HETATM   19  O2  UNL     1       6.122   9.347  23.064  1.00  0.00    -0.348 OA
ATOM     20  H2  UNL     1       5.384   8.960  23.520  1.00  0.00     0.219 HD
ENDBRANCH  18  19
BRANCH  18  21
HETATM   21  N3  UNL     1       8.119   8.480  23.703  1.00  0.00    -0.357 N
HETATM   22  C5  UNL     1       8.138   7.451  24.717  1.00  0.00     0.131 C
HETATM   23  C6  UNL     1       9.017   7.979  25.807  1.00  0.00     0.100 C
HETATM   24  C7  UNL     1      10.122   8.632  24.954  1.00  0.00     0.261 C
HETATM   25  F1  UNL     1      10.856   7.599  24.416  1.00  0.00    -0.204 F
HETATM   26  F2  UNL     1      10.884   9.492  25.677  1.00  0.00    -0.204 F
HETATM   27  C8  UNL     1       9.255   9.331  23.898  1.00  0.00     0.203 C
ENDBRANCH  18  21
ENDBRANCH   1  18
BRANCH   4  28
HETATM   28  C11 UNL     1       6.798   5.049  18.461  1.00  0.00     0.122 C
BRANCH  28  29
HETATM   29  O3  UNL     1       5.866   5.612  17.737  1.00  0.00    -0.349 OA
ATOM     30  H3  UNL     1       5.292   4.994  17.299  1.00  0.00     0.219 HD
ENDBRANCH  28  29
BRANCH  28  31
HETATM   31  C12 UNL     1       7.214   3.736  17.976  1.00  0.00     0.026 C
HETATM   32  C13 UNL     1       7.278   3.608  16.469  1.00  0.00     0.022 C
HETATM   33  C14 UNL     1       7.802   2.221  16.144  1.00  0.00    -0.013 C
HETATM   34  C15 UNL     1       6.937   1.126  16.689  1.00  0.00     0.009 C
HETATM   35  C19 UNL     1       9.206   1.996  16.655  1.00  0.00     0.009 C
HETATM   36  C16 UNL     1       6.899   1.280  18.194  1.00  0.00    -0.013 C
HETATM   37  C17 UNL     1       8.248   1.160  18.808  1.00  0.00     0.009 C
HETATM   38  C21 UNL     1       6.333   2.653  18.507  1.00  0.00     0.022 C
HETATM   39  C18 UNL     1       9.174   2.169  18.161  1.00  0.00    -0.013 C
HETATM   40  C20 UNL     1       8.666   3.532  18.448  1.00  0.00     0.022 C
ENDBRANCH  28  31
ENDBRANCH   4  28
TORSDOF 9
ENDMDL