MODEL 5
REMARK VINA RESULT: -8.054233361      1.242      2.122
REMARK  4 active torsions:
REMARK  status: ('A' for Active; 'I' for Inactive)
REMARK    1  A    between atoms: C5_5  and  C6_6
REMARK       I    between atoms: C6_6  and  N1_8
REMARK    2  A    between atoms: N1_8  and  C7_10
REMARK    3  A    between atoms: C10_14  and  N3_15
REMARK    4  A    between atoms: C16_27  and  N5_28
ROOT
HETATM    1  C7  UNL     1       7.377   7.808  21.646  1.00  0.00     0.146 A
HETATM    2  C8  UNL     1       8.038   8.839  20.839  1.00  0.00     0.093 C
HETATM    3  N2  UNL     1       8.580   9.650  20.200  1.00  0.00    -0.194 NA
HETATM    4  C9  UNL     1       6.084   8.141  22.328  1.00  0.00     0.079 A
HETATM    5  C10 UNL     1       7.342   8.087  23.114  1.00  0.00     0.145 A
ENDROOT
BRANCH   1   6
HETATM    6  N1  UNL     1       7.516   6.439  21.190  1.00  0.00    -0.337 N
HETATM    7  C6  UNL     1       6.863   5.958  20.029  1.00  0.00     0.228 C
HETATM    8  O1  UNL     1       6.143   6.763  19.386  1.00  0.00    -0.273 OA
ATOM      9  H1  UNL     1       8.105   5.800  21.724  1.00  0.00     0.164 HD
BRANCH   7  10
HETATM   10  C5  UNL     1       7.017   4.572  19.584  1.00  0.00     0.042 C
HETATM   11  C4  UNL     1       8.325   4.264  18.928  1.00  0.00     0.020 C
HETATM   12  C3  UNL     1       8.100   4.057  17.498  1.00  0.00     0.008 C
HETATM   13  C2  UNL     1       7.798   2.673  16.994  1.00  0.00     0.025 C
HETATM   14  C1  UNL     1       9.123   1.967  16.986  1.00  0.00     0.012 C
HETATM   15  C16 UNL     1       6.565   1.962  17.448  1.00  0.00     0.208 C
HETATM   16  C15 UNL     1       6.820   0.640  18.124  1.00  0.00     0.278 C
HETATM   17  C21 UNL     1       5.846   2.694  18.566  1.00  0.00     0.035 C
HETATM   18  C14 UNL     1       7.686   0.641  19.325  1.00  0.00     0.082 C
HETATM   19  F1  UNL     1       7.157  -0.414  17.361  1.00  0.00    -0.203 F
HETATM   20  F2  UNL     1       5.603   0.237  18.743  1.00  0.00    -0.203 F
HETATM   21  C13 UNL     1       6.845   1.212  20.452  1.00  0.00     0.011 C
HETATM   22  C12 UNL     1       6.117   2.374  19.972  1.00  0.00    -0.006 C
HETATM   23  C11 UNL     1       6.781   3.579  20.662  1.00  0.00     0.024 C
HETATM   24  C22 UNL     1       5.861   4.153  18.655  1.00  0.00     0.027 C
BRANCH  15  25
HETATM   25  N5  UNL     1       5.710   1.744  16.279  1.00  0.00    -0.009 N
HETATM   26  C17 UNL     1       4.362   1.340  16.682  1.00  0.00     0.282 C
HETATM   27  C18 UNL     1       6.220   0.509  15.622  1.00  0.00     0.257 C
HETATM   28  C19 UNL     1       5.334   0.243  14.415  1.00  0.00     0.110 C
HETATM   29  S1  UNL     1       5.802   1.859  13.624  1.00  0.00    -0.091 SA
HETATM   30  C20 UNL     1       5.482   2.653  15.277  1.00  0.00     0.241 C
HETATM   31  S2  UNL     1       5.050   3.950  14.938  1.00  0.00    -0.045 SA
ENDBRANCH  15  25
ENDBRANCH   7  10
ENDBRANCH   1   6
BRANCH   5  32
HETATM   32  N3  UNL     1       7.559   7.027  24.053  1.00  0.00    -0.335 N
HETATM   33  N4  UNL     1       6.571   6.562  24.643  1.00  0.00    -0.349 N
ATOM     34  H42 UNL     1       5.640   6.934  24.455  1.00  0.00     0.176 HD
ATOM     35  H41 UNL     1       6.725   5.807  25.312  1.00  0.00     0.176 HD
ATOM     36  H3  UNL     1       8.496   6.665  24.230  1.00  0.00     0.180 HD
ENDBRANCH   5  32
TORSDOF 4
ENDMDL