MODEL 1
REMARK VINA RESULT: -8.275761283      0.000      0.000
REMARK  7 active torsions:
REMARK  status: ('A' for Active; 'I' for Inactive)
REMARK    1  A    between atoms: C2_2  and  O1_3
REMARK    2  A    between atoms: C2_2  and  C3_5
REMARK    3  A    between atoms: C3_5  and  C4_6
REMARK    4  A    between atoms: C4_6  and  C5_7
REMARK    5  A    between atoms: C5_7  and  C6_8
REMARK    6  A    between atoms: C6_8  and  C7_10
REMARK    7  A    between atoms: C8_11  and  C9_12
REMARK       I    between atoms: C9_12  and  N1_14
REMARK       I    between atoms: N3_21  and  C15_22
ROOT
HETATM    1  C9  UNL     1       6.441   5.358  18.210  1.00  0.00     0.243 C
HETATM    2  O2  UNL     1       6.733   5.727  17.022  1.00  0.00    -0.268 OA
HETATM    3  N1  UNL     1       6.380   6.307  19.216  1.00  0.00    -0.347 N
HETATM    4  C10 UNL     1       6.701   7.669  18.801  1.00  0.00     0.128 C
HETATM    5  C11 UNL     1       7.944   8.154  19.505  1.00  0.00     0.048 C
HETATM    6  C12 UNL     1       8.108   7.655  20.890  1.00  0.00     0.240 C
HETATM    7  N2  UNL     1       7.090   7.787  21.839  1.00  0.00    -0.054 N
HETATM    8  C13 UNL     1       7.529   6.980  22.994  1.00  0.00     0.258 C
HETATM    9  C14 UNL     1       8.788   7.470  23.625  1.00  0.00     0.153 C
HETATM   10  N3  UNL     1       9.011   8.886  23.577  1.00  0.00    -0.352 N
HETATM   11  C15 UNL     1      10.111   9.451  24.232  1.00  0.00     0.184 C
HETATM   12  N4  UNL     1      10.799   8.757  25.058  1.00  0.00    -0.374 N
ATOM     13  H41 UNL     1      11.601   9.168  25.535  1.00  0.00     0.158 HD
ATOM     14  H42 UNL     1      10.519   7.789  25.219  1.00  0.00     0.158 HD
HETATM   15  N5  UNL     1      10.498  10.792  24.008  1.00  0.00    -0.064 NA
HETATM   16  C16 UNL     1       8.123   9.745  22.848  1.00  0.00     0.164 C
HETATM   17  C17 UNL     1       6.841   9.065  22.421  1.00  0.00     0.139 C
HETATM   18  C18 UNL     1       6.028  10.016  21.613  1.00  0.00     0.048 C
HETATM   19  C19 UNL     1       6.061   8.932  23.751  1.00  0.00     0.048 C
HETATM   20  C20 UNL     1       5.845   7.150  21.435  1.00  0.00     0.258 C
HETATM   21  C21 UNL     1       6.034   5.942  20.565  1.00  0.00     0.154 C
ENDROOT
BRANCH   1  22
HETATM   22  C8  UNL     1       6.202   3.938  18.405  1.00  0.00     0.076 C
HETATM   23  C7  UNL     1       7.198   3.084  18.514  1.00  0.00     0.033 C
BRANCH  23  24
HETATM   24  C6  UNL     1       6.981   1.647  18.708  1.00  0.00     0.056 C
HETATM   25 BR1  UNL     1       5.132   1.120  18.941  1.00  0.00    -0.042 Br
BRANCH  24  26
HETATM   26  C5  UNL     1       7.997   0.792  18.698  1.00  0.00    -0.109 C
BRANCH  26  27
HETATM   27  C4  UNL     1       9.028  -0.055  18.681  1.00  0.00     0.059 C
BRANCH  27  28
HETATM   28  C3  UNL     1      10.082  -0.181  17.906  1.00  0.00     0.040 C
BRANCH  28  29
HETATM   29  C2  UNL     1      10.639  -1.318  17.295  1.00  0.00     0.040 C
HETATM   30  C1  UNL     1      10.058  -2.338  16.421  1.00  0.00     0.076 C
BRANCH  29  31
HETATM   31  O1  UNL     1      11.927  -1.527  17.542  1.00  0.00    -0.365 OA
ATOM     32  H1  UNL     1      12.213  -1.130  18.356  1.00  0.00     0.217 HD
ENDBRANCH  29  31
ENDBRANCH  28  29
ENDBRANCH  27  28
ENDBRANCH  26  27
ENDBRANCH  24  26
ENDBRANCH  23  24
ENDBRANCH   1  22
TORSDOF 7
ENDMDL