MODEL 4
REMARK VINA RESULT: -6.903807312      5.198      7.706
REMARK  3 active torsions:
REMARK  status: ('A' for Active; 'I' for Inactive)
REMARK       I    between atoms: C1_2  and  N1_3
REMARK    1  A    between atoms: C1_2  and  C8_13
REMARK    2  A    between atoms: N1_3  and  C2_5
REMARK    3  A    between atoms: C13_18  and  C14_19
REMARK       I    between atoms: C14_19  and  N3_21
ROOT
HETATM    1  C8  UNL     1       8.109   8.603  20.835  1.00  0.00     0.091 C
HETATM    2  C9  UNL     1       7.871   9.872  20.045  1.00  0.00     0.015 C
HETATM    3  C10 UNL     1       6.516   9.878  19.362  1.00  0.00     0.001 C
HETATM    4  C11 UNL     1       6.382   8.771  18.343  1.00  0.00     0.001 C
HETATM    5  C12 UNL     1       7.232   7.630  18.817  1.00  0.00     0.015 C
HETATM    6  C13 UNL     1       7.089   7.593  20.348  1.00  0.00     0.091 C
ENDROOT
BRANCH   1   7
HETATM    7  C1  UNL     1       8.101   8.801  22.280  1.00  0.00     0.223 C
HETATM    8  O1  UNL     1       7.122   9.370  22.847  1.00  0.00    -0.273 OA
HETATM    9  N1  UNL     1       9.160   8.385  23.147  1.00  0.00    -0.355 N
ATOM     10  H1  UNL     1       9.970   7.923  22.734  1.00  0.00     0.162 HD
BRANCH   9  11
HETATM   11  C2  UNL     1       9.144   8.583  24.566  1.00  0.00     0.101 C
HETATM   12  C3  UNL     1      10.480   8.940  25.149  1.00  0.00     0.027 C
HETATM   13  C4  UNL     1      11.369   7.752  25.121  1.00  0.00     0.004 C
HETATM   14  C5  UNL     1      11.254   6.815  26.252  1.00  0.00     0.019 C
HETATM   15  C6  UNL     1      10.127   7.004  27.181  1.00  0.00     0.113 C
HETATM   16  N2  UNL     1       8.901   7.445  26.629  1.00  0.00    -0.419 N
HETATM   17  C7  UNL     1       8.762   7.243  25.209  1.00  0.00     0.139 C
ATOM     18  H2  UNL     1       8.168   7.875  27.195  1.00  0.00     0.153 HD
ENDBRANCH   9  11
ENDBRANCH   1   7
BRANCH   6  19
HETATM   19  C14 UNL     1       7.385   6.228  20.823  1.00  0.00     0.225 C
HETATM   20  O2  UNL     1       7.789   6.026  21.991  1.00  0.00    -0.273 OA
HETATM   21  N3  UNL     1       7.227   5.105  19.982  1.00  0.00    -0.347 N
HETATM   22  C15 UNL     1       6.786   4.952  18.613  1.00  0.00     0.160 A
HETATM   23  C17 UNL     1       7.420   3.657  20.090  1.00  0.00     0.160 A
HETATM   24  C16 UNL     1       7.086   3.478  18.650  1.00  0.00     0.108 A
HETATM   25 BR1  UNL     1       5.532   2.412  18.266  1.00  0.00    -0.069 Br
HETATM   26 BR2  UNL     1       8.601   3.025  17.519  1.00  0.00    -0.069 Br
ENDBRANCH   6  19
TORSDOF 3
ENDMDL