MODEL 2
REMARK VINA RESULT: -6.737059239      5.703      8.025
REMARK  5 active torsions:
REMARK  status: ('A' for Active; 'I' for Inactive)
REMARK    1  A    between atoms: C6_11  and  C7_12
REMARK       I    between atoms: C7_12  and  N3_14
REMARK    2  A    between atoms: C11_20  and  O3_21
REMARK    3  A    between atoms: C12_23  and  C13_24
REMARK    4  A    between atoms: C13_24  and  C14_25
REMARK    5  A    between atoms: C14_25  and  C15_26
ROOT
HETATM    1  C7  UNL     1       6.737   4.900  19.248  1.00  0.00     0.238 C
HETATM    2  O1  UNL     1       7.369   4.169  20.097  1.00  0.00    -0.272 OA
HETATM    3  N3  UNL     1       6.961   4.693  17.892  1.00  0.00    -0.277 N
HETATM    4  C8  UNL     1       6.233   5.476  16.939  1.00  0.00     0.251 C
HETATM    5  O2  UNL     1       5.823   6.636  17.135  1.00  0.00    -0.268 OA
HETATM    6  C9  UNL     1       5.930   4.896  15.616  1.00  0.00     0.092 C
HETATM    7  C10 UNL     1       6.335   3.683  15.351  1.00  0.00     0.024 C
HETATM    8 BR1  UNL     1       5.947   2.927  13.648  1.00  0.00    -0.053 Br
HETATM    9  C11 UNL     1       7.098   2.858  16.321  1.00  0.00     0.181 C
HETATM   10  C12 UNL     1       7.868   3.725  17.321  1.00  0.00     0.130 C
ENDROOT
BRANCH   1  11
HETATM   11  C6  UNL     1       5.847   5.877  19.902  1.00  0.00     0.146 C
HETATM   12  C2  UNL     1       5.244   5.161  21.083  1.00  0.00     0.000 C
HETATM   13  C1  UNL     1       4.526   3.854  20.792  1.00  0.00     0.064 C
HETATM   14  N1  UNL     1       5.303   5.578  22.277  1.00  0.00    -0.340 N
HETATM   15  C3  UNL     1       5.947   6.778  22.638  1.00  0.00     0.172 C
ATOM     16  H1  UNL     1       4.866   5.020  23.011  1.00  0.00     0.167 HD
HETATM   17  S1  UNL     1       5.991   7.269  24.219  1.00  0.00    -0.041 SA
HETATM   18  N2  UNL     1       6.546   7.538  21.622  1.00  0.00    -0.362 N
HETATM   19  C4  UNL     1       6.680   7.050  20.282  1.00  0.00     0.098 C
ATOM     20  H2  UNL     1       6.897   8.470  21.844  1.00  0.00     0.162 HD
HETATM   21  C5  UNL     1       8.180   6.774  20.097  1.00  0.00     0.033 C
ENDBRANCH   1  11
BRANCH  10  22
HETATM   22  C13 UNL     1       8.607   2.868  18.269  1.00  0.00     0.029 C
BRANCH  22  23
HETATM   23  C14 UNL     1       9.818   2.240  17.553  1.00  0.00     0.013 C
BRANCH  23  24
HETATM   24  C15 UNL     1       9.776   0.745  17.917  1.00  0.00     0.085 C
HETATM   25 BR2  UNL     1       8.258   0.398  19.033  1.00  0.00    -0.097 Br
ENDBRANCH  23  24
ENDBRANCH  22  23
ENDBRANCH  10  22
BRANCH   9  26
HETATM   26  O3  UNL     1       6.206   2.011  16.948  1.00  0.00    -0.388 OA
ATOM     27  H3  UNL     1       6.710   1.367  17.434  1.00  0.00     0.210 HD
ENDBRANCH   9  26
TORSDOF 5
ENDMDL