MODEL 4
REMARK VINA RESULT: -7.551054158      1.135      1.248
REMARK  11 active torsions:
REMARK  status: ('A' for Active; 'I' for Inactive)
REMARK       I    between atoms: C1_2  and  N1_3
REMARK       I    between atoms: C1_2  and  N2_15
REMARK    1  A    between atoms: N1_3  and  C2_5
REMARK    2  A    between atoms: C2_5  and  C3_6
REMARK    3  A    between atoms: C3_6  and  C4_7
REMARK    4  A    between atoms: C4_7  and  C5_9
REMARK    5  A    between atoms: C6_10  and  C7_11
REMARK    6  A    between atoms: C7_11  and  C8_12
REMARK    7  A    between atoms: N3_18  and  C12_19
REMARK    8  A    between atoms: C12_19  and  O2_20
REMARK    9  A    between atoms: C12_19  and  N4_22
REMARK   10  A    between atoms: C16_26  and  C17_27
REMARK   11  A    between atoms: C17_27  and  O3_28
ROOT
HETATM    1  O1  UNL     1       7.456   8.760  18.025  1.00  0.00    -0.247 OA
HETATM    2  C1  UNL     1       6.903   7.765  18.515  1.00  0.00     0.322 C
HETATM    3  N1  UNL     1       5.973   6.939  17.891  1.00  0.00    -0.323 N
ATOM      4  H1  UNL     1       5.653   6.166  18.475  1.00  0.00     0.169 HD
HETATM    5  N2  UNL     1       7.274   7.436  19.889  1.00  0.00    -0.328 N
HETATM    6  C10 UNL     1       6.707   6.311  20.531  1.00  0.00     0.172 C
HETATM    7  C11 UNL     1       7.273   6.070  21.927  1.00  0.00     0.087 C
HETATM    8  N3  UNL     1       7.553   7.231  22.670  1.00  0.00    -0.324 N
HETATM    9  C18 UNL     1       7.514   8.546  21.956  1.00  0.00     0.151 C
HETATM   10  C19 UNL     1       8.222   8.260  20.623  1.00  0.00     0.148 C
ENDROOT
BRANCH   3  11
HETATM   11  C2  UNL     1       5.383   6.962  16.605  1.00  0.00     0.067 C
BRANCH  11  12
HETATM   12  C3  UNL     1       5.762   6.036  15.545  1.00  0.00     0.073 C
BRANCH  12  13
HETATM   13  C4  UNL     1       5.605   4.577  15.722  1.00  0.00     0.141 C
HETATM   14 BR1  UNL     1       5.836   3.612  14.051  1.00  0.00    -0.077 Br
BRANCH  13  15
HETATM   15  C5  UNL     1       6.746   4.118  16.604  1.00  0.00    -0.090 C
HETATM   16  C6  UNL     1       7.666   3.763  17.291  1.00  0.00    -0.102 C
BRANCH  16  17
HETATM   17  C7  UNL     1       8.798   3.347  18.113  1.00  0.00     0.122 C
BRANCH  17  18
HETATM   18  C8  UNL     1       8.917   1.865  18.172  1.00  0.00    -0.003 C
HETATM   19  C9  UNL     1      10.049   1.303  17.776  1.00  0.00     0.081 C
HETATM   20 CL1  UNL     1      10.281  -0.436  17.809  1.00  0.00    -0.097 Cl
ENDBRANCH  17  18
ENDBRANCH  16  17
ENDBRANCH  13  15
ENDBRANCH  12  13
ENDBRANCH  11  12
ENDBRANCH   3  11
BRANCH   8  21
HETATM   21  C12 UNL     1       7.873   7.276  24.029  1.00  0.00     0.221 C
BRANCH  21  22
HETATM   22  O2  UNL     1       6.948   6.623  24.776  1.00  0.00    -0.332 OA
ATOM     23  H2  UNL     1       7.354   5.979  25.344  1.00  0.00     0.221 HD
ENDBRANCH  21  22
BRANCH  21  24
HETATM   24  N4  UNL     1       8.860   7.794  24.819  1.00  0.00    -0.341 N
HETATM   25  C13 UNL     1       8.867   7.427  26.316  1.00  0.00     0.127 C
HETATM   26  C14 UNL     1      10.313   6.965  26.432  1.00  0.00     0.022 C
HETATM   27  C15 UNL     1      11.068   7.610  25.251  1.00  0.00     0.029 C
HETATM   28  C16 UNL     1       9.995   8.621  24.831  1.00  0.00     0.111 C
BRANCH  28  29
HETATM   29  C17 UNL     1      10.374   9.565  23.797  1.00  0.00     0.189 C
BRANCH  29  30
HETATM   30  O3  UNL     1      11.271   8.912  22.915  1.00  0.00    -0.399 OA
ATOM     31  H3  UNL     1      12.153   9.180  23.143  1.00  0.00     0.209 HD
ENDBRANCH  29  30
ENDBRANCH  28  29
ENDBRANCH  21  24
ENDBRANCH   8  21
TORSDOF 11
ENDMDL