MODEL 5
REMARK VINA RESULT: -6.298741293      4.445      7.577
REMARK  6 active torsions:
REMARK  status: ('A' for Active; 'I' for Inactive)
REMARK    1  A    between atoms: O1_1  and  C1_3
REMARK    2  A    between atoms: C1_3  and  C2_4
REMARK    3  A    between atoms: C2_4  and  N1_5
REMARK    4  A    between atoms: C8_11  and  N2_12
REMARK    5  A    between atoms: C9_14  and  C10_15
REMARK    6  A    between atoms: C9_14  and  N5_25
ROOT
HETATM    1  N2  UNL     1       7.482   4.414  20.239  1.00  0.00    -0.372 N
ATOM      2  H2  UNL     1       8.173   3.968  20.843  1.00  0.00     0.161 HD
HETATM    3  C9  UNL     1       7.118   5.611  20.513  1.00  0.00     0.127 C
ENDROOT
BRANCH   1   4
HETATM    4  C8  UNL     1       6.963   3.659  19.113  1.00  0.00     0.088 C
HETATM    5  C5  UNL     1       7.966   3.783  18.007  1.00  0.00     0.011 C
HETATM    6  C4  UNL     1       7.238   3.580  16.695  1.00  0.00     0.034 C
HETATM    7  C6  UNL     1       9.113   2.842  18.081  1.00  0.00     0.034 C
HETATM    8  C3  UNL     1       6.506   2.269  16.804  1.00  0.00     0.238 C
HETATM    9  N1  UNL     1       7.405   1.303  17.404  1.00  0.00    -0.065 N
HETATM   10  C7  UNL     1       8.804   1.648  17.188  1.00  0.00     0.238 C
HETATM   11  C17 UNL     1       7.213   1.156  18.814  1.00  0.00     0.239 C
HETATM   12  C16 UNL     1       6.603   2.295  19.521  1.00  0.00     0.053 C
BRANCH   9  13
HETATM   13  C2  UNL     1       7.129   0.038  16.743  1.00  0.00     0.263 C
BRANCH  13  14
HETATM   14  C1  UNL     1       5.980   0.116  15.772  1.00  0.00     0.192 C
BRANCH  14  15
HETATM   15  O1  UNL     1       6.412  -0.490  14.590  1.00  0.00    -0.399 OA
ATOM     16  H1  UNL     1       5.859  -1.250  14.456  1.00  0.00     0.209 HD
ENDBRANCH  14  15
ENDBRANCH  13  14
ENDBRANCH   9  13
ENDBRANCH   1   4
BRANCH   3  17
HETATM   17  C10 UNL     1       7.660   6.361  21.664  1.00  0.00     0.354 C
HETATM   18  N3  UNL     1       8.192   7.620  21.206  1.00  0.00    -0.365 N
HETATM   19  C11 UNL     1       7.780   8.583  21.907  1.00  0.00     0.120 C
ATOM     20  H3  UNL     1       8.825   7.720  20.412  1.00  0.00     0.161 HD
HETATM   21  C12 UNL     1       6.882   8.044  22.962  1.00  0.00     0.273 C
HETATM   22 BR1  UNL     1       7.768   8.308  24.659  1.00  0.00    -0.035 Br
HETATM   23 BR2  UNL     1       5.224   9.015  22.898  1.00  0.00    -0.035 Br
HETATM   24  N4  UNL     1       6.671   6.656  22.658  1.00  0.00    -0.014 N
ATOM     25  H42 UNL     1       5.716   6.429  22.379  1.00  0.00     0.283 HD
ATOM     26  H41 UNL     1       6.698   6.041  23.470  1.00  0.00     0.283 HD
ENDBRANCH   3  17
BRANCH   3  27
HETATM   27  N5  UNL     1       6.162   6.232  19.677  1.00  0.00    -0.368 N
HETATM   28  C13 UNL     1       4.713   6.345  19.759  1.00  0.00     0.126 C
HETATM   29  C14 UNL     1       4.712   6.400  18.230  1.00  0.00     0.040 C
HETATM   30  C15 UNL     1       6.108   6.995  18.444  1.00  0.00     0.126 C
ENDBRANCH   3  27
TORSDOF 6
ENDMDL