MODEL 2
REMARK VINA RESULT: -7.454085469      4.955      8.062
REMARK  7 active torsions:
REMARK  status: ('A' for Active; 'I' for Inactive)
REMARK    1  A    between atoms: C2_2  and  C3_4
REMARK       I    between atoms: N3_11  and  C6_13
REMARK    2  A    between atoms: C6_13  and  O2_15
REMARK    3  A    between atoms: O2_15  and  C7_16
REMARK    4  A    between atoms: C7_16  and  C8_17
REMARK    5  A    between atoms: C9_18  and  C10_19
REMARK    6  A    between atoms: C10_19  and  O3_20
REMARK    7  A    between atoms: O3_20  and  C11_21
ROOT
HETATM    1  C3  UNL     1       5.827   7.345  21.778  1.00  0.00     0.022 C
HETATM    2  C4  UNL     1       6.334   6.146  21.058  1.00  0.00     0.068 A
HETATM    3  N1  UNL     1       6.339   4.857  21.407  1.00  0.00    -0.298 N
ATOM      4  H1  UNL     1       5.972   4.486  22.283  1.00  0.00     0.187 HD
HETATM    5  N2  UNL     1       6.891   4.132  20.447  1.00  0.00    -0.284 N
ATOM      6  H2  UNL     1       7.012   3.120  20.477  1.00  0.00     0.188 HD
HETATM    7  C5  UNL     1       7.270   4.918  19.429  1.00  0.00     0.133 A
HETATM    8  N3  UNL     1       7.841   4.625  18.308  1.00  0.00    -0.287 N
ATOM      9  H3  UNL     1       8.053   5.377  17.652  1.00  0.00     0.172 HD
HETATM   10  C6  UNL     1       8.183   3.300  17.957  1.00  0.00     0.367 C
HETATM   11  O1  UNL     1       7.983   2.954  16.753  1.00  0.00    -0.238 OA
HETATM   12  C12 UNL     1       6.914   6.210  19.818  1.00  0.00     0.020 A
HETATM   13  C13 UNL     1       7.070   7.517  19.139  1.00  0.00     0.029 C
HETATM   14  C14 UNL     1       8.475   7.986  19.456  1.00  0.00     0.037 C
HETATM   15  C15 UNL     1       8.609   8.455  20.878  1.00  0.00     0.238 C
HETATM   16  N4  UNL     1       7.466   9.209  21.353  1.00  0.00    -0.066 N
HETATM   17  C16 UNL     1       7.789   9.717  22.648  1.00  0.00     0.272 C
HETATM   18  C17 UNL     1       7.448  10.399  20.454  1.00  0.00     0.272 C
HETATM   19  C18 UNL     1       6.207   8.619  21.171  1.00  0.00     0.227 C
HETATM   20  C19 UNL     1       6.020   8.446  19.647  1.00  0.00     0.048 C
ENDROOT
BRANCH  10  21
HETATM   21  O2  UNL     1       8.710   2.363  18.807  1.00  0.00    -0.292 OA
BRANCH  21  22
HETATM   22  C7  UNL     1       8.279   1.006  18.740  1.00  0.00     0.274 C
BRANCH  22  23
HETATM   23  C8  UNL     1       9.350   0.117  18.322  1.00  0.00    -0.078 C
HETATM   24  C9  UNL     1      10.267  -0.618  17.970  1.00  0.00    -0.078 C
BRANCH  24  25
HETATM   25  C10 UNL     1      11.374  -1.446  17.531  1.00  0.00     0.262 C
BRANCH  25  26
HETATM   26  O3  UNL     1      11.106  -2.642  17.014  1.00  0.00    -0.369 OA
BRANCH  26  27
HETATM   27  C11 UNL     1      10.073  -2.776  16.167  1.00  0.00     0.253 C
HETATM   28 BR1  UNL     1       9.599  -4.605  15.859  1.00  0.00    -0.068 Br
ENDBRANCH  26  27
ENDBRANCH  25  26
ENDBRANCH  24  25
ENDBRANCH  22  23
ENDBRANCH  21  22
ENDBRANCH  10  21
BRANCH   1  29
HETATM   29  C2  UNL     1       5.874   7.206  23.236  1.00  0.00     0.035 C
HETATM   30  C1  UNL     1       4.789   7.295  23.993  1.00  0.00     0.037 C
HETATM   31 CL1  UNL     1       7.395   6.909  24.057  1.00  0.00    -0.085 Cl
ENDBRANCH   1  29
TORSDOF 7
ENDMDL