MODEL 4
REMARK VINA RESULT: -9.759711857      0.770      1.636
REMARK  5 active torsions:
REMARK  status: ('A' for Active; 'I' for Inactive)
REMARK    1  A    between atoms: C2_2  and  C3_3
REMARK       I    between atoms: C3_3  and  N1_5
REMARK       I    between atoms: N2_8  and  C6_9
REMARK       I    between atoms: C6_9  and  N5_26
REMARK       I    between atoms: N3_10  and  C7_12
REMARK       I    between atoms: C7_12  and  N4_14
REMARK    2  A    between atoms: N4_14  and  C8_16
REMARK    3  A    between atoms: N5_26  and  C18_28
REMARK    4  A    between atoms: C18_28  and  C19_29
REMARK    5  A    between atoms: C19_29  and  N6_30
ROOT
HETATM    1  C3  UNL     1       7.221  11.808  19.795  1.00  0.00     0.219 C
HETATM    2  O1  UNL     1       6.180  12.367  19.342  1.00  0.00    -0.273 OA
HETATM    3  N1  UNL     1       7.172  10.465  20.211  1.00  0.00    -0.349 N
HETATM    4  C4  UNL     1       8.388   9.839  20.727  1.00  0.00     0.146 C
HETATM    5  C5  UNL     1       8.227   8.362  20.407  1.00  0.00     0.161 C
HETATM    6  N2  UNL     1       7.105   7.923  21.259  1.00  0.00    -0.215 N
HETATM    7  C6  UNL     1       7.285   6.965  22.267  1.00  0.00     0.680 C
HETATM    8  N3  UNL     1       7.402   5.740  21.995  1.00  0.00    -0.142 N
ATOM      9  H3  UNL     1       7.529   5.142  22.811  1.00  0.00     0.189 HD
HETATM   10  C7  UNL     1       7.389   5.060  20.789  1.00  0.00     0.335 C
HETATM   11  O2  UNL     1       6.905   5.619  19.774  1.00  0.00    -0.246 OA
HETATM   12  N4  UNL     1       7.903   3.742  20.639  1.00  0.00    -0.333 N
ATOM     13  H4  UNL     1       8.296   3.301  21.470  1.00  0.00     0.165 HD
HETATM   14  N5  UNL     1       7.325   7.377  23.621  1.00  0.00    -0.224 N
ATOM     15  H5  UNL     1       8.204   7.730  23.999  1.00  0.00     0.177 HD
HETATM   16  C25 UNL     1       5.841   8.535  20.991  1.00  0.00     0.161 C
HETATM   17  C26 UNL     1       5.924   9.742  20.117  1.00  0.00     0.146 C
ENDROOT
BRANCH  14  18
HETATM   18  C18 UNL     1       6.165   7.316  24.491  1.00  0.00     0.168 C
BRANCH  18  19
HETATM   19  C19 UNL     1       5.469   8.647  24.593  1.00  0.00     0.292 C
BRANCH  19  20
HETATM   20  N6  UNL     1       4.169   8.430  25.191  1.00  0.00     0.092 N
HETATM   21  C20 UNL     1       3.536   7.283  24.632  1.00  0.00     0.272 C
HETATM   22  C21 UNL     1       2.059   7.201  24.933  1.00  0.00     0.033 C
HETATM   23  C22 UNL     1       1.298   8.453  24.662  1.00  0.00     0.040 C
HETATM   24  C23 UNL     1       2.183   9.619  24.358  1.00  0.00     0.198 C
HETATM   25  F1  UNL     1       2.510   9.637  23.022  1.00  0.00    -0.248 F
HETATM   26  C24 UNL     1       3.377   9.616  25.259  1.00  0.00     0.309 C
ENDBRANCH  19  20
ENDBRANCH  18  19
ENDBRANCH  14  18
BRANCH  12  27
HETATM   27  C8  UNL     1       7.921   2.981  19.433  1.00  0.00     0.035 C
HETATM   28  C9  UNL     1       7.896   1.499  19.670  1.00  0.00     0.035 C
HETATM   29  C10 UNL     1       8.091   0.735  18.376  1.00  0.00    -0.012 C
HETATM   30  C11 UNL     1       9.412   1.105  17.777  1.00  0.00     0.009 C
HETATM   31  C15 UNL     1       6.930   1.051  17.467  1.00  0.00     0.009 C
HETATM   32  C12 UNL     1       9.341   2.572  17.395  1.00  0.00    -0.012 C
HETATM   33  C13 UNL     1       8.187   2.886  16.494  1.00  0.00     0.009 C
HETATM   34  C17 UNL     1       9.186   3.358  18.653  1.00  0.00     0.035 C
HETATM   35  C14 UNL     1       6.914   2.547  17.237  1.00  0.00    -0.012 C
HETATM   36  C16 UNL     1       6.756   3.309  18.516  1.00  0.00     0.035 C
ENDBRANCH  12  27
BRANCH   1  37
HETATM   37  C2  UNL     1       8.493  12.601  19.876  1.00  0.00     0.098 C
HETATM   38  C1  UNL     1       8.180  14.053  20.004  1.00  0.00     0.014 C
ENDBRANCH   1  37
TORSDOF 5
ENDMDL