MODEL 1
REMARK VINA RESULT: -9.490759464      0.000      0.000
REMARK  5 active torsions:
REMARK  status: ('A' for Active; 'I' for Inactive)
REMARK    1  A    between atoms: C6_6  and  C7_7
REMARK    2  A    between atoms: C9_10  and  N1_11
REMARK    3  A    between atoms: C9_10  and  C28_34
REMARK       I    between atoms: N1_11  and  C10_13
REMARK    4  A    between atoms: C10_13  and  C11_15
REMARK       I    between atoms: N2_21  and  C17_22
REMARK    5  A    between atoms: C17_22  and  C18_24
ROOT
HETATM    1  C11 UNL     1       5.310   3.904  21.755  1.00  0.00     0.180 C
HETATM    2  C12 UNL     1       3.866   3.635  22.030  1.00  0.00     0.041 C
HETATM    3  C13 UNL     1       3.460   2.574  21.082  1.00  0.00     0.011 C
HETATM    4  C14 UNL     1       2.483   2.953  20.004  1.00  0.00     0.009 C
HETATM    5  C15 UNL     1       3.660   3.205  19.096  1.00  0.00     0.026 C
HETATM    6  C16 UNL     1       4.563   2.502  20.041  1.00  0.00     0.092 C
HETATM    7  N2  UNL     1       5.708   3.138  20.582  1.00  0.00    -0.333 N
HETATM    8  C17 UNL     1       7.065   3.102  20.181  1.00  0.00     0.229 C
HETATM    9  O2  UNL     1       7.880   3.793  20.913  1.00  0.00    -0.272 OA
ENDROOT
BRANCH   1  10
HETATM   10  C10 UNL     1       5.623   5.338  21.724  1.00  0.00     0.241 C
HETATM   11  N1  UNL     1       6.909   5.903  21.736  1.00  0.00    -0.341 N
ATOM     12  H1  UNL     1       7.721   5.286  21.718  1.00  0.00     0.163 HD
HETATM   13  O1  UNL     1       4.595   6.088  21.690  1.00  0.00    -0.271 OA
BRANCH  11  14
HETATM   14  C9  UNL     1       7.116   7.357  21.774  1.00  0.00     0.120 C
HETATM   15  C4  UNL     1       8.416   7.901  21.232  1.00  0.00     0.032 C
HETATM   16  C2  UNL     1       7.705   9.135  20.817  1.00  0.00    -0.034 C
HETATM   17  C5  UNL     1       8.458   7.114  19.910  1.00  0.00     0.015 C
HETATM   18  C1  UNL     1       8.163   9.762  19.504  1.00  0.00     0.016 C
HETATM   19  C3  UNL     1       7.383  10.283  21.696  1.00  0.00     0.016 C
HETATM   20  C8  UNL     1       6.547   8.120  20.662  1.00  0.00     0.038 C
HETATM   21  C6  UNL     1       7.071   7.462  19.417  1.00  0.00     0.022 C
BRANCH  21  22
HETATM   22  C7  UNL     1       6.309   6.408  18.751  1.00  0.00     0.227 C
HETATM   23  F1  UNL     1       7.132   5.647  17.904  1.00  0.00    -0.255 F
ENDBRANCH  21  22
BRANCH  14  24
HETATM   24  C28 UNL     1       6.954   7.642  23.208  1.00  0.00     0.260 C
HETATM   25  N3  UNL     1       8.040   7.432  24.103  1.00  0.00    -0.060 NA
HETATM   26  O3  UNL     1       5.937   8.051  23.806  1.00  0.00    -0.274 OA
ENDBRANCH  14  24
ENDBRANCH  11  14
ENDBRANCH   1  10
BRANCH   8  27
HETATM   27  C18 UNL     1       7.695   2.404  19.067  1.00  0.00     0.042 C
HETATM   28  C19 UNL     1       9.072   3.074  18.769  1.00  0.00     0.024 C
HETATM   29  C20 UNL     1       9.766   2.397  17.652  1.00  0.00    -0.013 C
HETATM   30  C21 UNL     1      10.108   0.982  18.005  1.00  0.00     0.009 C
HETATM   31  C25 UNL     1       8.974   2.367  16.364  1.00  0.00     0.009 C
HETATM   32  C22 UNL     1       8.793   0.287  18.308  1.00  0.00    -0.013 C
HETATM   33  C23 UNL     1       7.863   0.267  17.122  1.00  0.00     0.009 C
HETATM   34  C27 UNL     1       8.106   0.999  19.427  1.00  0.00     0.024 C
HETATM   35  C24 UNL     1       7.662   1.688  16.689  1.00  0.00    -0.013 C
HETATM   36  C26 UNL     1       6.991   2.538  17.753  1.00  0.00     0.024 C
ENDBRANCH   8  27
TORSDOF 5
ENDMDL