MODEL 5
REMARK VINA RESULT: -9.250349928      2.360      4.027
REMARK  4 active torsions:
REMARK  status: ('A' for Active; 'I' for Inactive)
REMARK    1  A    between atoms: C2_2  and  C3_3
REMARK    2  A    between atoms: C3_3  and  N1_4
REMARK       I    between atoms: N2_16  and  C15_17
REMARK       I    between atoms: C15_17  and  N3_19
REMARK    3  A    between atoms: N3_19  and  C16_21
REMARK    4  A    between atoms: C16_21  and  C17_23
REMARK       I    between atoms: C17_23  and  N4_25
REMARK       I    between atoms: N4_25  and  C18_27
ROOT
HETATM    1  N1  UNL     1       7.315   1.934  19.083  1.00  0.00    -0.379 N
HETATM    2  C4  UNL     1       8.351   2.882  18.948  1.00  0.00     0.093 C
HETATM    3  C5  UNL     1       8.215   3.810  20.199  1.00  0.00     0.038 C
HETATM    4  C6  UNL     1       7.188   4.704  19.538  1.00  0.00    -0.008 C
HETATM    5  C7  UNL     1       8.120   5.078  18.461  1.00  0.00     0.023 C
HETATM    6  C8  UNL     1       8.262   3.775  17.761  1.00  0.00     0.038 C
HETATM    7  C9  UNL     1       7.048   3.751  16.868  1.00  0.00    -0.072 C
HETATM    8  C10 UNL     1       6.700   5.080  16.292  1.00  0.00     0.003 C
HETATM    9  C11 UNL     1       5.687   6.000  16.750  1.00  0.00     0.000 C
HETATM   10  C12 UNL     1       5.427   6.642  18.007  1.00  0.00    -0.002 C
HETATM   11  C13 UNL     1       6.284   6.986  19.126  1.00  0.00    -0.001 C
HETATM   12  C14 UNL     1       6.859   6.018  20.109  1.00  0.00     0.121 C
HETATM   13  N2  UNL     1       6.173   5.872  21.360  1.00  0.00    -0.320 N
HETATM   14  C15 UNL     1       6.174   6.969  22.260  1.00  0.00     0.320 C
HETATM   15  O1  UNL     1       5.526   6.854  23.362  1.00  0.00    -0.247 OA
HETATM   16  N3  UNL     1       6.836   8.191  22.050  1.00  0.00    -0.317 N
ATOM     17  H3  UNL     1       7.364   8.310  21.185  1.00  0.00     0.166 HD
HETATM   18  C20 UNL     1       5.509   4.666  21.788  1.00  0.00     0.094 C
HETATM   19  C21 UNL     1       4.046   4.726  21.413  1.00  0.00     0.026 C
HETATM   20  C22 UNL     1       4.141   3.249  21.103  1.00  0.00     0.009 C
HETATM   21  C23 UNL     1       5.658   3.483  20.931  1.00  0.00     0.015 C
HETATM   22  C24 UNL     1       6.020   3.888  19.482  1.00  0.00     0.026 C
HETATM   23  C25 UNL     1       6.102   2.542  18.765  1.00  0.00     0.093 C
HETATM   24  C26 UNL     1       5.912   2.916  17.315  1.00  0.00     0.060 C
ENDROOT
BRANCH  16  25
HETATM   25  C16 UNL     1       6.811   9.287  22.989  1.00  0.00     0.276 C
HETATM   26 CL1  UNL     1       6.148  10.736  22.162  1.00  0.00    -0.092 Cl
BRANCH  25  27
HETATM   27  C17 UNL     1       8.213   9.643  23.402  1.00  0.00     0.262 C
HETATM   28  O2  UNL     1       8.810  10.578  22.847  1.00  0.00    -0.269 OA
HETATM   29  N4  UNL     1       8.843   8.900  24.431  1.00  0.00    -0.295 N
HETATM   30  C18 UNL     1      10.167   9.235  24.820  1.00  0.00     0.220 C
ATOM     31  H4  UNL     1       8.351   8.132  24.887  1.00  0.00     0.171 HD
HETATM   32  C19 UNL     1      10.868   8.486  25.892  1.00  0.00     0.117 C
HETATM   33  O3  UNL     1      10.807  10.185  24.275  1.00  0.00    -0.274 OA
ENDBRANCH  25  27
ENDBRANCH  16  25
BRANCH   1  34
HETATM   34  C3  UNL     1       7.561   0.610  18.703  1.00  0.00     0.085 C
BRANCH  34  35
HETATM   35  C2  UNL     1       9.032   0.379  18.636  1.00  0.00     0.007 C
HETATM   36  C1  UNL     1       9.612  -0.137  17.547  1.00  0.00     0.012 C
ENDBRANCH  34  35
ENDBRANCH   1  34
TORSDOF 4
ENDMDL