MODEL 3
REMARK VINA RESULT: -8.543556861      1.410      1.757
REMARK  7 active torsions:
REMARK  status: ('A' for Active; 'I' for Inactive)
REMARK    1  A    between atoms: C2_2  and  N1_3
REMARK    2  A    between atoms: N1_3  and  C3_4
REMARK    3  A    between atoms: N1_3  and  C5_6
REMARK    4  A    between atoms: C5_6  and  N2_8
REMARK    5  A    between atoms: C8_11  and  N3_12
REMARK       I    between atoms: N3_12  and  C9_14
REMARK    6  A    between atoms: C9_14  and  C10_16
REMARK    7  A    between atoms: C15_21  and  C16_22
ROOT
HETATM    1  C10 UNL     1       7.827   3.161  18.811  1.00  0.00     0.051 C
HETATM    2  C11 UNL     1       9.154   3.312  18.122  1.00  0.00     0.024 C
HETATM    3  C12 UNL     1       9.809   2.086  17.619  1.00  0.00    -0.013 C
HETATM    4  C13 UNL     1       9.356   1.681  16.233  1.00  0.00     0.006 C
HETATM    5  C14 UNL     1       7.986   2.223  15.960  1.00  0.00     0.020 C
HETATM    6  C15 UNL     1       6.971   1.761  17.017  1.00  0.00     0.048 C
HETATM    7  C17 UNL     1       7.392   0.547  17.759  1.00  0.00     0.024 C
HETATM    8  C18 UNL     1       8.287   0.759  18.933  1.00  0.00    -0.012 C
HETATM    9  C19 UNL     1       9.733   0.916  18.550  1.00  0.00     0.009 C
HETATM   10  C20 UNL     1       7.889   1.934  19.746  1.00  0.00     0.025 C
HETATM   11  C21 UNL     1       6.653   2.960  17.927  1.00  0.00    -0.004 A
HETATM   12  C22 UNL     1       6.029   4.123  17.272  1.00  0.00     0.017 A
HETATM   13  C23 UNL     1       5.273   3.209  18.230  1.00  0.00    -0.007 A
HETATM   14  C24 UNL     1       4.719   3.879  19.461  1.00  0.00     0.011 C
ENDROOT
BRANCH   1  15
HETATM   15  C9  UNL     1       7.748   4.342  19.724  1.00  0.00     0.227 C
HETATM   16  N3  UNL     1       7.809   5.685  19.256  1.00  0.00    -0.356 N
ATOM     17  H3  UNL     1       7.915   5.841  18.253  1.00  0.00     0.162 HD
HETATM   18  O1  UNL     1       7.621   4.219  20.972  1.00  0.00    -0.273 OA
BRANCH  16  19
HETATM   19  C8  UNL     1       7.731   6.842  20.121  1.00  0.00     0.087 C
HETATM   20  C7  UNL     1       6.440   7.610  19.920  1.00  0.00     0.045 C
HETATM   21  C6  UNL     1       6.292   8.612  21.030  1.00  0.00     0.127 C
HETATM   22  N2  UNL     1       7.598   9.315  21.280  1.00  0.00    -0.358 N
HETATM   23  C26 UNL     1       8.440   9.224  20.120  1.00  0.00     0.127 C
HETATM   24  C25 UNL     1       8.915   7.785  19.953  1.00  0.00     0.045 C
BRANCH  22  25
HETATM   25  C5  UNL     1       7.824   9.951  22.477  1.00  0.00     0.172 C
HETATM   26  S1  UNL     1       8.069  11.624  22.326  1.00  0.00    -0.041 SA
BRANCH  25  27
HETATM   27  N1  UNL     1       7.882   9.485  23.775  1.00  0.00    -0.359 N
BRANCH  27  28
HETATM   28  C2  UNL     1       6.560   9.220  24.453  1.00  0.00     0.120 C
HETATM   29  C1  UNL     1       6.359   7.732  24.597  1.00  0.00     0.026 C
ENDBRANCH  27  28
BRANCH  27  30
HETATM   30  C3  UNL     1       8.998   9.174  24.621  1.00  0.00     0.120 C
HETATM   31  C4  UNL     1      10.247   8.824  23.866  1.00  0.00     0.026 C
ENDBRANCH  27  30
ENDBRANCH  25  27
ENDBRANCH  22  25
ENDBRANCH  16  19
ENDBRANCH   1  15
BRANCH   6  32
HETATM   32  C16 UNL     1       5.778   1.377  16.219  1.00  0.00     0.240 C
HETATM   33  N4  UNL     1       4.714   0.552  16.662  1.00  0.00    -0.061 NA
HETATM   34  O2  UNL     1       5.631   1.791  15.015  1.00  0.00    -0.276 OA
ENDBRANCH   6  32
TORSDOF 7
ENDMDL