MODEL 4
REMARK VINA RESULT: -8.175356555      2.452      3.576
REMARK  9 active torsions:
REMARK  status: ('A' for Active; 'I' for Inactive)
REMARK    1  A    between atoms: C2_2  and  C3_3
REMARK    2  A    between atoms: C3_3  and  C4_4
REMARK    3  A    between atoms: C4_4  and  C5_5
REMARK    4  A    between atoms: C5_5  and  N1_6
REMARK    5  A    between atoms: N2_15  and  C14_16
REMARK    6  A    between atoms: C14_16  and  O1_17
REMARK    7  A    between atoms: C14_16  and  N3_19
REMARK    8  A    between atoms: N3_19  and  C16_21
REMARK       I    between atoms: N4_24  and  C19_25
REMARK    9  A    between atoms: C19_25  and  C20_27
ROOT
HETATM    1  C3  UNL     1       6.665   4.455  19.813  1.00  0.00    -0.036 C
HETATM    2  C12 UNL     1       7.655   5.558  19.379  1.00  0.00     0.029 C
HETATM    3  C13 UNL     1       7.226   6.896  19.882  1.00  0.00     0.127 C
HETATM    4  N2  UNL     1       6.916   6.794  21.351  1.00  0.00    -0.343 N
HETATM    5  C23 UNL     1       5.751   5.989  21.570  1.00  0.00     0.084 C
HETATM    6  C24 UNL     1       4.513   6.847  21.829  1.00  0.00     0.032 C
HETATM    7  C25 UNL     1       5.446   5.218  20.273  1.00  0.00     0.034 C
ENDROOT
BRANCH   4   8
HETATM    8  C14 UNL     1       7.739   7.469  22.224  1.00  0.00     0.217 C
BRANCH   8   9
HETATM    9  O1  UNL     1       8.584   6.631  22.851  1.00  0.00    -0.332 OA
ATOM     10  H1  UNL     1       8.409   6.595  23.784  1.00  0.00     0.220 HD
ENDBRANCH   8   9
BRANCH   8  11
HETATM   11  N3  UNL     1       7.947   8.764  22.641  1.00  0.00    -0.347 N
HETATM   12  C15 UNL     1       8.069   9.822  21.565  1.00  0.00     0.153 C
BRANCH  11  13
HETATM   13  C16 UNL     1       8.092   9.227  23.996  1.00  0.00     0.090 C
HETATM   14  C17 UNL     1       9.352  10.038  24.114  1.00  0.00     0.045 C
HETATM   15  C18 UNL     1      10.555   9.270  24.483  1.00  0.00     0.128 C
HETATM   16  N4  UNL     1      10.310   8.433  25.630  1.00  0.00    -0.343 N
HETATM   17  C19 UNL     1      11.363   7.731  26.241  1.00  0.00     0.320 C
HETATM   18  C21 UNL     1       8.964   8.298  26.158  1.00  0.00     0.128 C
HETATM   19  O2  UNL     1      11.070   7.025  27.267  1.00  0.00    -0.261 OA
HETATM   20  C22 UNL     1       7.976   8.116  25.025  1.00  0.00     0.045 C
BRANCH  17  21
HETATM   21  C20 UNL     1      12.748   7.727  25.826  1.00  0.00     0.270 C
HETATM   22  O3  UNL     1      13.063   8.048  24.663  1.00  0.00    -0.640 OA
HETATM   23  O4  UNL     1      13.748   7.369  26.709  1.00  0.00    -0.640 OA
ENDBRANCH  17  21
ENDBRANCH  11  13
ENDBRANCH   8  11
ENDBRANCH   4   8
BRANCH   1  24
HETATM   24  C2  UNL     1       7.331   3.698  20.891  1.00  0.00     0.005 C
HETATM   25  C1  UNL     1       6.857   2.348  21.238  1.00  0.00     0.006 C
ENDBRANCH   1  24
BRANCH   1  26
HETATM   26  C4  UNL     1       6.328   3.726  18.556  1.00  0.00     0.037 C
BRANCH  26  27
HETATM   27  C5  UNL     1       7.208   3.893  17.386  1.00  0.00     0.237 C
BRANCH  27  28
HETATM   28  N1  UNL     1       8.029   2.683  17.139  1.00  0.00    -0.071 N
HETATM   29  C6  UNL     1       8.210   2.480  15.722  1.00  0.00     0.272 C
HETATM   30  C7  UNL     1       7.238   1.590  17.646  1.00  0.00     0.237 C
HETATM   31  C8  UNL     1       7.986   0.315  17.829  1.00  0.00     0.028 C
HETATM   32  C9  UNL     1       9.237   0.576  18.650  1.00  0.00     0.003 C
HETATM   33  C10 UNL     1      10.063   1.565  17.894  1.00  0.00     0.028 C
HETATM   34  C11 UNL     1       9.290   2.869  17.778  1.00  0.00     0.237 C
ENDBRANCH  27  28
ENDBRANCH  26  27
ENDBRANCH   1  26
TORSDOF 9
ENDMDL