MODEL 5
REMARK VINA RESULT: -7.607214760      2.250      3.291
REMARK  10 active torsions:
REMARK  status: ('A' for Active; 'I' for Inactive)
REMARK    1  A    between atoms: C2_2  and  C4_4
REMARK    2  A    between atoms: C4_4  and  N1_5
REMARK    3  A    between atoms: C4_4  and  C22_28
REMARK    4  A    between atoms: N1_5  and  C5_7
REMARK    5  A    between atoms: C5_7  and  O1_8
REMARK    6  A    between atoms: C5_7  and  C6_10
REMARK    7  A    between atoms: C11_15  and  N2_16
REMARK    8  A    between atoms: C22_28  and  O2_29
REMARK    9  A    between atoms: C22_28  and  N3_31
REMARK   10  A    between atoms: N3_31  and  O3_33
ROOT
HETATM    1  C6  UNL     1       7.366   2.317  19.378  1.00  0.00     0.060 C
HETATM    2  C7  UNL     1       8.168   1.022  19.758  1.00  0.00     0.025 C
HETATM    3  C8  UNL     1       8.970   0.491  18.637  1.00  0.00    -0.013 C
HETATM    4  C9  UNL     1       8.046   0.150  17.517  1.00  0.00     0.007 C
HETATM    5  C10 UNL     1       6.697   0.644  17.817  1.00  0.00     0.042 C
HETATM    6  C11 UNL     1       6.530   2.131  18.239  1.00  0.00     0.157 C
HETATM    7  C17 UNL     1       7.061   2.965  17.057  1.00  0.00     0.096 C
HETATM    8 BR1  UNL     1       6.441   4.815  17.123  1.00  0.00    -0.088 Br
HETATM    9  C18 UNL     1       8.500   2.994  16.785  1.00  0.00     0.023 C
HETATM   10  C19 UNL     1       9.408   2.819  17.942  1.00  0.00    -0.012 C
HETATM   11  C20 UNL     1       9.979   1.459  18.130  1.00  0.00     0.009 C
HETATM   12  C21 UNL     1       8.609   3.240  19.113  1.00  0.00     0.025 C
ENDROOT
BRANCH   1  13
HETATM   13  C5  UNL     1       7.079   2.859  20.709  1.00  0.00     0.123 C
BRANCH  13  14
HETATM   14  N1  UNL     1       7.366   4.101  21.284  1.00  0.00    -0.361 N
ATOM     15  H1  UNL     1       7.964   4.067  22.109  1.00  0.00     0.162 HD
BRANCH  14  16
HETATM   16  C4  UNL     1       6.942   5.435  20.883  1.00  0.00     0.163 C
BRANCH  16  17
HETATM   17  C2  UNL     1       7.910   6.527  21.070  1.00  0.00     0.008 C
HETATM   18  C1  UNL     1       7.460   7.593  22.089  1.00  0.00     0.012 C
HETATM   19  C3  UNL     1       7.915   7.346  19.748  1.00  0.00     0.012 C
ENDBRANCH  16  17
BRANCH  16  20
HETATM   20  C22 UNL     1       5.580   5.563  21.408  1.00  0.00     0.161 C
BRANCH  20  21
HETATM   21  O2  UNL     1       4.794   6.164  20.539  1.00  0.00    -0.346 OA
ATOM     22  H2  UNL     1       4.576   5.584  19.819  1.00  0.00     0.219 HD
ENDBRANCH  20  21
BRANCH  20  23
HETATM   23  N3  UNL     1       4.933   5.205  22.574  1.00  0.00    -0.245 N
HETATM   24  C23 UNL     1       4.139   6.261  23.277  1.00  0.00     0.187 C
BRANCH  23  25
HETATM   25  O3  UNL     1       4.843   4.025  23.198  1.00  0.00    -0.286 OA
ATOM     26  H3  UNL     1       4.107   3.435  23.308  1.00  0.00     0.244 HD
ENDBRANCH  23  25
ENDBRANCH  20  23
ENDBRANCH  16  20
ENDBRANCH  14  16
ENDBRANCH  13  14
BRANCH  13  27
HETATM   27  O1  UNL     1       6.454   2.112  21.581  1.00  0.00    -0.349 OA
ATOM     28  H1  UNL     1       6.174   1.307  21.163  1.00  0.00     0.219 HD
ENDBRANCH  13  27
ENDBRANCH   1  13
BRANCH   6  29
HETATM   29  N2  UNL     1       5.103   2.189  18.181  1.00  0.00    -0.060 N
HETATM   30  C12 UNL     1       4.550   2.074  16.846  1.00  0.00     0.273 C
HETATM   31  C13 UNL     1       4.442   1.043  18.868  1.00  0.00     0.238 C
HETATM   32  C14 UNL     1       2.946   1.413  18.867  1.00  0.00     0.029 C
HETATM   33  C15 UNL     1       2.895   2.828  18.453  1.00  0.00     0.029 C
HETATM   34  C16 UNL     1       4.354   3.169  18.849  1.00  0.00     0.238 C
ENDBRANCH   6  29
TORSDOF 10
ENDMDL