MODEL 1
REMARK VINA RESULT: -7.920303796      0.000      0.000
REMARK  6 active torsions:
REMARK  status: ('A' for Active; 'I' for Inactive)
REMARK    1  A    between atoms: O1_2  and  C2_3
REMARK    2  A    between atoms: C2_3  and  C3_4
REMARK    3  A    between atoms: C3_4  and  C4_5
REMARK    4  A    between atoms: C4_5  and  N1_6
REMARK    5  A    between atoms: C11_15  and  C12_16
REMARK       I    between atoms: C12_16  and  N3_18
REMARK    6  A    between atoms: C21_27  and  O3_28
ROOT
HETATM    1  N1  UNL     1       8.299   9.037  23.236  1.00  0.00    -0.067 N
HETATM    2  C5  UNL     1       7.596   8.116  24.084  1.00  0.00     0.243 C
HETATM    3  C6  UNL     1       6.317   7.540  23.560  1.00  0.00     0.085 C
HETATM    4  C7  UNL     1       6.539   6.860  22.226  1.00  0.00     0.019 A
HETATM    5  N2  UNL     1       6.282   5.555  22.134  1.00  0.00    -0.360 N
ATOM      6  H2  UNL     1       5.925   4.981  22.898  1.00  0.00     0.165 HD
HETATM    7  C8  UNL     1       6.557   5.097  20.904  1.00  0.00     0.039 A
HETATM    8  C9  UNL     1       7.023   6.169  20.144  1.00  0.00    -0.024 A
HETATM    9  C10 UNL     1       7.002   7.249  20.976  1.00  0.00    -0.009 A
HETATM   10  C11 UNL     1       7.413   8.575  20.525  1.00  0.00     0.073 C
HETATM   11  C15 UNL     1       6.784   9.672  21.367  1.00  0.00     0.052 C
HETATM   12  C16 UNL     1       7.514  10.021  22.609  1.00  0.00     0.239 C
HETATM   13  C17 UNL     1       8.912   8.668  20.854  1.00  0.00     0.052 C
HETATM   14  C18 UNL     1       9.201   8.423  22.300  1.00  0.00     0.239 C
HETATM   15  C19 UNL     1       7.418   5.906  18.727  1.00  0.00     0.044 C
HETATM   16  C20 UNL     1       8.065   4.531  18.660  1.00  0.00     0.044 C
HETATM   17  C21 UNL     1       7.184   3.443  19.162  1.00  0.00     0.083 A
HETATM   18  C22 UNL     1       5.686   3.570  19.086  1.00  0.00     0.070 A
HETATM   19  C23 UNL     1       6.416   3.743  20.364  1.00  0.00     0.094 A
HETATM   20 BR1  UNL     1       6.213   2.291  21.624  1.00  0.00    -0.075 Br
ENDROOT
BRANCH   1  21
HETATM   21  C4  UNL     1       9.218   9.733  24.204  1.00  0.00     0.239 C
BRANCH  21  22
HETATM   22  C3  UNL     1      10.516   9.048  24.285  1.00  0.00     0.054 C
BRANCH  22  23
HETATM   23  C2  UNL     1      11.028   8.900  25.677  1.00  0.00     0.168 C
BRANCH  23  24
HETATM   24  O1  UNL     1      10.537   8.081  26.577  1.00  0.00    -0.396 OA
HETATM   25  C1  UNL     1      11.217   7.164  27.237  1.00  0.00     0.201 C
ENDBRANCH  23  24
ENDBRANCH  22  23
ENDBRANCH  21  22
ENDBRANCH   1  21
BRANCH  10  26
HETATM   26  C12 UNL     1       7.199   8.950  19.143  1.00  0.00     0.232 C
HETATM   27  O2  UNL     1       8.264   9.233  18.468  1.00  0.00    -0.272 OA
HETATM   28  N3  UNL     1       6.000   9.050  18.437  1.00  0.00    -0.360 N
HETATM   29  C13 UNL     1       4.681   8.809  18.972  1.00  0.00     0.152 C
HETATM   30  C14 UNL     1       6.015   9.430  17.018  1.00  0.00     0.152 C
ENDBRANCH  10  26
BRANCH  17  31
HETATM   31  O3  UNL     1       7.751   2.168  19.039  1.00  0.00    -0.388 OA
ATOM     32  H3  UNL     1       7.106   1.473  18.982  1.00  0.00     0.210 HD
ENDBRANCH  17  31
TORSDOF 6
ENDMDL