MODEL 4
REMARK VINA RESULT: -8.749489693      1.202      1.537
REMARK  5 active torsions:
REMARK  status: ('A' for Active; 'I' for Inactive)
REMARK    1  A    between atoms: C2_3  and  C3_4
REMARK       I    between atoms: C3_4  and  N2_6
REMARK    2  A    between atoms: N2_6  and  C4_8
REMARK    3  A    between atoms: N3_15  and  C11_16
REMARK    4  A    between atoms: C11_16  and  C12_17
REMARK       I    between atoms: C12_17  and  N4_19
REMARK    5  A    between atoms: N4_19  and  C13_21
ROOT
HETATM    1  C4  UNL     1       5.554   7.830  21.827  1.00  0.00     0.329 C
HETATM    2  C5  UNL     1       4.885   8.696  20.759  1.00  0.00     0.039 C
HETATM    3  C6  UNL     1       5.718   9.900  20.441  1.00  0.00     0.010 C
HETATM    4  C7  UNL     1       5.642  10.811  21.663  1.00  0.00     0.036 C
HETATM    5  C8  UNL     1       5.428   9.902  22.853  1.00  0.00     0.226 C
HETATM    6  C9  UNL     1       3.952   9.512  22.838  1.00  0.00     0.036 C
HETATM    7  C10 UNL     1       3.578   9.160  21.420  1.00  0.00     0.010 C
HETATM    8  N3  UNL     1       6.289   8.733  22.699  1.00  0.00     0.125 N
ENDROOT
BRANCH   1   9
HETATM    9  N2  UNL     1       6.428   6.850  21.222  1.00  0.00    -0.329 N
HETATM   10  C3  UNL     1       6.065   5.500  21.172  1.00  0.00     0.253 C
HETATM   11  O1  UNL     1       4.988   5.110  21.642  1.00  0.00    -0.271 OA
ATOM     12  H2  UNL     1       7.320   7.147  20.827  1.00  0.00     0.164 HD
BRANCH  10  13
HETATM   13  C2  UNL     1       7.002   4.543  20.541  1.00  0.00     0.320 C
HETATM   14  N1  UNL     1       6.450   3.208  20.407  1.00  0.00     0.119 N
HETATM   15  C1  UNL     1       7.084   2.256  21.302  1.00  0.00     0.313 C
HETATM   16  C21 UNL     1       6.584   2.824  19.015  1.00  0.00     0.225 C
HETATM   17  C20 UNL     1       5.520   3.620  18.248  1.00  0.00     0.055 C
HETATM   18 BR1  UNL     1       6.619   0.993  18.651  1.00  0.00    -0.050 Br
HETATM   19  C22 UNL     1       7.815   3.604  18.602  1.00  0.00     0.012 A
HETATM   20  C19 UNL     1       6.016   5.057  18.395  1.00  0.00     0.011 C
HETATM   21  C18 UNL     1       7.337   4.943  19.118  1.00  0.00     0.040 C
HETATM   22  C23 UNL     1       8.498   3.437  17.336  1.00  0.00     0.014 A
HETATM   23  C24 UNL     1       9.162   3.097  18.712  1.00  0.00     0.014 A
ENDBRANCH  10  13
ENDBRANCH   1   9
BRANCH   8  24
HETATM   24  C11 UNL     1       6.526   8.070  23.944  1.00  0.00     0.377 C
BRANCH  24  25
HETATM   25  C12 UNL     1       7.906   7.693  24.229  1.00  0.00     0.246 C
HETATM   26  O2  UNL     1       8.593   7.226  23.260  1.00  0.00    -0.272 OA
HETATM   27  N4  UNL     1       8.503   7.819  25.487  1.00  0.00    -0.355 N
ATOM     28  H4  UNL     1       7.974   8.194  26.275  1.00  0.00     0.162 HD
BRANCH  27  29
HETATM   29  C13 UNL     1       9.889   7.409  25.657  1.00  0.00     0.084 C
HETATM   30  C14 UNL     1      10.148   6.912  27.059  1.00  0.00     0.025 C
HETATM   31  C15 UNL     1      11.554   7.353  27.420  1.00  0.00     0.002 C
HETATM   32  C16 UNL     1      12.085   8.068  26.198  1.00  0.00     0.002 C
HETATM   33  C17 UNL     1      10.829   8.574  25.527  1.00  0.00     0.025 C
ENDBRANCH  27  29
ENDBRANCH  24  25
ENDBRANCH   8  24
TORSDOF 5
ENDMDL