MODEL 4
REMARK VINA RESULT: -9.027650929      2.576      4.009
REMARK  7 active torsions:
REMARK  status: ('A' for Active; 'I' for Inactive)
REMARK       I    between atoms: C2_2  and  N1_4
REMARK    1  A    between atoms: N1_4  and  C3_6
REMARK    2  A    between atoms: N2_9  and  C6_10
REMARK    3  A    between atoms: C6_10  and  O2_11
REMARK    4  A    between atoms: C7_13  and  N3_14
REMARK       I    between atoms: N3_14  and  C8_16
REMARK    5  A    between atoms: C8_16  and  C9_18
REMARK    6  A    between atoms: C9_18  and  C10_19
REMARK    7  A    between atoms: C21_30  and  C22_31
ROOT
HETATM    1  C6  UNL     1       5.037   6.268  22.288  1.00  0.00     0.153 C
HETATM    2  C7  UNL     1       5.272   5.125  21.459  1.00  0.00     0.146 C
ENDROOT
BRANCH   1   3
HETATM    3  N2  UNL     1       5.833   7.343  22.661  1.00  0.00    -0.360 N
HETATM    4  C5  UNL     1       5.118   8.628  22.914  1.00  0.00     0.127 C
HETATM    5  C4  UNL     1       6.022   9.548  23.656  1.00  0.00     0.045 C
HETATM    6  C3  UNL     1       7.269   9.870  22.853  1.00  0.00     0.092 C
HETATM    7  C21 UNL     1       7.880   8.629  22.272  1.00  0.00     0.036 C
HETATM    8  C20 UNL     1       7.249   7.334  22.762  1.00  0.00     0.132 C
BRANCH   6   9
HETATM    9  N1  UNL     1       6.885  10.758  21.767  1.00  0.00    -0.356 N
HETATM   10  C2  UNL     1       7.666  11.894  21.467  1.00  0.00     0.213 C
HETATM   11  C1  UNL     1       7.308  12.816  20.373  1.00  0.00     0.117 C
HETATM   12  O1  UNL     1       8.705  12.144  22.144  1.00  0.00    -0.274 OA
ATOM     13  H1  UNL     1       6.048  10.558  21.220  1.00  0.00     0.162 HD
ENDBRANCH   6   9
BRANCH   7  14
HETATM   14  C22 UNL     1       9.367   8.535  22.608  1.00  0.00     0.093 C
HETATM   15 BR1  UNL     1       9.726   9.165  24.393  1.00  0.00    -0.096 Br
ENDBRANCH   7  14
ENDBRANCH   1   3
BRANCH   1  16
HETATM   16  O2  UNL     1       3.823   6.305  22.791  1.00  0.00    -0.345 OA
ATOM     17  H2  UNL     1       3.744   5.875  23.634  1.00  0.00     0.219 HD
ENDBRANCH   1  16
BRANCH   2  18
HETATM   18  N3  UNL     1       6.519   4.785  20.917  1.00  0.00    -0.333 N
HETATM   19  C8  UNL     1       6.834   4.892  19.505  1.00  0.00     0.222 C
HETATM   20  O3  UNL     1       5.972   5.320  18.705  1.00  0.00    -0.273 OA
ATOM     21  H3  UNL     1       7.243   4.445  21.549  1.00  0.00     0.168 HD
BRANCH  19  22
HETATM   22  C9  UNL     1       8.158   4.502  19.011  1.00  0.00     0.112 C
BRANCH  22  23
HETATM   23  C10 UNL     1       8.314   3.129  18.469  1.00  0.00    -0.031 C
HETATM   24  C11 UNL     1       9.831   2.892  18.208  1.00  0.00     0.014 C
HETATM   25  C12 UNL     1      10.026   1.510  17.671  1.00  0.00    -0.013 C
HETATM   26  C13 UNL     1       9.561   0.497  18.721  1.00  0.00     0.009 C
HETATM   27  C17 UNL     1       9.266   1.225  16.412  1.00  0.00     0.009 C
HETATM   28  C14 UNL     1       8.093   0.681  18.974  1.00  0.00    -0.013 C
HETATM   29  C15 UNL     1       7.240   0.596  17.742  1.00  0.00     0.009 C
HETATM   30  C19 UNL     1       7.920   2.112  19.510  1.00  0.00     0.014 C
HETATM   31  C16 UNL     1       7.810   1.496  16.679  1.00  0.00    -0.013 C
HETATM   32  C18 UNL     1       7.670   2.934  17.134  1.00  0.00     0.014 C
ENDBRANCH  22  23
ENDBRANCH  19  22
ENDBRANCH   2  18
TORSDOF 7
ENDMDL