MODEL 5
REMARK VINA RESULT: -8.075145682      4.537      5.841
REMARK  5 active torsions:
REMARK  status: ('A' for Active; 'I' for Inactive)
REMARK    1  A    between atoms: C4_4  and  C5_5
REMARK       I    between atoms: C5_5  and  N1_7
REMARK    2  A    between atoms: C11_13  and  C12_14
REMARK    3  A    between atoms: C12_14  and  N2_15
REMARK       I    between atoms: N2_15  and  C13_17
REMARK    4  A    between atoms: C13_17  and  C14_19
REMARK    5  A    between atoms: N4_31  and  C21_32
ROOT
HETATM    1  C1  UNL     1       2.681   9.930  20.246  1.00  0.00     0.014 C
HETATM    2  C2  UNL     1       2.816   9.635  21.396  1.00  0.00    -0.095 C
HETATM    3  C3  UNL     1       2.964   9.291  22.790  1.00  0.00     0.169 C
HETATM    4  C4  UNL     1       4.032   8.226  22.997  1.00  0.00     0.131 C
HETATM    5  C19 UNL     1       3.898   7.580  24.359  1.00  0.00     0.105 C
HETATM    6  C20 UNL     1       3.003   6.381  24.381  1.00  0.00     0.034 C
HETATM    7  N3  UNL     1       3.511   8.553  25.398  1.00  0.00    -0.301 N
ATOM      8  H3  UNL     1       4.091   8.876  26.172  1.00  0.00     0.173 HD
HETATM    9  S1  UNL     1       1.868   9.051  25.052  1.00  0.00     0.300 S
HETATM   10  O3  UNL     1       0.907   8.244  25.825  1.00  0.00    -0.188 OA
HETATM   11  O4  UNL     1       1.813  10.523  25.372  1.00  0.00    -0.188 OA
HETATM   12  N4  UNL     1       1.735   8.804  23.328  1.00  0.00    -0.173 NA
ENDROOT
BRANCH   4  13
HETATM   13  C5  UNL     1       5.379   8.828  22.911  1.00  0.00     0.229 C
HETATM   14  O1  UNL     1       5.698   9.613  23.870  1.00  0.00    -0.273 OA
HETATM   15  N1  UNL     1       6.274   8.567  21.853  1.00  0.00    -0.342 N
HETATM   16  C6  UNL     1       6.006   7.739  20.722  1.00  0.00     0.127 C
HETATM   17  C11 UNL     1       7.624   9.202  21.933  1.00  0.00     0.126 C
HETATM   18  C7  UNL     1       6.111   8.585  19.459  1.00  0.00     0.024 C
HETATM   19  C8  UNL     1       7.436   9.288  19.418  1.00  0.00    -0.015 C
HETATM   20  C9  UNL     1       7.428  10.323  18.317  1.00  0.00     0.010 C
HETATM   21  C10 UNL     1       7.719  10.019  20.713  1.00  0.00     0.035 C
BRANCH  17  22
HETATM   22  C12 UNL     1       8.607   8.168  22.263  1.00  0.00     0.089 C
BRANCH  22  23
HETATM   23  N2  UNL     1       9.192   8.108  23.535  1.00  0.00    -0.338 N
HETATM   24  C13 UNL     1      10.085   8.954  24.185  1.00  0.00     0.225 C
HETATM   25  O2  UNL     1      10.603   9.998  23.743  1.00  0.00    -0.273 OA
ATOM     26  H2  UNL     1       8.913   7.296  24.085  1.00  0.00     0.167 HD
BRANCH  24  27
HETATM   27  C14 UNL     1      10.512   8.617  25.598  1.00  0.00     0.078 C
HETATM   28  C15 UNL     1      11.929   8.138  25.656  1.00  0.00     0.014 C
HETATM   29  C16 UNL     1      11.943   7.070  26.733  1.00  0.00     0.001 C
HETATM   30  C17 UNL     1      10.561   7.031  27.326  1.00  0.00     0.001 C
HETATM   31  C18 UNL     1       9.705   7.460  26.137  1.00  0.00     0.014 C
ENDBRANCH  24  27
ENDBRANCH  22  23
ENDBRANCH  17  22
ENDBRANCH   4  13
BRANCH  12  32
HETATM   32  C21 UNL     1       0.556   9.415  22.788  1.00  0.00     0.069 C
HETATM   33  C22 UNL     1      -0.480   8.295  22.618  1.00  0.00     0.027 C
HETATM   34  C23 UNL     1      -0.062  10.455  23.660  1.00  0.00     0.027 C
ENDBRANCH  12  32
TORSDOF 5
ENDMDL