MODEL 4
REMARK VINA RESULT: -9.715218939      1.937      2.601
REMARK  7 active torsions:
REMARK  status: ('A' for Active; 'I' for Inactive)
REMARK    1  A    between atoms: C3_3  and  N1_4
REMARK    2  A    between atoms: N1_4  and  C4_6
REMARK    3  A    between atoms: C4_6  and  O1_7
REMARK    4  A    between atoms: C4_6  and  C5_9
REMARK    5  A    between atoms: C5_9  and  N2_10
REMARK       I    between atoms: N2_10  and  C6_12
REMARK    6  A    between atoms: C6_12  and  C7_14
REMARK       I    between atoms: N3_19  and  C12_20
REMARK    7  A    between atoms: C12_20  and  C13_22
ROOT
HETATM    1  C1  UNL     1      10.831   9.280  25.499  1.00  0.00     0.014 C
HETATM    2  C2  UNL     1      10.264   9.000  24.481  1.00  0.00    -0.098 C
HETATM    3  C3  UNL     1       9.545   8.718  23.211  1.00  0.00     0.215 C
ENDROOT
BRANCH   3   4
HETATM    4  N1  UNL     1       8.129   8.864  23.537  1.00  0.00    -0.362 N
ATOM      5  H1  UNL     1       7.734   9.802  23.463  1.00  0.00     0.162 HD
BRANCH   4   6
HETATM    6  C4  UNL     1       7.273   7.857  23.933  1.00  0.00     0.141 C
BRANCH   6   7
HETATM    7  O1  UNL     1       7.786   6.931  24.706  1.00  0.00    -0.348 OA
ATOM      8  H1  UNL     1       7.179   6.287  25.049  1.00  0.00     0.219 HD
ENDBRANCH   6   7
BRANCH   6   9
HETATM    9  C5  UNL     1       5.847   7.674  23.590  1.00  0.00     0.100 C
HETATM   10  C24 UNL     1       5.367   9.129  23.370  1.00  0.00     0.070 C
HETATM   11  C25 UNL     1       3.873   9.239  23.369  1.00  0.00     0.275 C
HETATM   12  N4  UNL     1       3.278   8.611  24.533  1.00  0.00     0.084 N
HETATM   13  C26 UNL     1       2.301   9.469  25.094  1.00  0.00     0.309 C
HETATM   14  C27 UNL     1       4.232   8.083  25.448  1.00  0.00     0.275 C
HETATM   15  C28 UNL     1       5.142   7.099  24.817  1.00  0.00     0.070 C
BRANCH   9  16
HETATM   16  N2  UNL     1       5.670   6.872  22.464  1.00  0.00    -0.342 N
HETATM   17  C6  UNL     1       6.219   6.754  21.174  1.00  0.00     0.241 C
HETATM   18  O2  UNL     1       7.117   7.519  20.806  1.00  0.00    -0.271 OA
ATOM     19  H2  UNL     1       4.940   6.177  22.618  1.00  0.00     0.163 HD
BRANCH  17  20
HETATM   20  C7  UNL     1       5.633   5.673  20.358  1.00  0.00     0.182 C
HETATM   21  C8  UNL     1       4.680   4.898  21.194  1.00  0.00     0.065 C
HETATM   22  C9  UNL     1       5.257   3.710  20.386  1.00  0.00     0.031 C
HETATM   23  C10 UNL     1       4.169   3.337  19.388  1.00  0.00     0.038 C
HETATM   24  C11 UNL     1       5.558   2.651  21.429  1.00  0.00     0.038 C
HETATM   25  N3  UNL     1       6.306   4.530  19.884  1.00  0.00    -0.329 N
HETATM   26  C12 UNL     1       7.529   4.281  19.148  1.00  0.00     0.233 C
HETATM   27  O3  UNL     1       8.192   5.382  18.985  1.00  0.00    -0.272 OA
BRANCH  26  28
HETATM   28  C13 UNL     1       8.102   3.084  18.583  1.00  0.00     0.078 C
HETATM   29  C14 UNL     1       7.894   1.867  19.469  1.00  0.00     0.027 C
HETATM   30  C15 UNL     1       8.303   0.601  18.784  1.00  0.00    -0.012 C
HETATM   31  C16 UNL     1       9.797   0.692  18.562  1.00  0.00     0.009 C
HETATM   32  C20 UNL     1       7.601   0.373  17.490  1.00  0.00     0.012 C
HETATM   33  C17 UNL     1      10.083   1.854  17.672  1.00  0.00    -0.012 C
HETATM   34  C18 UNL     1       9.382   1.612  16.351  1.00  0.00     0.012 C
HETATM   35  C23 UNL     1       9.564   3.152  18.258  1.00  0.00     0.027 C
HETATM   36  C19 UNL     1       7.910   1.535  16.609  1.00  0.00     0.027 C
HETATM   37  C21 UNL     1       7.392   2.804  17.256  1.00  0.00     0.119 C
HETATM   38  C22 UNL     1       7.523   3.921  16.263  1.00  0.00     0.053 C
HETATM   39  F1  UNL     1       6.065   2.579  17.548  1.00  0.00    -0.242 F
ENDBRANCH  26  28
ENDBRANCH  17  20
ENDBRANCH   9  16
ENDBRANCH   6   9
ENDBRANCH   4   6
ENDBRANCH   3   4
TORSDOF 7
ENDMDL