MODEL 2
REMARK VINA RESULT: -8.025740148      0.860      1.199
REMARK  6 active torsions:
REMARK  status: ('A' for Active; 'I' for Inactive)
REMARK       I    between atoms: N1_2  and  C2_4
REMARK    1  A    between atoms: C2_4  and  C3_6
REMARK    2  A    between atoms: C7_10  and  C8_11
REMARK       I    between atoms: N2_15  and  C11_16
REMARK    3  A    between atoms: C11_16  and  C12_18
REMARK    4  A    between atoms: C12_18  and  C13_19
REMARK    5  A    between atoms: C18_24  and  C19_25
REMARK       I    between atoms: C19_25  and  N3_27
REMARK    6  A    between atoms: N3_27  and  C20_29
ROOT
HETATM    1  C3  UNL     1       7.639   9.318  22.382  1.00  0.00     0.184 C
HETATM    2  C4  UNL     1       6.740  10.508  22.221  1.00  0.00     0.027 A
HETATM    3  C5  UNL     1       5.306  10.064  22.032  1.00  0.00     0.009 A
HETATM    4  C6  UNL     1       5.331  10.681  20.660  1.00  0.00     0.011 A
HETATM    5  C7  UNL     1       6.745  11.163  20.914  1.00  0.00    -0.024 A
HETATM    6  C9  UNL     1       7.748  10.693  19.920  1.00  0.00     0.030 C
HETATM    7  C10 UNL     1       7.985   9.225  19.892  1.00  0.00     0.127 C
HETATM    8  N2  UNL     1       7.851   8.588  21.169  1.00  0.00    -0.338 N
HETATM    9  C11 UNL     1       7.940   7.146  21.186  1.00  0.00     0.221 C
HETATM   10  O2  UNL     1       7.823   6.588  22.307  1.00  0.00    -0.273 OA
ENDROOT
BRANCH   9  11
HETATM   11  C12 UNL     1       8.157   6.368  19.973  1.00  0.00     0.108 C
BRANCH  11  12
HETATM   12  C13 UNL     1       7.072   5.465  19.533  1.00  0.00     0.007 C
HETATM   13  C14 UNL     1       5.716   6.087  19.520  1.00  0.00     0.006 C
HETATM   14  C15 UNL     1       5.579   7.148  18.442  1.00  0.00     0.000 C
HETATM   15  C16 UNL     1       6.202   6.711  17.136  1.00  0.00     0.001 C
HETATM   16  C17 UNL     1       6.335   5.215  17.178  1.00  0.00     0.014 C
HETATM   17  C18 UNL     1       7.399   4.829  18.177  1.00  0.00     0.082 C
BRANCH  17  18
HETATM   18  C19 UNL     1       7.451   3.352  18.252  1.00  0.00     0.222 C
HETATM   19  O3  UNL     1       6.379   2.717  18.403  1.00  0.00    -0.273 OA
HETATM   20  N3  UNL     1       8.703   2.664  18.155  1.00  0.00    -0.353 N
ATOM     21  H3  UNL     1       9.564   3.196  18.033  1.00  0.00     0.163 HD
BRANCH  20  22
HETATM   22  C20 UNL     1       8.755   1.233  18.229  1.00  0.00     0.022 C
HETATM   23  C21 UNL     1      10.189   0.765  18.187  1.00  0.00     0.037 C
HETATM   24  C22 UNL     1       8.104   0.709  19.512  1.00  0.00     0.037 C
HETATM   25  C23 UNL     1       8.051   0.580  17.044  1.00  0.00     0.037 C
ENDBRANCH  20  22
ENDBRANCH  17  18
ENDBRANCH  11  12
ENDBRANCH   9  11
BRANCH   1  26
HETATM   26  C2  UNL     1       8.917   9.663  23.053  1.00  0.00     0.240 C
HETATM   27  N1  UNL     1       9.735   8.625  23.562  1.00  0.00    -0.364 N
HETATM   28  C1  UNL     1      11.000   8.892  24.230  1.00  0.00     0.149 C
ATOM     29  H1  UNL     1       9.427   7.658  23.457  1.00  0.00     0.161 HD
HETATM   30  O1  UNL     1       9.320  10.847  23.195  1.00  0.00    -0.271 OA
ENDBRANCH   1  26
BRANCH   5  31
HETATM   31  C8  UNL     1       6.732  12.698  20.931  1.00  0.00     0.095 C
HETATM   32 BR1  UNL     1       8.516  13.370  20.599  1.00  0.00    -0.096 Br
ENDBRANCH   5  31
TORSDOF 6
ENDMDL