MODEL 2
REMARK VINA RESULT: -9.012238138      3.001      8.546
REMARK  5 active torsions:
REMARK  status: ('A' for Active; 'I' for Inactive)
REMARK    1  A    between atoms: C2_2  and  C3_3
REMARK    2  A    between atoms: C5_5  and  C6_6
REMARK    3  A    between atoms: C7_10  and  C8_11
REMARK       I    between atoms: C8_11  and  N2_13
REMARK       I    between atoms: C9_15  and  N4_17
REMARK    4  A    between atoms: C10_19  and  C11_21
REMARK    5  A    between atoms: C11_21  and  C12_22
ROOT
HETATM    1  C8  UNL     1       6.558   5.366  20.651  1.00  0.00     0.256 C
HETATM    2  O1  UNL     1       5.435   5.906  20.797  1.00  0.00    -0.271 OA
HETATM    3  N2  UNL     1       7.606   5.791  21.567  1.00  0.00    -0.299 N
ATOM      4  H2  UNL     1       8.340   5.161  21.891  1.00  0.00     0.171 HD
HETATM    5  C9  UNL     1       7.536   7.016  21.935  1.00  0.00     0.195 C
HETATM    6  N3  UNL     1       6.437   7.867  21.432  1.00  0.00    -0.063 NA
HETATM    7  N4  UNL     1       8.398   7.824  22.699  1.00  0.00    -0.328 N
ATOM      8  H4  UNL     1       9.301   8.106  22.318  1.00  0.00     0.169 HD
HETATM    9  C10 UNL     1       8.054   8.205  23.865  1.00  0.00     0.063 C
HETATM   10 BR1  UNL     1       6.382   7.647  24.589  1.00  0.00    -0.036 Br
ENDROOT
BRANCH   1  11
HETATM   11  C7  UNL     1       6.762   4.386  19.558  1.00  0.00     0.301 C
HETATM   12  N1  UNL     1       8.074   4.578  19.028  1.00  0.00    -0.043 N
HETATM   13  C6  UNL     1       8.197   4.051  17.733  1.00  0.00     0.313 C
ATOM     14  H12 UNL     1       8.785   4.197  19.652  1.00  0.00     0.279 HD
ATOM     15  H11 UNL     1       8.344   5.560  19.056  1.00  0.00     0.279 HD
HETATM   16  S1  UNL     1       6.682   4.446  16.945  1.00  0.00     0.184 S
HETATM   17  C18 UNL     1       5.766   4.728  18.472  1.00  0.00     0.096 C
HETATM   18  O2  UNL     1       6.151   3.322  16.166  1.00  0.00    -0.225 OA
HETATM   19  O3  UNL     1       6.800   5.711  16.141  1.00  0.00    -0.225 OA
HETATM   20  C19 UNL     1       4.569   3.825  18.436  1.00  0.00     0.034 C
HETATM   21  C20 UNL     1       5.308   6.134  18.362  1.00  0.00     0.034 C
BRANCH  13  22
HETATM   22  C5  UNL     1       8.593   2.641  17.522  1.00  0.00     0.036 A
HETATM   23  C3  UNL     1       9.123   1.760  18.582  1.00  0.00    -0.007 A
HETATM   24  C4  UNL     1      10.127   2.405  17.664  1.00  0.00     0.013 A
BRANCH  23  25
HETATM   25  C2  UNL     1       9.091   0.249  18.443  1.00  0.00     0.000 C
HETATM   26  C1  UNL     1      10.484  -0.216  18.014  1.00  0.00     0.005 C
ENDBRANCH  23  25
ENDBRANCH  13  22
ENDBRANCH   1  11
BRANCH   9  27
HETATM   27  C11 UNL     1       8.820   9.230  24.682  1.00  0.00     0.103 C
BRANCH  27  28
HETATM   28  C12 UNL     1       9.895   8.428  25.396  1.00  0.00    -0.052 A
HETATM   29  C13 UNL     1       9.562   7.640  26.452  1.00  0.00     0.007 A
HETATM   30  C14 UNL     1      10.586   6.984  27.139  1.00  0.00     0.001 A
HETATM   31  C15 UNL     1      11.904   7.121  26.780  1.00  0.00     0.000 A
HETATM   32  C16 UNL     1      12.229   7.924  25.706  1.00  0.00     0.001 A
HETATM   33  C17 UNL     1      11.210   8.555  25.041  1.00  0.00     0.007 A
ENDBRANCH  27  28
ENDBRANCH   9  27
TORSDOF 5
ENDMDL