MODEL 3
REMARK VINA RESULT: -7.599112874      4.374      5.907
REMARK  6 active torsions:
REMARK  status: ('A' for Active; 'I' for Inactive)
REMARK    1  A    between atoms: C2_2  and  C3_3
REMARK       I    between atoms: N1_9  and  C8_10
REMARK    2  A    between atoms: C8_10  and  C9_12
REMARK    3  A    between atoms: C9_12  and  N2_13
REMARK    4  A    between atoms: C14_18  and  C15_19
REMARK    5  A    between atoms: C15_19  and  C16_20
REMARK    6  A    between atoms: C21_30  and  O3_31
ROOT
HETATM    1  C3  UNL     1       7.361   8.636  21.796  1.00  0.00     0.005 C
HETATM    2  C4  UNL     1       8.616   8.309  22.638  1.00  0.00     0.022 C
HETATM    3  C5  UNL     1       6.214   8.218  22.602  1.00  0.00     0.088 C
HETATM    4  C6  UNL     1       5.038   9.221  22.585  1.00  0.00     0.021 C
HETATM    5  C7  UNL     1       5.679   6.851  22.471  1.00  0.00     0.235 C
HETATM    6  O1  UNL     1       5.085   6.412  23.470  1.00  0.00    -0.272 OA
HETATM    7  N1  UNL     1       5.744   5.938  21.330  1.00  0.00    -0.252 N
HETATM    8  C8  UNL     1       4.529   5.283  21.045  1.00  0.00     0.257 C
HETATM    9  O2  UNL     1       4.328   4.631  19.992  1.00  0.00    -0.271 OA
HETATM   10  C13 UNL     1       6.917   5.882  20.529  1.00  0.00     0.049 C
HETATM   11  C14 UNL     1       7.515   4.730  19.929  1.00  0.00     0.006 C
HETATM   12  C21 UNL     1       6.859   7.182  19.723  1.00  0.00     0.188 C
HETATM   13  C22 UNL     1       7.507   8.345  20.375  1.00  0.00     0.057 C
HETATM   14  C23 UNL     1       8.991   8.268  19.941  1.00  0.00     0.032 C
HETATM   15 BR1  UNL     1       6.880   9.884  19.301  1.00  0.00    -0.082 Br
ENDROOT
BRANCH  11  16
HETATM   16  C15 UNL     1       7.005   3.777  18.972  1.00  0.00     0.071 C
BRANCH  16  17
HETATM   17  C16 UNL     1       8.121   2.764  18.713  1.00  0.00    -0.011 A
HETATM   18  C17 UNL     1       9.265   3.159  18.060  1.00  0.00     0.012 A
HETATM   19  C18 UNL     1      10.279   2.249  17.839  1.00  0.00     0.018 A
HETATM   20  C19 UNL     1      10.142   0.932  18.276  1.00  0.00     0.089 A
HETATM   21  N3  UNL     1       9.029   0.563  18.906  1.00  0.00    -0.352 N
HETATM   22  C20 UNL     1       8.046   1.457  19.118  1.00  0.00     0.105 A
ATOM     23  H3  UNL     1       8.922  -0.398  19.229  1.00  0.00     0.166 HD
HETATM   24  N4  UNL     1       6.985   1.041  19.719  1.00  0.00    -0.385 N
ATOM     25  H42 UNL     1       6.239   1.719  19.879  1.00  0.00     0.157 HD
ATOM     26  H41 UNL     1       6.930   0.068  20.020  1.00  0.00     0.157 HD
ENDBRANCH  16  17
ENDBRANCH  11  16
BRANCH  12  27
HETATM   27  O3  UNL     1       7.447   7.033  18.469  1.00  0.00    -0.388 OA
ATOM     28  H3  UNL     1       8.177   7.629  18.354  1.00  0.00     0.210 HD
ENDBRANCH  12  27
BRANCH   8  29
HETATM   29  C9  UNL     1       3.366   5.309  21.972  1.00  0.00     0.339 C
BRANCH  29  30
HETATM   30  N2  UNL     1       3.049   3.959  22.448  1.00  0.00    -0.070 N
HETATM   31  C10 UNL     1       2.041   3.326  21.626  1.00  0.00     0.272 C
HETATM   32  C11 UNL     1       2.475   4.143  23.769  1.00  0.00     0.272 C
HETATM   33  C12 UNL     1       4.242   3.154  22.597  1.00  0.00     0.272 C
ENDBRANCH  29  30
ENDBRANCH   8  29
BRANCH   1  34
HETATM   34  C2  UNL     1       7.327  10.172  21.873  1.00  0.00    -0.025 C
HETATM   35  C1  UNL     1       8.186  10.866  22.578  1.00  0.00     0.008 C
ENDBRANCH   1  34
TORSDOF 6
ENDMDL