MODEL 5
REMARK VINA RESULT: -8.212736234      1.121      1.347
REMARK  6 active torsions:
REMARK  status: ('A' for Active; 'I' for Inactive)
REMARK    1  A    between atoms: C3_4  and  C4_5
REMARK    2  A    between atoms: C5_7  and  C6_8
REMARK    3  A    between atoms: C6_8  and  N2_9
REMARK    4  A    between atoms: C6_8  and  C18_23
REMARK       I    between atoms: N2_9  and  C7_11
REMARK    5  A    between atoms: C7_11  and  C8_13
REMARK       I    between atoms: C18_23  and  N3_25
REMARK    6  A    between atoms: N3_25  and  C19_27
ROOT
HETATM    1  C6  UNL     1       6.501   6.177  19.924  1.00  0.00     0.183 C
ENDROOT
BRANCH   1   2
HETATM    2  C5  UNL     1       5.759   5.649  21.092  1.00  0.00     0.052 C
HETATM    3  C3  UNL     1       5.085   4.350  20.926  1.00  0.00     0.032 C
HETATM    4  C2  UNL     1       4.156   4.306  22.148  1.00  0.00     0.277 C
HETATM    5  N1  UNL     1       3.738   5.681  22.342  1.00  0.00     0.085 N
HETATM    6  C1  UNL     1       3.506   6.002  23.715  1.00  0.00     0.309 C
HETATM    7  C24 UNL     1       4.740   6.531  21.707  1.00  0.00     0.279 C
BRANCH   3   8
HETATM    8  C4  UNL     1       4.299   4.117  19.686  1.00  0.00     0.092 C
HETATM    9 BR1  UNL     1       3.898   2.277  19.313  1.00  0.00    -0.096 Br
ENDBRANCH   3   8
ENDBRANCH   1   2
BRANCH   1  10
HETATM   10  N2  UNL     1       7.377   5.179  19.358  1.00  0.00    -0.347 N
HETATM   11  C7  UNL     1       7.567   4.880  18.010  1.00  0.00     0.223 C
HETATM   12  O1  UNL     1       6.918   5.534  17.153  1.00  0.00    -0.273 OA
ATOM     13  H2  UNL     1       7.921   4.629  20.022  1.00  0.00     0.163 HD
BRANCH  11  14
HETATM   14  C8  UNL     1       8.488   3.841  17.543  1.00  0.00     0.086 C
HETATM   15  C9  UNL     1       7.930   2.963  16.475  1.00  0.00    -0.001 C
HETATM   16  C10 UNL     1       9.065   2.123  15.895  1.00  0.00     0.010 C
HETATM   17  C14 UNL     1       6.890   1.999  16.981  1.00  0.00     0.010 C
HETATM   18  C11 UNL     1       9.686   1.293  17.013  1.00  0.00    -0.013 C
HETATM   19  C12 UNL     1       8.632   0.337  17.499  1.00  0.00     0.009 C
HETATM   20  C17 UNL     1      10.208   2.206  18.080  1.00  0.00     0.010 C
HETATM   21  C13 UNL     1       7.481   1.136  18.066  1.00  0.00    -0.013 C
HETATM   22  C15 UNL     1       8.050   1.992  19.183  1.00  0.00     0.010 C
HETATM   23  C16 UNL     1       9.037   2.987  18.655  1.00  0.00    -0.001 C
ENDBRANCH  11  14
ENDBRANCH   1  10
BRANCH   1  24
HETATM   24  C18 UNL     1       7.303   7.374  20.215  1.00  0.00     0.246 C
HETATM   25  O2  UNL     1       6.973   8.453  19.677  1.00  0.00    -0.271 OA
HETATM   26  N3  UNL     1       8.439   7.416  21.065  1.00  0.00    -0.311 N
ATOM     27  H3  UNL     1       9.336   7.071  20.722  1.00  0.00     0.170 HD
BRANCH  26  28
HETATM   28  C19 UNL     1       8.356   7.890  22.283  1.00  0.00     0.107 A
HETATM   29  C20 UNL     1       8.770   9.164  22.587  1.00  0.00     0.048 A
HETATM   30  C21 UNL     1       8.687   9.671  23.864  1.00  0.00     0.005 A
HETATM   31  C22 UNL     1       8.170   8.864  24.855  1.00  0.00     0.017 A
HETATM   32  C23 UNL     1       7.770   7.602  24.508  1.00  0.00     0.089 A
HETATM   33  N4  UNL     1       7.853   7.105  23.252  1.00  0.00    -0.352 N
ATOM     34  H4  UNL     1       7.540   6.157  23.045  1.00  0.00     0.166 HD
ENDBRANCH  26  28
ENDBRANCH   1  24
TORSDOF 6
ENDMDL