MODEL 2
REMARK VINA RESULT: -8.420217055      1.610      2.994
REMARK  5 active torsions:
REMARK  status: ('A' for Active; 'I' for Inactive)
REMARK       I    between atoms: N1_2  and  C2_4
REMARK    1  A    between atoms: C2_4  and  C3_6
REMARK    2  A    between atoms: C3_6  and  C4_7
REMARK       I    between atoms: N2_11  and  C7_12
REMARK       I    between atoms: C7_12  and  N3_14
REMARK    3  A    between atoms: N3_14  and  C8_16
REMARK    4  A    between atoms: C16_24  and  C17_25
REMARK    5  A    between atoms: C17_25  and  N4_26
ROOT
HETATM    1  C3  UNL     1       7.382   9.315  21.018  1.00  0.00     0.053 C
HETATM    2  C5  UNL     1       6.243   8.704  20.223  1.00  0.00     0.040 C
HETATM    3  C6  UNL     1       6.744   8.083  18.927  1.00  0.00     0.129 C
HETATM    4  N2  UNL     1       7.689   7.033  19.239  1.00  0.00    -0.334 N
HETATM    5  C7  UNL     1       7.576   5.737  18.689  1.00  0.00     0.318 C
HETATM    6  O2  UNL     1       6.613   5.534  17.910  1.00  0.00    -0.247 OA
HETATM    7  N3  UNL     1       8.467   4.682  18.958  1.00  0.00    -0.333 N
ATOM      8  H3  UNL     1       9.237   4.893  19.593  1.00  0.00     0.165 HD
HETATM    9  C22 UNL     1       8.764   7.403  20.163  1.00  0.00     0.129 C
HETATM   10  C23 UNL     1       8.713   8.884  20.439  1.00  0.00     0.040 C
ENDROOT
BRANCH   7  11
HETATM   11  C8  UNL     1       8.418   3.350  18.447  1.00  0.00     0.041 C
HETATM   12  C9  UNL     1       9.857   2.850  18.375  1.00  0.00     0.036 C
HETATM   13  C10 UNL     1       9.949   1.500  17.653  1.00  0.00    -0.012 C
HETATM   14  C11 UNL     1       9.352   1.558  16.286  1.00  0.00     0.009 C
HETATM   15  C15 UNL     1       9.182   0.533  18.519  1.00  0.00     0.010 C
HETATM   16  C12 UNL     1       7.903   2.062  16.383  1.00  0.00    -0.012 C
HETATM   17  C13 UNL     1       7.174   1.032  17.189  1.00  0.00     0.010 C
HETATM   18  C21 UNL     1       7.969   3.421  16.998  1.00  0.00     0.036 C
HETATM   19  C14 UNL     1       7.766   1.000  18.571  1.00  0.00    -0.006 C
HETATM   20  C16 UNL     1       7.645   2.364  19.252  1.00  0.00     0.046 C
BRANCH  20  21
HETATM   21  C17 UNL     1       6.217   2.613  19.460  1.00  0.00     0.279 C
BRANCH  21  22
HETATM   22  N4  UNL     1       5.741   2.920  20.764  1.00  0.00     0.089 N
HETATM   23  C18 UNL     1       4.298   2.674  20.951  1.00  0.00     0.274 C
HETATM   24  C19 UNL     1       4.577   1.238  21.235  1.00  0.00     0.060 C
HETATM   25  C20 UNL     1       5.921   1.770  21.677  1.00  0.00     0.274 C
ENDBRANCH  21  22
ENDBRANCH  20  21
ENDBRANCH   7  11
BRANCH   1  26
HETATM   26  C2  UNL     1       7.279  10.783  20.915  1.00  0.00     0.227 C
HETATM   27  N1  UNL     1       8.379  11.620  20.621  1.00  0.00    -0.365 N
HETATM   28  C1  UNL     1       8.207  13.076  20.526  1.00  0.00     0.149 C
ATOM     29  H1  UNL     1       9.301  11.210  20.473  1.00  0.00     0.161 HD
HETATM   30  O1  UNL     1       6.149  11.353  21.095  1.00  0.00    -0.273 OA
ENDBRANCH   1  26
BRANCH   1  31
HETATM   31  C4  UNL     1       7.320   8.816  22.425  1.00  0.00     0.104 C
HETATM   32 BR1  UNL     1       8.618   9.550  23.616  1.00  0.00    -0.095 Br
ENDBRANCH   1  31
TORSDOF 5
ENDMDL