MODEL 2
REMARK VINA RESULT: -8.667498373      1.214      1.943
REMARK  7 active torsions:
REMARK  status: ('A' for Active; 'I' for Inactive)
REMARK    1  A    between atoms: C2_2  and  C3_3
REMARK       I    between atoms: N1_7  and  C7_8
REMARK       I    between atoms: C7_8  and  N2_10
REMARK    2  A    between atoms: N2_10  and  C8_12
REMARK       I    between atoms: N3_15  and  C11_16
REMARK       I    between atoms: C11_16  and  N4_18
REMARK    3  A    between atoms: N4_18  and  C12_20
REMARK    4  A    between atoms: C12_20  and  C13_21
REMARK    5  A    between atoms: C12_20  and  C22_34
REMARK    6  A    between atoms: C13_21  and  O3_22
REMARK    7  A    between atoms: C13_21  and  N5_24
ROOT
HETATM    1  C8  UNL     1       8.460   9.615  22.486  1.00  0.00     0.105 C
HETATM    2  C9  UNL     1       7.098  10.222  22.750  1.00  0.00     0.047 C
HETATM    3  C10 UNL     1       6.205   8.999  22.540  1.00  0.00     0.129 C
HETATM    4  N3  UNL     1       6.809   8.353  21.375  1.00  0.00    -0.332 N
HETATM    5  C11 UNL     1       6.172   7.410  20.536  1.00  0.00     0.319 C
HETATM    6  O2  UNL     1       4.990   7.079  20.777  1.00  0.00    -0.247 OA
HETATM    7  N4  UNL     1       6.851   6.859  19.452  1.00  0.00    -0.331 N
ATOM      8  H4  UNL     1       7.812   7.159  19.290  1.00  0.00     0.165 HD
HETATM    9  C25 UNL     1       8.187   8.840  21.216  1.00  0.00     0.152 C
ENDROOT
BRANCH   7  10
HETATM   10  C12 UNL     1       6.269   5.863  18.516  1.00  0.00     0.164 C
BRANCH  10  11
HETATM   11  C13 UNL     1       6.465   4.535  19.068  1.00  0.00     0.137 C
BRANCH  11  12
HETATM   12  O3  UNL     1       6.039   4.507  20.326  1.00  0.00    -0.348 OA
ATOM     13  H3  UNL     1       6.735   4.194  20.892  1.00  0.00     0.219 HD
ENDBRANCH  11  12
BRANCH  11  14
HETATM   14  N5  UNL     1       6.961   3.328  18.635  1.00  0.00    -0.363 N
HETATM   15  C14 UNL     1       6.301   2.167  18.108  1.00  0.00     0.128 C
HETATM   16  C15 UNL     1       7.017   0.879  18.523  1.00  0.00     0.064 C
HETATM   17  C16 UNL     1       8.439   0.812  18.092  1.00  0.00     0.110 C
HETATM   18  C17 UNL     1       8.733  -0.199  17.013  1.00  0.00     0.053 C
HETATM   19  F1  UNL     1       9.222   0.446  19.202  1.00  0.00    -0.242 F
HETATM   20  C18 UNL     1       8.958   2.194  17.703  1.00  0.00     0.004 C
HETATM   21  C19 UNL     1      10.463   2.139  17.870  1.00  0.00     0.020 C
HETATM   22  C20 UNL     1       8.678   2.531  16.277  1.00  0.00     0.020 C
HETATM   23  C21 UNL     1       8.446   3.184  18.695  1.00  0.00     0.136 C
ENDBRANCH  11  14
ENDBRANCH  10  11
BRANCH  10  24
HETATM   24  C22 UNL     1       4.953   6.350  18.091  1.00  0.00     0.008 C
HETATM   25  C23 UNL     1       5.132   7.457  16.995  1.00  0.00     0.012 C
HETATM   26  C24 UNL     1       4.272   5.231  17.253  1.00  0.00     0.012 C
ENDBRANCH  10  24
ENDBRANCH   7  10
BRANCH   1  27
HETATM   27  N2  UNL     1       8.916   8.800  23.568  1.00  0.00    -0.337 N
HETATM   28  C7  UNL     1      10.194   9.001  24.185  1.00  0.00     0.319 C
HETATM   29  N1  UNL     1      10.627   8.177  25.263  1.00  0.00    -0.330 N
HETATM   30  O1  UNL     1      10.971   9.908  23.795  1.00  0.00    -0.247 OA
HETATM   31  C3  UNL     1      11.886   8.277  25.969  1.00  0.00     0.088 C
HETATM   32  C6  UNL     1       9.845   7.088  25.831  1.00  0.00     0.128 C
HETATM   33  C4  UNL     1      11.509   7.843  27.356  1.00  0.00     0.027 C
HETATM   34  C5  UNL     1      10.509   6.731  27.134  1.00  0.00     0.022 C
ATOM     35  H2  UNL     1       8.314   8.052  23.911  1.00  0.00     0.164 HD
BRANCH  31  36
HETATM   36  C2  UNL     1      12.921   7.335  25.368  1.00  0.00     0.021 C
HETATM   37  C1  UNL     1      14.144   7.378  26.252  1.00  0.00     0.007 C
ENDBRANCH  31  36
ENDBRANCH   1  27
TORSDOF 7
ENDMDL