MODEL 4
REMARK VINA RESULT: -8.921814822      3.988      9.700
REMARK  9 active torsions:
REMARK  status: ('A' for Active; 'I' for Inactive)
REMARK    1  A    between atoms: C2_2  and  C3_3
REMARK    2  A    between atoms: C3_3  and  N1_4
REMARK       I    between atoms: N1_4  and  C4_6
REMARK       I    between atoms: C4_6  and  N3_10
REMARK    3  A    between atoms: C8_13  and  C9_14
REMARK    4  A    between atoms: C9_14  and  O1_15
REMARK    5  A    between atoms: C9_14  and  N4_17
REMARK    6  A    between atoms: C15_23  and  C16_24
REMARK    7  A    between atoms: C16_24  and  O2_25
REMARK    8  A    between atoms: C16_24  and  N5_27
REMARK    9  A    between atoms: N5_27  and  C17_29
ROOT
HETATM    1  N4  UNL     1       3.332   6.209  22.656  1.00  0.00    -0.359 N
HETATM    2  C10 UNL     1       2.008   5.678  23.057  1.00  0.00     0.130 C
HETATM    3  C11 UNL     1       1.998   4.345  22.284  1.00  0.00     0.017 C
HETATM    4  C12 UNL     1       2.009   4.723  20.842  1.00  0.00     0.009 C
HETATM    5  C13 UNL     1       3.421   5.170  20.540  1.00  0.00     0.026 C
HETATM    6  C14 UNL     1       4.048   5.206  21.898  1.00  0.00     0.098 C
HETATM    7  C15 UNL     1       3.432   3.959  22.560  1.00  0.00     0.088 C
ENDROOT
BRANCH   1   8
HETATM    8  C9  UNL     1       3.783   7.489  23.006  1.00  0.00     0.118 C
BRANCH   8   9
HETATM    9  C8  UNL     1       5.089   8.004  23.307  1.00  0.00     0.063 C
HETATM   10  C7  UNL     1       5.258   9.440  23.659  1.00  0.00     0.033 C
HETATM   11  C6  UNL     1       6.751   9.768  23.574  1.00  0.00     0.142 C
HETATM   12  N3  UNL     1       7.588   8.663  23.936  1.00  0.00    -0.218 N
HETATM   13  C4  UNL     1       9.017   8.932  23.965  1.00  0.00     0.671 C
HETATM   14  C27 UNL     1       7.205   7.333  24.276  1.00  0.00     0.142 C
HETATM   15  N1  UNL     1       9.650   9.391  25.158  1.00  0.00    -0.223 N
HETATM   16  N2  UNL     1       9.672   8.746  22.883  1.00  0.00    -0.231 N
ATOM     17  H1  UNL     1       9.081   9.663  25.958  1.00  0.00     0.178 HD
HETATM   18  C5  UNL     1       9.101   8.283  21.645  1.00  0.00     0.165 C
ATOM     19  H2  UNL     1      10.673   8.939  22.899  1.00  0.00     0.177 HD
HETATM   20  C26 UNL     1       5.717   7.215  24.467  1.00  0.00     0.033 C
BRANCH  15  21
HETATM   21  C3  UNL     1      11.073   9.476  25.244  1.00  0.00     0.164 C
BRANCH  21  22
HETATM   22  C2  UNL     1      11.750   8.254  25.691  1.00  0.00    -0.017 C
HETATM   23  C1  UNL     1      11.345   7.460  26.663  1.00  0.00     0.008 C
ENDBRANCH  21  22
ENDBRANCH  15  21
ENDBRANCH   8   9
BRANCH   8  24
HETATM   24  O1  UNL     1       2.817   8.385  23.061  1.00  0.00    -0.349 OA
ATOM     25  H1  UNL     1       1.986   8.048  23.373  1.00  0.00     0.219 HD
ENDBRANCH   8  24
ENDBRANCH   1   8
BRANCH   7  26
HETATM   26  C16 UNL     1       3.902   2.683  22.130  1.00  0.00     0.118 C
BRANCH  26  27
HETATM   27  O2  UNL     1       2.970   1.771  21.991  1.00  0.00    -0.349 OA
ATOM     28  H2  UNL     1       3.157   0.942  22.415  1.00  0.00     0.219 HD
ENDBRANCH  26  27
BRANCH  26  29
HETATM   29  N5  UNL     1       5.173   2.195  21.821  1.00  0.00    -0.369 N
ATOM     30  H5  UNL     1       5.669   1.667  22.539  1.00  0.00     0.161 HD
BRANCH  29  31
HETATM   31  C17 UNL     1       5.836   2.392  20.543  1.00  0.00     0.084 C
HETATM   32  C18 UNL     1       5.555   1.292  19.551  1.00  0.00     0.026 C
HETATM   33  C19 UNL     1       6.593   1.647  18.472  1.00  0.00     0.012 C
HETATM   34  C20 UNL     1       7.834   1.818  19.328  1.00  0.00    -0.036 C
HETATM   35  C21 UNL     1       8.555   0.509  19.358  1.00  0.00     0.012 C
HETATM   36  C24 UNL     1       8.821   2.794  18.723  1.00  0.00     0.046 C
HETATM   37  C25 UNL     1       7.348   2.289  20.673  1.00  0.00     0.034 C
HETATM   38  C22 UNL     1       9.322   0.555  18.030  1.00  0.00     0.038 C
HETATM   39  C23 UNL     1       9.880   1.961  18.066  1.00  0.00     0.171 C
HETATM   40  F1  UNL     1      10.179   2.395  16.781  1.00  0.00    -0.249 F
ENDBRANCH  29  31
ENDBRANCH  26  29
ENDBRANCH   7  26
TORSDOF 9
ENDMDL