MODEL 3
REMARK VINA RESULT: -8.272405196      1.695      2.106
REMARK  7 active torsions:
REMARK  status: ('A' for Active; 'I' for Inactive)
REMARK       I    between atoms: C2_2  and  N1_4
REMARK    1  A    between atoms: C7_11  and  C8_12
REMARK    2  A    between atoms: C8_12  and  C9_13
REMARK    3  A    between atoms: C12_18  and  N3_19
REMARK       I    between atoms: N3_19  and  C13_21
REMARK    4  A    between atoms: C13_21  and  C14_23
REMARK    5  A    between atoms: C14_23  and  C15_24
REMARK    6  A    between atoms: C15_24  and  C16_25
REMARK    7  A    between atoms: C16_25  and  C17_26
ROOT
HETATM    1  C9  UNL     1       7.010   6.529  21.876  1.00  0.00     0.109 A
HETATM    2  N2  UNL     1       6.665   6.795  23.237  1.00  0.00    -0.343 N
ATOM      3  H2  UNL     1       5.848   6.402  23.704  1.00  0.00     0.167 HD
HETATM    4  C10 UNL     1       7.497   7.581  23.801  1.00  0.00     0.051 A
HETATM    5  C11 UNL     1       7.355   8.009  25.224  1.00  0.00     0.072 C
HETATM    6  C12 UNL     1       8.521   7.941  22.860  1.00  0.00     0.132 A
HETATM    7  N4  UNL     1       8.182   7.252  21.633  1.00  0.00    -0.327 N
ATOM      8  H4  UNL     1       8.701   7.286  20.755  1.00  0.00     0.169 HD
ENDROOT
BRANCH   1   9
HETATM    9  C8  UNL     1       6.313   5.719  21.120  1.00  0.00     0.079 C
BRANCH   9  10
HETATM   10  C7  UNL     1       6.725   4.402  20.663  1.00  0.00     0.054 A
HETATM   11  C6  UNL     1       6.113   3.246  21.094  1.00  0.00     0.037 A
HETATM   12  C5  UNL     1       6.511   2.022  20.589  1.00  0.00     0.025 A
HETATM   13 BR1  UNL     1       4.742   3.247  22.445  1.00  0.00    -0.049 Br
HETATM   14  C4  UNL     1       7.528   1.904  19.646  1.00  0.00     0.050 A
HETATM   15  C3  UNL     1       8.112   3.090  19.247  1.00  0.00     0.108 A
HETATM   16  N1  UNL     1       9.060   3.033  18.374  1.00  0.00    -0.314 N
HETATM   17  N5  UNL     1       7.722   4.278  19.737  1.00  0.00    -0.341 N
HETATM   18  C2  UNL     1       9.509   1.819  17.826  1.00  0.00     0.219 C
ATOM     19  H1  UNL     1       9.500   3.901  18.070  1.00  0.00     0.170 HD
HETATM   20  C1  UNL     1       8.781   1.164  16.722  1.00  0.00     0.117 C
HETATM   21  O1  UNL     1      10.550   1.282  18.285  1.00  0.00    -0.274 OA
ATOM     22  H5  UNL     1       8.189   5.122  19.406  1.00  0.00     0.167 HD
ENDBRANCH   9  10
ENDBRANCH   1   9
BRANCH   6  23
HETATM   23  N3  UNL     1       9.525   8.695  23.006  1.00  0.00    -0.311 N
HETATM   24  C13 UNL     1       9.739   9.737  23.913  1.00  0.00     0.223 C
HETATM   25  O2  UNL     1       9.209  10.868  23.699  1.00  0.00    -0.273 OA
ATOM     26  H3  UNL     1      10.297   8.515  22.364  1.00  0.00     0.170 HD
BRANCH  24  27
HETATM   27  C14 UNL     1      10.566   9.592  25.132  1.00  0.00     0.103 C
BRANCH  27  28
HETATM   28  C15 UNL     1      11.138   8.244  25.352  1.00  0.00     0.010 C
BRANCH  28  29
HETATM   29  C16 UNL     1      10.721   7.537  26.591  1.00  0.00     0.011 C
BRANCH  29  30
HETATM   30  C17 UNL     1      11.926   6.889  27.286  1.00  0.00     0.085 C
HETATM   31 BR2  UNL     1      13.566   7.331  26.354  1.00  0.00    -0.097 Br
ENDBRANCH  29  30
ENDBRANCH  28  29
ENDBRANCH  27  28
ENDBRANCH  24  27
ENDBRANCH   6  23
TORSDOF 7
ENDMDL