MODEL 5
REMARK VINA RESULT: -7.992844443      2.125      2.975
REMARK  5 active torsions:
REMARK  status: ('A' for Active; 'I' for Inactive)
REMARK    1  A    between atoms: C2_2  and  N1_4
REMARK       I    between atoms: N1_4  and  C4_6
REMARK    2  A    between atoms: C4_6  and  C5_8
REMARK    3  A    between atoms: C12_15  and  N2_16
REMARK       I    between atoms: N2_16  and  C13_18
REMARK    4  A    between atoms: C13_18  and  C14_20
REMARK    5  A    between atoms: C14_20  and  C15_22
ROOT
HETATM    1  C5  UNL     1       7.914   0.773  17.339  1.00  0.00     0.042 C
HETATM    2  C6  UNL     1       9.108   1.457  16.730  1.00  0.00     0.024 C
HETATM    3  C7  UNL     1       9.601   1.744  18.106  1.00  0.00    -0.012 C
HETATM    4  C8  UNL     1       9.192   3.070  18.685  1.00  0.00     0.012 C
HETATM    5  C9  UNL     1       7.968   3.596  18.084  1.00  0.00     0.015 A
HETATM    6  C10 UNL     1       6.876   2.606  18.617  1.00  0.00     0.016 A
HETATM    7  C11 UNL     1       6.721   1.661  17.516  1.00  0.00     0.026 C
HETATM    8  C12 UNL     1       6.729   4.048  18.682  1.00  0.00     0.093 A
HETATM    9  C19 UNL     1       8.770   0.581  18.553  1.00  0.00     0.024 C
ENDROOT
BRANCH   8  10
HETATM   10  N2  UNL     1       6.732   4.697  19.966  1.00  0.00    -0.349 N
HETATM   11  C13 UNL     1       7.014   6.074  20.106  1.00  0.00     0.288 C
HETATM   12  O2  UNL     1       7.279   6.809  19.098  1.00  0.00    -0.264 OA
ATOM     13  H2  UNL     1       6.525   4.146  20.800  1.00  0.00     0.163 HD
BRANCH  11  14
HETATM   14  C14 UNL     1       7.008   6.701  21.427  1.00  0.00     0.227 C
HETATM   15  O3  UNL     1       7.996   6.513  22.177  1.00  0.00    -0.286 OA
BRANCH  14  16
HETATM   16  C15 UNL     1       5.903   7.543  21.922  1.00  0.00     0.056 A
HETATM   17  C16 UNL     1       4.482   7.116  21.722  1.00  0.00     0.026 C
HETATM   18  C17 UNL     1       6.194   8.355  23.213  1.00  0.00     0.054 A
HETATM   19  C18 UNL     1       6.143   9.031  21.913  1.00  0.00     0.091 A
HETATM   20 BR1  UNL     1       4.637  10.215  21.623  1.00  0.00    -0.072 Br
HETATM   21 BR2  UNL     1       7.796   9.680  21.128  1.00  0.00    -0.072 Br
ENDBRANCH  14  16
ENDBRANCH  11  14
ENDBRANCH   8  10
BRANCH   1  22
HETATM   22  C4  UNL     1       7.552  -0.477  16.626  1.00  0.00     0.226 C
HETATM   23  N1  UNL     1       6.257  -0.715  16.097  1.00  0.00    -0.357 N
ATOM     24  H1  UNL     1       5.539   0.001  16.210  1.00  0.00     0.162 HD
HETATM   25  O1  UNL     1       8.416  -1.374  16.475  1.00  0.00    -0.273 OA
BRANCH  23  26
HETATM   26  C2  UNL     1       5.921  -1.929  15.410  1.00  0.00     0.076 C
HETATM   27  C1  UNL     1       4.540  -2.439  15.806  1.00  0.00     0.032 C
HETATM   28  C3  UNL     1       5.954  -1.669  13.934  1.00  0.00     0.032 C
ENDBRANCH  23  26
ENDBRANCH   1  22
TORSDOF 5
ENDMDL