MODEL 3
REMARK VINA RESULT: -8.092957046      0.937      1.191
REMARK  6 active torsions:
REMARK  status: ('A' for Active; 'I' for Inactive)
REMARK    1  A    between atoms: C4_4  and  N1_5
REMARK       I    between atoms: N1_5  and  C5_7
REMARK    2  A    between atoms: C5_7  and  C6_9
REMARK    3  A    between atoms: C7_10  and  C8_11
REMARK       I    between atoms: C8_11  and  N2_13
REMARK    4  A    between atoms: N2_13  and  C9_14
REMARK    5  A    between atoms: N2_13  and  C13_18
REMARK    6  A    between atoms: C9_14  and  C10_15
ROOT
HETATM    1  C8  UNL     1       5.953   8.720  22.889  1.00  0.00     0.249 C
HETATM    2  O2  UNL     1       5.112   9.507  23.453  1.00  0.00    -0.268 OA
HETATM    3  N2  UNL     1       5.476   7.442  22.503  1.00  0.00    -0.300 N
ENDROOT
BRANCH   1   4
HETATM    4  C7  UNL     1       7.299   9.137  22.681  1.00  0.00     0.080 C
HETATM    5  C6  UNL     1       8.358   8.913  23.390  1.00  0.00     0.080 C
BRANCH   5   6
HETATM    6  C5  UNL     1       8.560   8.195  24.593  1.00  0.00     0.246 C
HETATM    7  N1  UNL     1       9.323   8.826  25.649  1.00  0.00    -0.308 N
ATOM      8  H1  UNL     1       9.108   9.783  25.928  1.00  0.00     0.170 HD
HETATM    9  O1  UNL     1       8.161   7.067  24.872  1.00  0.00    -0.268 OA
BRANCH   7  10
HETATM   10  C4  UNL     1      10.275   8.184  26.240  1.00  0.00     0.124 A
HETATM   11  C3  UNL     1      11.589   8.212  25.792  1.00  0.00     0.076 A
HETATM   12  C2  UNL     1      12.372   7.430  26.627  1.00  0.00     0.025 A
HETATM   13  C1  UNL     1      13.836   7.180  26.519  1.00  0.00     0.070 C
HETATM   14  N5  UNL     1      11.526   6.949  27.553  1.00  0.00    -0.304 N
HETATM   15  N4  UNL     1      10.287   7.398  27.317  1.00  0.00    -0.285 N
ATOM     16  H5  UNL     1      11.788   6.332  28.322  1.00  0.00     0.186 HD
ATOM     17  H4  UNL     1       9.468   7.173  27.883  1.00  0.00     0.188 HD
ENDBRANCH   7  10
ENDBRANCH   5   6
ENDBRANCH   1   4
BRANCH   3  18
HETATM   18  C9  UNL     1       4.220   7.031  23.124  1.00  0.00     0.137 C
BRANCH  18  19
HETATM   19  C10 UNL     1       3.039   7.041  22.210  1.00  0.00    -0.004 C
HETATM   20  C11 UNL     1       1.863   7.738  22.924  1.00  0.00     0.011 C
HETATM   21  C12 UNL     1       2.498   5.630  21.927  1.00  0.00     0.011 C
ENDBRANCH  18  19
ENDBRANCH   3  18
BRANCH   3  22
HETATM   22  C13 UNL     1       6.147   6.602  21.591  1.00  0.00     0.111 A
HETATM   23  C14 UNL     1       6.829   7.108  20.478  1.00  0.00     0.050 A
HETATM   24  C15 UNL     1       7.515   6.266  19.610  1.00  0.00     0.026 A
HETATM   25  C16 UNL     1       7.534   4.910  19.836  1.00  0.00     0.045 A
HETATM   26 BR1  UNL     1       8.454   3.687  18.689  1.00  0.00    -0.048 Br
HETATM   27  C17 UNL     1       6.859   4.422  20.935  1.00  0.00     0.098 A
HETATM   28 BR2  UNL     1       6.814   2.558  21.349  1.00  0.00    -0.030 Br
HETATM   29  N3  UNL     1       6.227   5.265  21.720  1.00  0.00    -0.335 N
ATOM     30  H3  UNL     1       5.742   4.858  22.520  1.00  0.00     0.168 HD
ENDBRANCH   3  22
TORSDOF 6
ENDMDL