MODEL 2
REMARK VINA RESULT: -9.959214444      4.219      7.229
REMARK  5 active torsions:
REMARK  status: ('A' for Active; 'I' for Inactive)
REMARK    1  A    between atoms: C7_7  and  C8_8
REMARK       I    between atoms: C8_8  and  N1_10
REMARK    2  A    between atoms: N1_10  and  C9_12
REMARK    3  A    between atoms: C17_20  and  C18_21
REMARK       I    between atoms: C18_21  and  N2_23
REMARK    4  A    between atoms: N2_23  and  C19_25
REMARK       I    between atoms: N3_28  and  C22_29
REMARK    5  A    between atoms: C22_29  and  C23_31
ROOT
HETATM    1  C9  UNL     1       6.630   1.928  18.582  1.00  0.00     0.106 C
HETATM    2  C10 UNL     1       7.360   0.637  18.263  1.00  0.00     0.010 C
HETATM    3  C11 UNL     1       7.401   0.489  16.780  1.00  0.00     0.011 C
HETATM    4  C12 UNL     1       8.173   1.659  16.214  1.00  0.00    -0.013 C
HETATM    5  C13 UNL     1       9.580   1.564  16.715  1.00  0.00     0.009 C
HETATM    6  C14 UNL     1       9.565   1.649  18.218  1.00  0.00    -0.013 C
HETATM    7  C15 UNL     1       8.725   0.548  18.848  1.00  0.00     0.011 C
HETATM    8  C16 UNL     1       8.922   2.956  18.636  1.00  0.00     0.026 C
HETATM    9  C17 UNL     1       7.479   3.060  18.148  1.00  0.00     0.062 C
HETATM   10  C26 UNL     1       7.579   2.982  16.616  1.00  0.00     0.026 C
ENDROOT
BRANCH   9  11
HETATM   11  C18 UNL     1       6.994   4.390  18.537  1.00  0.00     0.228 C
HETATM   12  O2  UNL     1       5.861   4.765  18.158  1.00  0.00    -0.273 OA
HETATM   13  N2  UNL     1       7.759   5.281  19.334  1.00  0.00    -0.356 N
ATOM     14  H2  UNL     1       8.682   4.980  19.645  1.00  0.00     0.162 HD
BRANCH  13  15
HETATM   15  C19 UNL     1       7.300   6.587  19.726  1.00  0.00     0.087 C
HETATM   16  C20 UNL     1       8.445   7.567  19.886  1.00  0.00     0.045 C
HETATM   17  C21 UNL     1       7.889   8.956  20.084  1.00  0.00     0.128 C
HETATM   18  N3  UNL     1       6.794   9.003  21.026  1.00  0.00    -0.347 N
HETATM   19  C22 UNL     1       6.520  10.248  21.651  1.00  0.00     0.284 C
HETATM   20  C24 UNL     1       5.972   7.876  21.366  1.00  0.00     0.128 C
HETATM   21  O3  UNL     1       5.575  10.342  22.481  1.00  0.00    -0.267 OA
HETATM   22  C25 UNL     1       6.596   6.546  21.078  1.00  0.00     0.045 C
BRANCH  19  23
HETATM   23  C23 UNL     1       7.324  11.458  21.352  1.00  0.00     0.444 C
HETATM   24  F1  UNL     1       6.547  12.519  20.930  1.00  0.00    -0.204 F
HETATM   25  F2  UNL     1       8.038  11.836  22.459  1.00  0.00    -0.204 F
ENDBRANCH  19  23
ENDBRANCH  13  15
ENDBRANCH   9  11
BRANCH   1  26
HETATM   26  N1  UNL     1       6.206   1.912  19.935  1.00  0.00    -0.355 N
HETATM   27  C8  UNL     1       4.872   1.621  20.281  1.00  0.00     0.222 C
HETATM   28  O1  UNL     1       4.056   1.372  19.366  1.00  0.00    -0.273 OA
ATOM     29  H1  UNL     1       6.881   2.116  20.672  1.00  0.00     0.162 HD
BRANCH  27  30
HETATM   30  C7  UNL     1       4.391   1.597  21.657  1.00  0.00     0.082 C
HETATM   31  C6  UNL     1       2.896   1.527  21.768  1.00  0.00     0.003 C
HETATM   32  C2  UNL     1       2.490   2.928  22.254  1.00  0.00    -0.010 C
HETATM   33  C5  UNL     1       2.617   0.777  23.081  1.00  0.00     0.006 C
HETATM   34  C1  UNL     1       2.571   3.978  21.219  1.00  0.00     0.011 C
HETATM   35  C3  UNL     1       3.571   3.009  23.329  1.00  0.00    -0.010 C
HETATM   36  C4  UNL     1       3.316   1.713  24.068  1.00  0.00     0.005 C
HETATM   37  C27 UNL     1       4.808   2.806  22.469  1.00  0.00     0.019 C
ENDBRANCH  27  30
ENDBRANCH   1  26
TORSDOF 5
ENDMDL