MODEL 2
REMARK VINA RESULT: -7.257612481      1.633      2.053
REMARK  5 active torsions:
REMARK  status: ('A' for Active; 'I' for Inactive)
REMARK    1  A    between atoms: N2_12  and  C10_14
REMARK    2  A    between atoms: C10_14  and  C11_15
REMARK    3  A    between atoms: C11_15  and  C12_16
REMARK    4  A    between atoms: C11_15  and  N3_19
REMARK       I    between atoms: N3_19  and  C13_20
REMARK    5  A    between atoms: N3_19  and  C14_23
ROOT
HETATM    1  C1  UNL     1       4.144   1.252  22.598  1.00  0.00     0.070 C
HETATM    2  C2  UNL     1       5.095   2.130  21.876  1.00  0.00     0.029 A
HETATM    3  N1  UNL     1       5.927   1.588  20.974  1.00  0.00    -0.358 N
ATOM      4  H1  UNL     1       5.899   0.584  20.797  1.00  0.00     0.166 HD
HETATM    5  C3  UNL     1       6.799   2.361  20.303  1.00  0.00     0.045 A
HETATM    6  C4  UNL     1       7.661   1.788  19.368  1.00  0.00     0.030 A
HETATM    7  C5  UNL     1       8.536   2.586  18.700  1.00  0.00     0.002 A
HETATM    8  C6  UNL     1       8.609   3.941  18.909  1.00  0.00     0.001 A
HETATM    9  C7  UNL     1       7.733   4.480  19.851  1.00  0.00     0.016 A
HETATM   10  C8  UNL     1       6.841   3.711  20.541  1.00  0.00     0.019 A
HETATM   11  C9  UNL     1       5.992   4.343  21.477  1.00  0.00     0.063 A
HETATM   12  N2  UNL     1       6.107   5.541  21.614  1.00  0.00    -0.386 N
ATOM     13  H2  UNL     1       6.845   5.826  20.971  1.00  0.00     0.159 HD
HETATM   14  C17 UNL     1       5.123   3.506  22.131  1.00  0.00     0.094 A
HETATM   15  C18 UNL     1       4.217   4.031  23.096  1.00  0.00     0.103 C
HETATM   16  N5  UNL     1       3.482   4.425  23.865  1.00  0.00    -0.191 NA
ENDROOT
BRANCH  12  17
HETATM   17  C10 UNL     1       5.694   6.685  22.242  1.00  0.00     0.147 C
BRANCH  17  18
HETATM   18  C11 UNL     1       6.810   7.738  22.283  1.00  0.00     0.131 C
BRANCH  18  19
HETATM   19  C12 UNL     1       7.017   8.256  23.666  1.00  0.00     0.154 C
HETATM   20 BR1  UNL     1       5.902   7.295  24.888  1.00  0.00    -0.077 Br
HETATM   21 BR2  UNL     1       8.819   8.444  24.252  1.00  0.00    -0.077 Br
ENDBRANCH  18  19
BRANCH  18  22
HETATM   22  N3  UNL     1       6.584   8.745  21.262  1.00  0.00    -0.324 N
HETATM   23  C13 UNL     1       5.659   9.792  21.472  1.00  0.00     0.331 C
HETATM   24  N4  UNL     1       4.890   9.918  22.684  1.00  0.00    -0.040 NA
HETATM   25  O1  UNL     1       5.456  10.671  20.615  1.00  0.00    -0.251 OA
BRANCH  22  26
HETATM   26  C14 UNL     1       7.281   8.774  20.003  1.00  0.00     0.081 C
HETATM   27  C15 UNL     1       6.545   7.935  18.944  1.00  0.00     0.032 C
HETATM   28  C16 UNL     1       8.630   8.128  20.184  1.00  0.00     0.032 C
ENDBRANCH  22  26
ENDBRANCH  18  22
ENDBRANCH  17  18
ENDBRANCH  12  17
TORSDOF 5
ENDMDL