MODEL 5
REMARK VINA RESULT: -8.958688087      1.497      1.700
REMARK  7 active torsions:
REMARK  status: ('A' for Active; 'I' for Inactive)
REMARK    1  A    between atoms: N1_2  and  C3_4
REMARK    2  A    between atoms: C3_4  and  O1_5
REMARK    3  A    between atoms: C3_4  and  C4_7
REMARK    4  A    between atoms: C12_15  and  N2_16
REMARK    5  A    between atoms: C12_15  and  C26_35
REMARK       I    between atoms: N2_16  and  C13_18
REMARK    6  A    between atoms: C13_18  and  C14_20
REMARK       I    between atoms: C14_20  and  N3_22
REMARK    7  A    between atoms: N3_22  and  C15_24
ROOT
HETATM    1  C4  UNL     1       6.641   7.332  24.131  1.00  0.00     0.072 A
HETATM    2  C5  UNL     1       5.302   7.214  24.636  1.00  0.00     0.005 A
HETATM    3  C6  UNL     1       4.496   8.007  25.565  1.00  0.00     0.010 C
HETATM    4  C7  UNL     1       3.004   7.836  25.492  1.00  0.00    -0.013 C
HETATM    5  C8  UNL     1       2.395   8.785  24.458  1.00  0.00     0.009 C
HETATM    6  C9  UNL     1       2.408   7.712  23.488  1.00  0.00    -0.011 C
HETATM    7  C10 UNL     1       2.451   6.742  24.689  1.00  0.00     0.009 C
HETATM    8  C11 UNL     1       3.380   7.465  22.470  1.00  0.00     0.042 C
HETATM    9  C12 UNL     1       4.747   7.949  22.382  1.00  0.00     0.097 C
HETATM   10  C27 UNL     1       5.620   8.194  23.508  1.00  0.00     0.036 A
ENDROOT
BRANCH   9  11
HETATM   11  N2  UNL     1       5.449   7.236  21.333  1.00  0.00    -0.338 N
HETATM   12  C13 UNL     1       5.035   6.973  20.011  1.00  0.00     0.310 C
HETATM   13  O2  UNL     1       3.958   7.317  19.467  1.00  0.00    -0.262 OA
ATOM     14  H2  UNL     1       6.369   6.875  21.586  1.00  0.00     0.164 HD
BRANCH  12  15
HETATM   15  C14 UNL     1       5.925   6.207  19.102  1.00  0.00     0.309 C
HETATM   16  O3  UNL     1       6.442   6.802  18.134  1.00  0.00    -0.262 OA
HETATM   17  N3  UNL     1       6.186   4.850  19.314  1.00  0.00    -0.348 N
ATOM     18  H3  UNL     1       5.758   4.375  20.107  1.00  0.00     0.163 HD
BRANCH  17  19
HETATM   19  C15 UNL     1       7.056   4.108  18.421  1.00  0.00     0.089 C
HETATM   20  C16 UNL     1       6.209   3.279  17.534  1.00  0.00     0.030 C
HETATM   21  C17 UNL     1       6.817   2.032  17.014  1.00  0.00    -0.012 C
HETATM   22  C18 UNL     1       8.250   2.165  16.582  1.00  0.00     0.009 C
HETATM   23  C22 UNL     1       6.586   0.910  17.989  1.00  0.00     0.009 C
HETATM   24  C19 UNL     1       9.247   1.905  17.650  1.00  0.00    -0.013 C
HETATM   25  C20 UNL     1       8.957   0.694  18.483  1.00  0.00     0.009 C
HETATM   26  C25 UNL     1       9.333   3.104  18.546  1.00  0.00     0.011 C
HETATM   27  C21 UNL     1       7.592   0.875  19.105  1.00  0.00    -0.013 C
HETATM   28  C23 UNL     1       7.463   2.117  19.908  1.00  0.00     0.011 C
HETATM   29  C24 UNL     1       8.025   3.346  19.280  1.00  0.00     0.009 C
ENDBRANCH  17  19
ENDBRANCH  12  15
ENDBRANCH   9  11
BRANCH   9  30
HETATM   30  C26 UNL     1       4.591   9.392  21.703  1.00  0.00     0.381 C
HETATM   31  F1  UNL     1       5.795   9.713  21.112  1.00  0.00    -0.212 F
HETATM   32  F2  UNL     1       4.371  10.313  22.707  1.00  0.00    -0.212 F
ENDBRANCH   9  30
BRANCH   1  33
HETATM   33  C3  UNL     1       7.876   7.765  24.744  1.00  0.00     0.117 C
BRANCH  33  34
HETATM   34  N1  UNL     1       8.767   8.811  24.573  1.00  0.00    -0.374 N
HETATM   35  C1  UNL     1      10.032   8.776  25.362  1.00  0.00     0.150 C
HETATM   36  C2  UNL     1       8.615   9.931  23.722  1.00  0.00     0.150 C
ENDBRANCH  33  34
BRANCH  33  37
HETATM   37  O1  UNL     1       8.248   6.932  25.735  1.00  0.00    -0.349 OA
ATOM     38  H1  UNL     1       9.187   6.791  25.755  1.00  0.00     0.219 HD
ENDBRANCH  33  37
ENDBRANCH   1  33
TORSDOF 7
ENDMDL