MODEL 2
REMARK VINA RESULT: -8.091553146      0.168      1.215
REMARK  6 active torsions:
REMARK  status: ('A' for Active; 'I' for Inactive)
REMARK    1  A    between atoms: C2_2  and  C3_3
REMARK    2  A    between atoms: C2_2  and  C5_6
REMARK    3  A    between atoms: C5_6  and  N1_7
REMARK    4  A    between atoms: C8_10  and  N2_11
REMARK       I    between atoms: N2_11  and  C9_13
REMARK    5  A    between atoms: C9_13  and  C10_15
REMARK       I    between atoms: N3_18  and  C13_19
REMARK       I    between atoms: C13_19  and  N4_21
REMARK    6  A    between atoms: N4_21  and  C14_23
ROOT
HETATM    1  C3  UNL     1      12.301   7.482  26.407  1.00  0.00    -0.035 C
HETATM    2  C4  UNL     1      13.501   7.424  26.193  1.00  0.00     0.111 C
HETATM    3  F1  UNL     1      14.814   7.379  25.974  1.00  0.00    -0.143 F
ENDROOT
BRANCH   1   4
HETATM    4  C2  UNL     1      10.866   7.568  26.629  1.00  0.00     0.017 C
HETATM    5  C1  UNL     1      10.359   6.656  27.460  1.00  0.00     0.030 C
BRANCH   4   6
HETATM    6  C5  UNL     1      10.018   8.600  26.002  1.00  0.00     0.319 C
BRANCH   6   7
HETATM    7  N1  UNL     1       9.288   8.199  24.853  1.00  0.00     0.096 N
HETATM    8  C6  UNL     1       7.868   8.575  24.960  1.00  0.00     0.275 C
HETATM    9  C7  UNL     1       7.013   7.682  24.092  1.00  0.00     0.058 C
HETATM   10  C8  UNL     1       7.826   7.349  22.866  1.00  0.00     0.121 C
HETATM   11  C26 UNL     1       8.666   8.563  22.558  1.00  0.00     0.221 C
HETATM   12  F2  UNL     1       9.198   8.502  21.285  1.00  0.00    -0.245 F
HETATM   13  C27 UNL     1       9.786   8.641  23.588  1.00  0.00     0.311 C
BRANCH  10  14
HETATM   14  N2  UNL     1       7.067   6.871  21.763  1.00  0.00    -0.353 N
HETATM   15  C9  UNL     1       7.242   5.602  21.150  1.00  0.00     0.222 C
HETATM   16  O1  UNL     1       8.119   4.835  21.597  1.00  0.00    -0.273 OA
ATOM     17  H2  UNL     1       6.345   7.483  21.384  1.00  0.00     0.163 HD
BRANCH  15  18
HETATM   18  C10 UNL     1       6.420   5.160  20.001  1.00  0.00     0.081 C
HETATM   19  C11 UNL     1       7.375   4.658  18.957  1.00  0.00     0.034 C
HETATM   20  C12 UNL     1       6.784   4.503  17.602  1.00  0.00     0.128 C
HETATM   21  N3  UNL     1       5.974   5.620  17.238  1.00  0.00    -0.334 N
HETATM   22  C13 UNL     1       5.274   5.627  16.009  1.00  0.00     0.318 C
HETATM   23  C24 UNL     1       5.876   6.737  18.126  1.00  0.00     0.128 C
HETATM   24  O2  UNL     1       4.560   6.634  15.708  1.00  0.00    -0.247 OA
HETATM   25  N4  UNL     1       5.378   4.527  15.142  1.00  0.00    -0.334 N
ATOM     26  H4  UNL     1       5.963   3.740  15.421  1.00  0.00     0.165 HD
HETATM   27  C25 UNL     1       5.593   6.327  19.550  1.00  0.00     0.034 C
BRANCH  25  28
HETATM   28  C14 UNL     1       4.700   4.465  13.886  1.00  0.00     0.035 C
HETATM   29  C15 UNL     1       5.028   3.207  13.153  1.00  0.00     0.035 C
HETATM   30  C16 UNL     1       4.435   3.241  11.740  1.00  0.00    -0.012 C
HETATM   31  C17 UNL     1       4.980   4.420  10.985  1.00  0.00     0.009 C
HETATM   32  C21 UNL     1       2.937   3.269  11.890  1.00  0.00     0.009 C
HETATM   33  C18 UNL     1       4.551   5.661  11.740  1.00  0.00    -0.012 C
HETATM   34  C19 UNL     1       3.061   5.717  11.865  1.00  0.00     0.009 C
HETATM   35  C23 UNL     1       5.226   5.647  13.064  1.00  0.00     0.035 C
HETATM   36  C20 UNL     1       2.560   4.511  12.648  1.00  0.00    -0.012 C
HETATM   37  C22 UNL     1       3.193   4.576  14.012  1.00  0.00     0.035 C
ENDBRANCH  25  28
ENDBRANCH  15  18
ENDBRANCH  10  14
ENDBRANCH   6   7
ENDBRANCH   4   6
ENDBRANCH   1   4
TORSDOF 6
ENDMDL