MODEL 2
REMARK VINA RESULT: -6.624521212      3.390      6.714
REMARK  6 active torsions:
REMARK  status: ('A' for Active; 'I' for Inactive)
REMARK    1  A    between atoms: C3_5  and  C4_6
REMARK    2  A    between atoms: C4_6  and  C5_7
REMARK    3  A    between atoms: C11_15  and  O1_16
REMARK    4  A    between atoms: O1_16  and  C12_17
REMARK    5  A    between atoms: C12_17  and  C13_18
REMARK    6  A    between atoms: C17_23  and  C18_24
REMARK       I    between atoms: C18_24  and  N2_26
ROOT
HETATM    1  C5  UNL     1       5.990   6.948  22.596  1.00  0.00     0.008 A
HETATM    2  C6  UNL     1       4.936   7.058  23.440  1.00  0.00    -0.032 A
HETATM    3  C7  UNL     1       3.625   6.515  23.063  1.00  0.00     0.050 C
HETATM    4  C8  UNL     1       5.048   7.684  24.687  1.00  0.00     0.019 A
HETATM    5 BR1  UNL     1       3.532   7.806  25.830  1.00  0.00    -0.051 Br
HETATM    6  C9  UNL     1       6.285   8.183  25.014  1.00  0.00     0.041 A
HETATM    7  C10 UNL     1       7.400   8.089  24.165  1.00  0.00     0.046 A
HETATM    8 BR2  UNL     1       9.020   8.928  24.754  1.00  0.00    -0.048 Br
HETATM    9  C11 UNL     1       7.246   7.469  22.959  1.00  0.00     0.097 A
ENDROOT
BRANCH   1  10
HETATM   10  C4  UNL     1       5.851   6.297  21.313  1.00  0.00     0.044 C
BRANCH  10  11
HETATM   11  C3  UNL     1       6.275   5.074  21.068  1.00  0.00     0.040 A
HETATM   12  N1  UNL     1       6.146   4.003  21.845  1.00  0.00    -0.356 N
HETATM   13  C2  UNL     1       6.721   2.914  21.241  1.00  0.00     0.039 A
ATOM     14  H1  UNL     1       5.687   3.993  22.757  1.00  0.00     0.166 HD
HETATM   15  C1  UNL     1       6.743   1.716  21.801  1.00  0.00     0.044 C
HETATM   16  C17 UNL     1       7.240   3.315  20.019  1.00  0.00     0.066 A
HETATM   17  C15 UNL     1       6.956   4.669  19.918  1.00  0.00    -0.017 A
HETATM   18  C16 UNL     1       7.297   5.547  18.767  1.00  0.00     0.052 C
BRANCH  16  19
HETATM   19  C18 UNL     1       7.904   2.447  19.050  1.00  0.00     0.254 C
HETATM   20  O3  UNL     1       7.169   1.561  18.459  1.00  0.00    -0.268 OA
HETATM   21  N2  UNL     1       9.239   2.445  18.679  1.00  0.00    -0.361 N
HETATM   22  C19 UNL     1       9.713   1.492  17.680  1.00  0.00     0.149 C
ATOM     23  H2  UNL     1       9.889   3.109  19.102  1.00  0.00     0.162 HD
ENDBRANCH  16  19
ENDBRANCH  10  11
ENDBRANCH   1  10
BRANCH   9  24
HETATM   24  O1  UNL     1       8.291   7.337  22.067  1.00  0.00    -0.346 OA
BRANCH  24  25
HETATM   25  C12 UNL     1       8.838   8.329  21.294  1.00  0.00     0.209 C
BRANCH  25  26
HETATM   26  C13 UNL     1       8.036   9.365  20.627  1.00  0.00     0.169 A
HETATM   27  C14 UNL     1       7.694  10.645  21.403  1.00  0.00     0.202 A
HETATM   28  O2  UNL     1       8.487  10.612  20.283  1.00  0.00    -0.379 OA
ENDBRANCH  25  26
ENDBRANCH  24  25
ENDBRANCH   9  24
TORSDOF 6
ENDMDL