MODEL 5
REMARK VINA RESULT: -8.064474803      2.276      2.926
REMARK  7 active torsions:
REMARK  status: ('A' for Active; 'I' for Inactive)
REMARK    1  A    between atoms: C1_2  and  C2_3
REMARK       I    between atoms: C1_2  and  N1_21
REMARK    2  A    between atoms: C2_3  and  C3_4
REMARK    3  A    between atoms: C3_4  and  C4_5
REMARK    4  A    between atoms: C3_4  and  O2_7
REMARK    5  A    between atoms: O2_7  and  C5_8
REMARK    6  A    between atoms: C5_8  and  C6_10
REMARK    7  A    between atoms: N1_21  and  C16_23
ROOT
HETATM    1  C3  UNL     1       7.746   7.725  22.312  1.00  0.00     0.150 C
ENDROOT
BRANCH   1   2
HETATM    2  C2  UNL     1       9.065   8.343  22.608  1.00  0.00     0.136 C
BRANCH   2   3
HETATM    3  C1  UNL     1       9.272   8.812  23.988  1.00  0.00     0.225 C
HETATM    4  O1  UNL     1       9.829   9.880  24.286  1.00  0.00    -0.273 OA
HETATM    5  N1  UNL     1       8.821   8.028  25.113  1.00  0.00    -0.312 N
ATOM      6  H1  UNL     1       7.849   7.728  25.180  1.00  0.00     0.170 HD
BRANCH   5   7
HETATM    7  C16 UNL     1       9.666   7.716  26.024  1.00  0.00     0.123 A
HETATM    8  C17 UNL     1      11.038   7.679  25.994  1.00  0.00     0.068 A
HETATM    9  C18 UNL     1      11.478   7.277  27.236  1.00  0.00     0.111 A
HETATM   10  N2  UNL     1      10.363   7.085  27.974  1.00  0.00    -0.310 N
HETATM   11  N3  UNL     1       9.299   7.344  27.262  1.00  0.00    -0.286 N
ATOM     12  H2  UNL     1      10.354   6.783  28.947  1.00  0.00     0.186 HD
ATOM     13  H3  UNL     1       8.337   7.274  27.595  1.00  0.00     0.188 HD
ENDBRANCH   5   7
ENDBRANCH   2   3
ENDBRANCH   1   2
BRANCH   1  14
HETATM   14  C4  UNL     1       6.972   8.530  21.330  1.00  0.00     0.118 C
HETATM   15 BR1  UNL     1       7.956   8.812  19.683  1.00  0.00    -0.094 Br
ENDBRANCH   1  14
BRANCH   1  16
HETATM   16  O2  UNL     1       7.882   6.361  21.894  1.00  0.00    -0.314 OA
BRANCH  16  17
HETATM   17  C5  UNL     1       6.833   5.584  21.478  1.00  0.00     0.268 C
HETATM   18  O3  UNL     1       5.721   5.730  22.061  1.00  0.00    -0.264 OA
BRANCH  17  19
HETATM   19  C6  UNL     1       6.899   4.584  20.399  1.00  0.00     0.050 C
HETATM   20  C7  UNL     1       7.972   5.015  19.419  1.00  0.00     0.024 C
HETATM   21  C8  UNL     1       8.200   3.932  18.393  1.00  0.00    -0.012 C
HETATM   22  C9  UNL     1       8.568   2.660  19.099  1.00  0.00     0.009 C
HETATM   23  C13 UNL     1       6.915   3.795  17.603  1.00  0.00     0.025 C
HETATM   24  C10 UNL     1       7.401   2.188  19.935  1.00  0.00    -0.012 C
HETATM   25  C11 UNL     1       6.129   2.081  19.145  1.00  0.00     0.025 C
HETATM   26  C15 UNL     1       7.183   3.243  21.011  1.00  0.00     0.024 C
HETATM   27  C12 UNL     1       5.798   3.434  18.556  1.00  0.00     0.020 C
HETATM   28 BR2  UNL     1       4.178   3.282  17.481  1.00  0.00    -0.085 Br
HETATM   29  C14 UNL     1       5.610   4.482  19.624  1.00  0.00     0.041 C
ENDBRANCH  17  19
ENDBRANCH  16  17
ENDBRANCH   1  16
TORSDOF 7
ENDMDL