MODEL 5
REMARK VINA RESULT: -8.437837220      3.753      9.740
REMARK  8 active torsions:
REMARK  status: ('A' for Active; 'I' for Inactive)
REMARK    1  A    between atoms: C2_2  and  N1_4
REMARK       I    between atoms: C4_6  and  N2_7
REMARK       I    between atoms: C4_6  and  N5_33
REMARK    2  A    between atoms: N2_7  and  C5_9
REMARK    3  A    between atoms: C5_9  and  C6_10
REMARK    4  A    between atoms: C8_12  and  C9_13
REMARK    5  A    between atoms: C9_13  and  O1_14
REMARK    6  A    between atoms: C9_13  and  N3_16
REMARK       I    between atoms: N4_19  and  C12_20
REMARK    7  A    between atoms: C12_20  and  C13_22
REMARK    8  A    between atoms: N5_33  and  C22_35
ROOT
HETATM    1  C6  UNL     1       8.869   8.951  21.362  1.00  0.00     0.005 C
HETATM    2  C7  UNL     1       7.973   7.718  21.141  1.00  0.00     0.019 C
HETATM    3  C8  UNL     1       6.807   8.657  21.181  1.00  0.00     0.061 C
HETATM    4  C21 UNL     1       7.723   9.788  20.792  1.00  0.00     0.019 C
ENDROOT
BRANCH   3   5
HETATM    5  C9  UNL     1       5.617   8.400  20.402  1.00  0.00     0.117 C
BRANCH   5   6
HETATM    6  O1  UNL     1       4.791   9.426  20.314  1.00  0.00    -0.349 OA
ATOM      7  H1  UNL     1       5.198  10.233  20.022  1.00  0.00     0.219 HD
ENDBRANCH   5   6
BRANCH   5   8
HETATM    8  N3  UNL     1       5.197   7.257  19.728  1.00  0.00    -0.362 N
HETATM    9  C10 UNL     1       4.215   6.322  20.199  1.00  0.00     0.144 C
HETATM   10  C11 UNL     1       4.154   5.069  19.324  1.00  0.00     0.145 C
HETATM   11  N4  UNL     1       5.426   4.619  18.858  1.00  0.00    -0.349 N
HETATM   12  C12 UNL     1       5.623   3.229  18.629  1.00  0.00     0.224 C
HETATM   13  C19 UNL     1       6.491   5.544  18.593  1.00  0.00     0.145 C
HETATM   14  O2  UNL     1       4.668   2.403  18.833  1.00  0.00    -0.273 OA
HETATM   15  C20 UNL     1       5.797   6.914  18.418  1.00  0.00     0.144 C
BRANCH  12  16
HETATM   16  C13 UNL     1       6.905   2.688  18.162  1.00  0.00     0.078 C
HETATM   17  C14 UNL     1       6.839   1.147  18.208  1.00  0.00     0.020 C
HETATM   18  C15 UNL     1       8.036   0.685  17.400  1.00  0.00     0.080 C
HETATM   19  C16 UNL     1       9.317   1.088  18.090  1.00  0.00     0.243 C
HETATM   20  F1  UNL     1      10.349   0.892  17.176  1.00  0.00    -0.206 F
HETATM   21  F2  UNL     1       9.585   0.276  19.176  1.00  0.00    -0.206 F
HETATM   22  C17 UNL     1       9.335   2.557  18.444  1.00  0.00     0.080 C
HETATM   23  C18 UNL     1       8.066   3.033  19.080  1.00  0.00     0.020 C
ENDBRANCH  12  16
ENDBRANCH   5   8
ENDBRANCH   3   5
BRANCH   1  24
HETATM   24  C5  UNL     1       9.103   9.302  22.799  1.00  0.00     0.142 C
BRANCH  24  25
HETATM   25  N2  UNL     1       8.858   8.156  23.681  1.00  0.00    -0.226 N
HETATM   26  C4  UNL     1       8.245   8.340  24.932  1.00  0.00     0.670 C
HETATM   27  N1  UNL     1       8.870   8.133  26.010  1.00  0.00    -0.223 N
HETATM   28  N5  UNL     1       6.902   8.779  24.972  1.00  0.00    -0.221 N
ATOM     29  H1  UNL     1       8.317   8.301  26.851  1.00  0.00     0.178 HD
ATOM     30  H5  UNL     1       6.747   9.774  24.806  1.00  0.00     0.178 HD
ATOM     31  H2  UNL     1       9.132   7.220  23.384  1.00  0.00     0.177 HD
BRANCH  27  32
HETATM   32  C2  UNL     1      10.193   7.712  26.264  1.00  0.00     0.091 C
HETATM   33  C1  UNL     1      10.396   6.940  27.546  1.00  0.00     0.032 C
HETATM   34  C3  UNL     1      11.255   8.769  26.172  1.00  0.00     0.032 C
ENDBRANCH  27  32
BRANCH  28  35
HETATM   35  C22 UNL     1       5.742   7.996  25.218  1.00  0.00     0.108 A
HETATM   36  C23 UNL     1       5.186   7.089  24.166  1.00  0.00     0.037 A
HETATM   37  C24 UNL     1       4.387   8.231  24.749  1.00  0.00    -0.025 A
HETATM   38  C25 UNL     1       3.948   9.286  23.794  1.00  0.00     0.017 C
HETATM   39  C26 UNL     1       3.231   7.702  25.625  1.00  0.00     0.017 C
ENDBRANCH  28  35
ENDBRANCH  24  25
ENDBRANCH   1  24
TORSDOF 8
ENDMDL