MODEL 2
REMARK VINA RESULT: -8.922362236      3.399      8.229
REMARK  7 active torsions:
REMARK  status: ('A' for Active; 'I' for Inactive)
REMARK    1  A    between atoms: C2_2  and  C3_3
REMARK    2  A    between atoms: C2_2  and  C18_27
REMARK    3  A    between atoms: C3_3  and  N1_4
REMARK       I    between atoms: N1_4  and  C4_6
REMARK    4  A    between atoms: C4_6  and  C5_8
REMARK       I    between atoms: N2_11  and  C8_12
REMARK       I    between atoms: C8_12  and  N3_14
REMARK    5  A    between atoms: N3_14  and  C9_16
REMARK    6  A    between atoms: C18_27  and  O3_28
REMARK    7  A    between atoms: C18_27  and  N4_30
ROOT
HETATM    1  C5  UNL     1       6.442   8.666  19.494  1.00  0.00     0.090 C
HETATM    2  C6  UNL     1       5.663   9.955  19.718  1.00  0.00     0.026 C
HETATM    3  C7  UNL     1       6.367  10.655  20.867  1.00  0.00     0.134 C
HETATM    4  N2  UNL     1       6.790   9.669  21.830  1.00  0.00    -0.333 N
HETATM    5  C8  UNL     1       7.815  10.005  22.750  1.00  0.00     0.318 C
HETATM    6  O2  UNL     1       8.341  11.147  22.705  1.00  0.00    -0.247 OA
HETATM    7  N3  UNL     1       8.276   9.097  23.729  1.00  0.00    -0.338 N
ATOM      8  H3  UNL     1       7.862   8.165  23.782  1.00  0.00     0.164 HD
HETATM    9  C13 UNL     1       6.203   8.335  21.891  1.00  0.00     0.134 C
HETATM   10  C14 UNL     1       5.524   8.055  20.565  1.00  0.00     0.026 C
HETATM   11  C15 UNL     1       4.564   9.131  20.271  1.00  0.00    -0.028 A
HETATM   12  C16 UNL     1       3.253   8.964  19.652  1.00  0.00     0.011 A
HETATM   13  C17 UNL     1       3.452   9.563  21.072  1.00  0.00     0.011 A
ENDROOT
BRANCH   1  14
HETATM   14  C4  UNL     1       6.127   8.154  18.108  1.00  0.00     0.222 C
HETATM   15  N1  UNL     1       5.788   6.795  17.913  1.00  0.00    -0.360 N
ATOM     16  H1  UNL     1       5.764   6.191  18.736  1.00  0.00     0.162 HD
HETATM   17  O1  UNL     1       6.195   9.018  17.204  1.00  0.00    -0.273 OA
BRANCH  15  18
HETATM   18  C3  UNL     1       5.473   6.198  16.633  1.00  0.00     0.135 C
BRANCH  18  19
HETATM   19  C2  UNL     1       5.462   4.697  16.805  1.00  0.00     0.074 C
HETATM   20  C1  UNL     1       4.257   4.131  16.034  1.00  0.00     0.020 C
BRANCH  19  21
HETATM   21  C18 UNL     1       6.706   4.036  16.332  1.00  0.00     0.118 C
BRANCH  21  22
HETATM   22  O3  UNL     1       6.969   4.162  15.065  1.00  0.00    -0.349 OA
ATOM     23  H3  UNL     1       7.432   4.953  14.813  1.00  0.00     0.219 HD
ENDBRANCH  21  22
BRANCH  21  24
HETATM   24  N4  UNL     1       7.628   3.298  17.086  1.00  0.00    -0.365 N
HETATM   25  C19 UNL     1       7.932   4.000  18.305  1.00  0.00     0.124 C
HETATM   26  C20 UNL     1       8.364   3.188  19.471  1.00  0.00     0.020 C
HETATM   27  C21 UNL     1       8.039   1.749  19.455  1.00  0.00     0.002 C
HETATM   28  C22 UNL     1       9.017   0.860  18.783  1.00  0.00     0.000 C
HETATM   29  C23 UNL     1      10.002   1.506  17.896  1.00  0.00     0.002 C
HETATM   30  C24 UNL     1       9.546   1.859  16.520  1.00  0.00     0.020 C
HETATM   31  C25 UNL     1       8.023   2.066  16.427  1.00  0.00     0.124 C
ENDBRANCH  21  24
ENDBRANCH  19  21
ENDBRANCH  18  19
ENDBRANCH  15  18
ENDBRANCH   1  14
BRANCH   7  32
HETATM   32  C9  UNL     1       9.311   9.457  24.647  1.00  0.00     0.097 C
HETATM   33  C10 UNL     1       9.396   8.556  25.882  1.00  0.00     0.104 C
HETATM   34  C11 UNL     1      10.906   8.628  25.727  1.00  0.00     0.247 C
HETATM   35  F1  UNL     1      11.570   7.453  25.960  1.00  0.00    -0.206 F
HETATM   36  F2  UNL     1      11.407   9.717  26.399  1.00  0.00    -0.206 F
HETATM   37  C12 UNL     1      10.671   8.926  24.257  1.00  0.00     0.104 C
ENDBRANCH   7  32
TORSDOF 7
ENDMDL