MODEL 5
REMARK VINA RESULT: -7.100348138      2.935      3.906
REMARK  5 active torsions:
REMARK  status: ('A' for Active; 'I' for Inactive)
REMARK    1  A    between atoms: C8_10  and  C9_11
REMARK    2  A    between atoms: C9_11  and  C10_12
REMARK    3  A    between atoms: C10_12  and  C11_13
REMARK    4  A    between atoms: C10_12  and  C13_16
REMARK       I    between atoms: C13_16  and  N1_18
REMARK    5  A    between atoms: N1_18  and  C14_20
ROOT
HETATM    1  C1  UNL     1       6.025   4.740  14.565  1.00  0.00     0.018 C
HETATM    2  C2  UNL     1       6.473   4.504  15.657  1.00  0.00    -0.074 C
HETATM    3  C3  UNL     1       6.996   4.231  16.990  1.00  0.00     0.063 A
HETATM    4  C4  UNL     1       7.619   3.037  17.278  1.00  0.00     0.049 A
HETATM    5 BR1  UNL     1       7.784   1.736  15.890  1.00  0.00    -0.048 Br
HETATM    6  C5  UNL     1       8.131   2.735  18.528  1.00  0.00     0.030 A
HETATM    7 BR2  UNL     1       8.984   1.056  18.868  1.00  0.00    -0.050 Br
HETATM    8  C6  UNL     1       8.000   3.687  19.517  1.00  0.00     0.034 A
HETATM    9  C7  UNL     1       7.382   4.887  19.255  1.00  0.00     0.001 A
HETATM   10  C8  UNL     1       7.099   6.025  20.023  1.00  0.00    -0.029 A
HETATM   11  C18 UNL     1       6.447   6.925  19.206  1.00  0.00     0.096 A
HETATM   12  N3  UNL     1       6.331   6.380  17.997  1.00  0.00    -0.363 N
ATOM     13  H3  UNL     1       5.889   6.824  17.191  1.00  0.00     0.165 HD
HETATM   14  C19 UNL     1       6.883   5.158  18.000  1.00  0.00     0.063 A
ENDROOT
BRANCH  10  15
HETATM   15  C9  UNL     1       7.482   6.094  21.439  1.00  0.00     0.062 C
BRANCH  15  16
HETATM   16  C10 UNL     1       7.311   7.402  22.104  1.00  0.00     0.151 C
BRANCH  16  17
HETATM   17  C11 UNL     1       8.372   7.844  22.994  1.00  0.00     0.136 C
HETATM   18  C12 UNL     1       9.350   8.870  22.548  1.00  0.00     0.091 C
HETATM   19  O1  UNL     1       8.483   7.392  24.113  1.00  0.00    -0.297 OA
ENDBRANCH  16  17
BRANCH  16  20
HETATM   20  C13 UNL     1       6.017   7.412  22.869  1.00  0.00     0.230 C
HETATM   21  O2  UNL     1       5.327   6.353  22.945  1.00  0.00    -0.273 OA
HETATM   22  N1  UNL     1       5.540   8.569  23.509  1.00  0.00    -0.338 N
ATOM     23  H1  UNL     1       6.074   9.437  23.463  1.00  0.00     0.164 HD
BRANCH  22  24
HETATM   24  C14 UNL     1       4.288   8.525  24.235  1.00  0.00     0.122 A
HETATM   25  C15 UNL     1       3.124   8.537  23.348  1.00  0.00     0.091 C
HETATM   26  N2  UNL     1       2.200   8.566  22.651  1.00  0.00    -0.195 NA
HETATM   27  C16 UNL     1       4.179   7.990  25.600  1.00  0.00     0.050 A
HETATM   28  C17 UNL     1       4.214   9.481  25.431  1.00  0.00     0.050 A
ENDBRANCH  22  24
ENDBRANCH  16  20
ENDBRANCH  15  16
ENDBRANCH  10  15
TORSDOF 5
ENDMDL