MODEL 1
REMARK VINA RESULT: -7.016998371      0.000      0.000
REMARK  9 active torsions:
REMARK  status: ('A' for Active; 'I' for Inactive)
REMARK    1  A    between atoms: C3_3  and  C4_4
REMARK    2  A    between atoms: C5_5  and  C6_6
REMARK    3  A    between atoms: C11_12  and  C12_13
REMARK    4  A    between atoms: C12_13  and  C13_14
REMARK       I    between atoms: C13_14  and  N1_16
REMARK    5  A    between atoms: N1_16  and  C14_18
REMARK    6  A    between atoms: C14_18  and  C15_19
REMARK    7  A    between atoms: N2_23  and  C17_24
REMARK    8  A    between atoms: C17_24  and  O4_25
REMARK    9  A    between atoms: C17_24  and  C18_27
ROOT
HETATM    1  C1  UNL     1       3.010  -1.109  23.908  1.00  0.00     0.113 C
HETATM    2  C2  UNL     1       3.774  -0.026  23.249  1.00  0.00    -0.097 C
HETATM    3  C3  UNL     1       4.411   0.855  22.708  1.00  0.00    -0.015 C
ENDROOT
BRANCH   3   4
HETATM    4  C4  UNL     1       5.165   1.875  22.087  1.00  0.00    -0.009 C
HETATM    5  C5  UNL     1       5.807   2.771  21.564  1.00  0.00    -0.049 C
BRANCH   5   6
HETATM    6  C6  UNL     1       6.451   3.851  20.922  1.00  0.00     0.064 A
HETATM    7  C7  UNL     1       7.413   3.475  19.965  1.00  0.00     0.032 A
HETATM    8 BR1  UNL     1       7.735   1.597  19.655  1.00  0.00    -0.049 Br
HETATM    9  C8  UNL     1       8.109   4.403  19.266  1.00  0.00     0.021 A
HETATM   10  C9  UNL     1       7.907   5.730  19.459  1.00  0.00     0.016 A
HETATM   11  C10 UNL     1       6.967   6.105  20.396  1.00  0.00     0.001 A
HETATM   12  C11 UNL     1       6.556   7.343  20.792  1.00  0.00    -0.021 A
HETATM   13  C19 UNL     1       6.224   5.188  21.140  1.00  0.00     0.071 A
HETATM   14  C16 UNL     1       5.617   7.178  21.727  1.00  0.00     0.107 A
HETATM   15  N2  UNL     1       5.383   5.818  21.972  1.00  0.00    -0.303 N
BRANCH  12  16
HETATM   16  C12 UNL     1       7.126   8.618  20.236  1.00  0.00     0.143 C
BRANCH  16  17
HETATM   17  C13 UNL     1       8.112   9.129  21.216  1.00  0.00     0.222 C
HETATM   18  O1  UNL     1       9.290   9.280  20.818  1.00  0.00    -0.273 OA
HETATM   19  N1  UNL     1       7.746   9.433  22.540  1.00  0.00    -0.351 N
ATOM     20  H1  UNL     1       6.771   9.289  22.803  1.00  0.00     0.163 HD
BRANCH  19  21
HETATM   21  C14 UNL     1       8.637   9.931  23.550  1.00  0.00     0.235 C
BRANCH  21  22
HETATM   22  C15 UNL     1       9.581   8.885  23.979  1.00  0.00     0.191 C
HETATM   23  O2  UNL     1       9.162   7.808  24.462  1.00  0.00    -0.647 OA
HETATM   24  O3  UNL     1      10.972   9.087  23.852  1.00  0.00    -0.647 OA
ENDBRANCH  21  22
ENDBRANCH  19  21
ENDBRANCH  16  17
ENDBRANCH  12  16
BRANCH  15  25
HETATM   25  C17 UNL     1       4.429   5.463  22.935  1.00  0.00     0.132 C
BRANCH  25  26
HETATM   26  O4  UNL     1       4.901   5.694  24.185  1.00  0.00    -0.348 OA
ATOM     27  H4  UNL     1       4.661   4.986  24.770  1.00  0.00     0.219 HD
ENDBRANCH  25  26
BRANCH  25  28
HETATM   28  C18 UNL     1       3.117   4.934  23.064  1.00  0.00     0.169 C
HETATM   29 BR2  UNL     1       2.420   4.517  21.235  1.00  0.00    -0.088 Br
ENDBRANCH  25  28
ENDBRANCH  15  25
ENDBRANCH   5   6
ENDBRANCH   3   4
TORSDOF 9
ENDMDL