MODEL 1
REMARK VINA RESULT: -6.631506629      0.000      0.000
REMARK  6 active torsions:
REMARK  status: ('A' for Active; 'I' for Inactive)
REMARK    1  A    between atoms: C3_3  and  C5_5
REMARK    2  A    between atoms: C10_12  and  N1_14
REMARK    3  A    between atoms: C14_17  and  N2_18
REMARK       I    between atoms: N2_18  and  C15_20
REMARK    4  A    between atoms: C15_20  and  C16_22
REMARK    5  A    between atoms: C16_22  and  N3_23
REMARK    6  A    between atoms: C20_27  and  O2_28
ROOT
HETATM    1  C1  UNL     1      10.006   2.001  18.163  1.00  0.00     0.012 C
HETATM    2  C2  UNL     1       8.708   2.638  17.870  1.00  0.00     0.002 C
HETATM    3  C3  UNL     1       7.819   1.907  16.890  1.00  0.00    -0.021 C
HETATM    4  C4  UNL     1       8.050   2.514  15.523  1.00  0.00     0.020 C
HETATM    5  C7  UNL     1       6.377   2.235  17.305  1.00  0.00     0.021 C
HETATM    6  C8  UNL     1       6.552   3.345  18.301  1.00  0.00     0.032 C
HETATM    7  C9  UNL     1       5.407   3.529  19.256  1.00  0.00     0.215 C
HETATM    8  F1  UNL     1       4.304   3.078  18.507  1.00  0.00    -0.246 F
HETATM    9  C10 UNL     1       5.175   5.031  19.504  1.00  0.00     0.208 C
HETATM   10  C11 UNL     1       5.239   5.676  18.139  1.00  0.00     0.055 C
HETATM   11  C14 UNL     1       6.277   5.553  20.391  1.00  0.00     0.154 C
HETATM   12  C20 UNL     1       7.275   4.482  20.853  1.00  0.00     0.144 C
HETATM   13  C21 UNL     1       8.262   4.080  19.779  1.00  0.00     0.044 C
HETATM   14  C22 UNL     1       7.787   2.846  19.041  1.00  0.00    -0.031 C
HETATM   15  C23 UNL     1       7.545   1.658  19.885  1.00  0.00     0.016 C
ENDROOT
BRANCH  11  16
HETATM   16  N2  UNL     1       5.890   6.352  21.525  1.00  0.00    -0.347 N
HETATM   17  C15 UNL     1       5.939   7.767  21.640  1.00  0.00     0.265 C
HETATM   18  O1  UNL     1       6.351   8.502  20.728  1.00  0.00    -0.267 OA
ATOM     19  H2  UNL     1       5.540   5.845  22.338  1.00  0.00     0.163 HD
BRANCH  17  20
HETATM   20  C16 UNL     1       5.494   8.430  22.870  1.00  0.00     0.274 C
BRANCH  20  21
HETATM   21  N3  UNL     1       6.511   8.905  23.721  1.00  0.00    -0.053 N
HETATM   22  C17 UNL     1       7.455   7.828  24.071  1.00  0.00     0.277 C
HETATM   23  C18 UNL     1       7.265  10.016  23.274  1.00  0.00     0.277 C
HETATM   24  C19 UNL     1       5.893   9.265  25.009  1.00  0.00     0.277 C
ENDBRANCH  20  21
ENDBRANCH  17  20
ENDBRANCH  11  16
BRANCH   9  25
HETATM   25  N1  UNL     1       3.910   5.303  20.163  1.00  0.00     0.094 N
HETATM   26  C12 UNL     1       3.281   4.128  20.758  1.00  0.00     0.310 C
HETATM   27  C13 UNL     1       2.905   5.706  19.168  1.00  0.00     0.310 C
ENDBRANCH   9  25
BRANCH  12  28
HETATM   28  O2  UNL     1       8.130   5.200  21.745  1.00  0.00    -0.393 OA
ATOM     29  H2  UNL     1       7.518   5.621  22.338  1.00  0.00     0.210 HD
ENDBRANCH  12  28
BRANCH   3  30
HETATM   30  C5  UNL     1       8.086   0.468  16.927  1.00  0.00    -0.010 C
HETATM   31  C6  UNL     1       7.368  -0.421  16.284  1.00  0.00     0.052 C
HETATM   32 BR1  UNL     1       5.890   0.121  15.225  1.00  0.00    -0.064 Br
ENDBRANCH   3  30
TORSDOF 6
ENDMDL