MODEL 5
REMARK VINA RESULT: -10.079155638      1.284      1.555
REMARK  5 active torsions:
REMARK  status: ('A' for Active; 'I' for Inactive)
REMARK    1  A    between atoms: N2_6  and  C4_7
REMARK    2  A    between atoms: C7_10  and  N3_11
REMARK    3  A    between atoms: C7_10  and  C19_27
REMARK       I    between atoms: N3_11  and  C8_13
REMARK    4  A    between atoms: C8_13  and  C9_15
REMARK       I    between atoms: C19_27  and  N4_29
REMARK    5  A    between atoms: N4_29  and  C20_31
ROOT
HETATM    1  C4  UNL     1       8.141   8.696  22.467  1.00  0.00     0.083 C
HETATM    2  C5  UNL     1       9.006   8.507  21.242  1.00  0.00     0.028 C
HETATM    3  C6  UNL     1       8.254   7.951  20.053  1.00  0.00     0.043 C
HETATM    4  C7  UNL     1       7.419   6.770  20.387  1.00  0.00     0.114 C
HETATM    5  C24 UNL     1       7.643   6.364  21.850  1.00  0.00     0.043 C
HETATM    6  C25 UNL     1       7.265   7.534  22.725  1.00  0.00     0.028 C
ENDROOT
BRANCH   4   7
HETATM    7  N3  UNL     1       7.698   5.608  19.533  1.00  0.00    -0.342 N
HETATM    8  C8  UNL     1       7.681   4.267  19.968  1.00  0.00     0.233 C
HETATM    9  O1  UNL     1       7.417   3.982  21.163  1.00  0.00    -0.272 OA
ATOM     10  H3  UNL     1       7.919   5.783  18.553  1.00  0.00     0.163 HD
BRANCH   8  11
HETATM   11  C9  UNL     1       7.971   3.146  19.045  1.00  0.00     0.107 C
HETATM   12  C10 UNL     1       9.422   3.235  18.614  1.00  0.00     0.030 C
HETATM   13  C11 UNL     1       9.850   2.108  17.736  1.00  0.00    -0.012 C
HETATM   14  C12 UNL     1       9.588   0.809  18.460  1.00  0.00     0.009 C
HETATM   15  C16 UNL     1       9.044   2.203  16.448  1.00  0.00     0.015 C
HETATM   16  C13 UNL     1       8.114   0.698  18.774  1.00  0.00    -0.012 C
HETATM   17  C14 UNL     1       7.371   0.740  17.442  1.00  0.00     0.015 C
HETATM   18  C18 UNL     1       7.643   1.800  19.670  1.00  0.00     0.030 C
HETATM   19  C15 UNL     1       7.599   2.115  16.843  1.00  0.00     0.060 C
HETATM   20  C17 UNL     1       7.155   3.231  17.755  1.00  0.00     0.263 C
HETATM   21  F2  UNL     1       5.815   3.088  17.952  1.00  0.00    -0.205 F
HETATM   22  F3  UNL     1       7.379   4.412  17.086  1.00  0.00    -0.205 F
ENDBRANCH   8  11
ENDBRANCH   4   7
BRANCH   4  23
HETATM   23  C19 UNL     1       5.990   7.081  20.164  1.00  0.00     0.246 C
HETATM   24  O2  UNL     1       5.146   6.195  20.447  1.00  0.00    -0.271 OA
HETATM   25  N4  UNL     1       5.509   8.295  19.656  1.00  0.00    -0.354 N
ATOM     26  H4  UNL     1       6.185   9.022  19.419  1.00  0.00     0.162 HD
BRANCH  25  27
HETATM   27  C20 UNL     1       4.097   8.577  19.448  1.00  0.00     0.084 C
HETATM   28  C21 UNL     1       3.824   9.511  18.288  1.00  0.00     0.025 C
HETATM   29  C22 UNL     1       3.198  10.538  19.200  1.00  0.00     0.004 C
HETATM   30  C23 UNL     1       3.656   9.683  20.376  1.00  0.00     0.025 C
ENDBRANCH  25  27
ENDBRANCH   4  23
BRANCH   1  31
HETATM   31  N2  UNL     1       8.959   9.157  23.531  1.00  0.00    -0.385 N
HETATM   32  C3  UNL     1      10.352   9.075  23.432  1.00  0.00     0.089 C
HETATM   33  C2  UNL     1      11.123   8.556  24.590  1.00  0.00     0.322 C
HETATM   34  N1  UNL     1      10.432   8.467  25.836  1.00  0.00     0.085 N
HETATM   35  C1  UNL     1      11.082   7.400  26.616  1.00  0.00     0.317 C
HETATM   36  F1  UNL     1      10.566   9.633  26.534  1.00  0.00    -0.018 F
HETATM   37  C27 UNL     1       9.043   8.115  25.741  1.00  0.00     0.298 C
HETATM   38  C26 UNL     1       8.393   9.128  24.825  1.00  0.00     0.153 C
ENDBRANCH   1  31
TORSDOF 5
ENDMDL