MODEL 1
REMARK VINA RESULT: -7.233537468      0.000      0.000
REMARK  6 active torsions:
REMARK  status: ('A' for Active; 'I' for Inactive)
REMARK    1  A    between atoms: C2_2  and  C3_3
REMARK    2  A    between atoms: C3_3  and  C4_4
REMARK       I    between atoms: C4_4  and  N1_6
REMARK    3  A    between atoms: N1_6  and  C5_8
REMARK       I    between atoms: N2_11  and  C8_12
REMARK    4  A    between atoms: C8_12  and  C9_14
REMARK       I    between atoms: N3_19  and  C14_20
REMARK       I    between atoms: C14_20  and  N4_22
REMARK    5  A    between atoms: N4_22  and  C15_24
REMARK    6  A    between atoms: C15_24  and  C16_25
ROOT
HETATM    1  C5  UNL     1       5.687   3.095  21.242  1.00  0.00     0.087 C
HETATM    2  C6  UNL     1       4.546   3.993  20.759  1.00  0.00     0.045 C
HETATM    3  C7  UNL     1       4.126   4.821  21.963  1.00  0.00     0.127 C
HETATM    4  N2  UNL     1       3.581   3.946  22.979  1.00  0.00    -0.352 N
HETATM    5  C8  UNL     1       2.883   4.403  24.131  1.00  0.00     0.224 C
HETATM    6  O2  UNL     1       2.509   3.565  24.975  1.00  0.00    -0.273 OA
HETATM    7  C21 UNL     1       3.759   2.505  22.743  1.00  0.00     0.127 C
HETATM    8  C22 UNL     1       5.199   2.260  22.381  1.00  0.00     0.045 C
ENDROOT
BRANCH   5   9
HETATM    9  C9  UNL     1       2.610   5.812  24.316  1.00  0.00     0.079 C
HETATM   10  C10 UNL     1       2.200   6.294  25.685  1.00  0.00     0.023 C
HETATM   11  C11 UNL     1       1.441   7.407  24.924  1.00  0.00    -0.036 C
HETATM   12  C12 UNL     1       0.159   7.801  25.531  1.00  0.00     0.029 C
HETATM   13  C19 UNL     1       2.340   8.441  24.393  1.00  0.00     0.029 C
HETATM   14  C20 UNL     1       1.242   6.303  23.852  1.00  0.00     0.023 C
HETATM   15  C13 UNL     1       0.072   9.226  26.022  1.00  0.00     0.128 C
HETATM   16  N3  UNL     1       0.690  10.060  24.969  1.00  0.00    -0.334 N
HETATM   17  C14 UNL     1      -0.085  10.959  24.206  1.00  0.00     0.318 C
HETATM   18  C18 UNL     1       2.089   9.863  24.830  1.00  0.00     0.128 C
HETATM   19  O3  UNL     1      -1.300  11.006  24.494  1.00  0.00    -0.247 OA
HETATM   20  N4  UNL     1       0.460  11.741  23.200  1.00  0.00    -0.337 N
ATOM     21  H4  UNL     1       1.458  11.602  23.037  1.00  0.00     0.164 HD
BRANCH  20  22
HETATM   22  C15 UNL     1      -0.153  12.701  22.362  1.00  0.00     0.202 C
BRANCH  22  23
HETATM   23  C16 UNL     1       0.416  12.895  21.017  1.00  0.00     0.255 C
HETATM   24  C17 UNL     1       1.644  12.223  20.589  1.00  0.00     0.091 C
HETATM   25  F1  UNL     1       0.635  14.286  20.817  1.00  0.00    -0.205 F
HETATM   26  F2  UNL     1      -0.612  12.567  20.094  1.00  0.00    -0.205 F
ENDBRANCH  22  23
ENDBRANCH  20  22
ENDBRANCH   5   9
BRANCH   1  27
HETATM   27  N1  UNL     1       6.246   2.366  20.136  1.00  0.00    -0.356 N
HETATM   28  C4  UNL     1       7.495   2.707  19.542  1.00  0.00     0.227 C
HETATM   29  O1  UNL     1       8.088   3.706  20.078  1.00  0.00    -0.273 OA
ATOM     30  H1  UNL     1       5.728   1.571  19.761  1.00  0.00     0.162 HD
BRANCH  28  31
HETATM   31  C3  UNL     1       8.118   2.011  18.406  1.00  0.00     0.048 A
HETATM   32  C23 UNL     1       7.232   1.127  17.628  1.00  0.00     0.030 A
HETATM   33  C24 UNL     1       7.640   2.393  16.995  1.00  0.00    -0.030 A
HETATM   34  C25 UNL     1       6.819   3.629  16.965  1.00  0.00     0.016 C
HETATM   35  C26 UNL     1       8.614   2.214  15.835  1.00  0.00     0.016 C
BRANCH  31  36
HETATM   36  C2  UNL     1       9.623   1.850  18.435  1.00  0.00     0.015 C
HETATM   37  C1  UNL     1      10.052   0.396  18.431  1.00  0.00     0.006 C
ENDBRANCH  31  36
ENDBRANCH  28  31
ENDBRANCH   1  27
TORSDOF 6
ENDMDL