MODEL 1
REMARK VINA RESULT: -7.210412010      0.000      0.000
REMARK  5 active torsions:
REMARK  status: ('A' for Active; 'I' for Inactive)
REMARK    1  A    between atoms: C2_2  and  C17_22
REMARK       I    between atoms: N1_3  and  C3_5
REMARK    2  A    between atoms: C3_5  and  C4_7
REMARK       I    between atoms: C17_22  and  N2_24
REMARK    3  A    between atoms: N2_24  and  C18_26
REMARK    4  A    between atoms: C18_26  and  C19_27
REMARK    5  A    between atoms: C19_27  and  N3_28
ROOT
HETATM    1  C1  UNL     1       3.972   5.586  22.496  1.00  0.00     0.074 C
HETATM    2  C2  UNL     1       5.358   5.689  21.929  1.00  0.00     0.076 C
HETATM    3  N1  UNL     1       5.861   4.634  21.451  1.00  0.00    -0.326 N
ATOM      4  H1  UNL     1       5.250   3.820  21.509  1.00  0.00     0.168 HD
HETATM    5  C3  UNL     1       7.087   4.379  20.864  1.00  0.00     0.231 C
HETATM    6  O1  UNL     1       8.141   4.521  21.568  1.00  0.00    -0.272 OA
ENDROOT
BRANCH   5   7
HETATM    7  C4  UNL     1       7.246   3.939  19.426  1.00  0.00     0.049 C
HETATM    8  C5  UNL     1       6.745   4.909  18.458  1.00  0.00     0.020 C
HETATM    9  C6  UNL     1       5.507   4.719  17.710  1.00  0.00     0.002 C
HETATM   10  C7  UNL     1       4.576   3.610  18.063  1.00  0.00     0.005 C
HETATM   11  C8  UNL     1       5.046   2.247  17.515  1.00  0.00    -0.013 C
HETATM   12  C9  UNL     1       4.268   1.155  18.168  1.00  0.00     0.010 C
HETATM   13  C10 UNL     1       6.506   2.265  17.868  1.00  0.00     0.010 C
HETATM   14  C11 UNL     1       7.293   1.066  17.508  1.00  0.00     0.077 C
HETATM   15  C16 UNL     1       6.576   2.563  19.329  1.00  0.00     0.010 C
HETATM   16 BR1  UNL     1       6.587   0.411  15.801  1.00  0.00    -0.089 Br
HETATM   17  C12 UNL     1       8.733   1.519  17.355  1.00  0.00     0.073 C
HETATM   18 BR2  UNL     1      10.002   0.163  17.850  1.00  0.00    -0.090 Br
HETATM   19  C13 UNL     1       9.025   2.869  17.945  1.00  0.00     0.022 C
HETATM   20  C14 UNL     1       8.523   3.204  19.266  1.00  0.00     0.005 C
HETATM   21  C15 UNL     1       7.826   2.043  19.989  1.00  0.00     0.012 C
ENDBRANCH   5   7
BRANCH   2  22
HETATM   22  C17 UNL     1       5.969   7.007  21.995  1.00  0.00     0.263 C
HETATM   23  O2  UNL     1       5.530   7.924  21.264  1.00  0.00    -0.266 OA
HETATM   24  N2  UNL     1       7.053   7.299  22.862  1.00  0.00    -0.354 N
ATOM     25  H2  UNL     1       7.409   6.552  23.458  1.00  0.00     0.162 HD
BRANCH  24  26
HETATM   26  C18 UNL     1       7.680   8.595  22.948  1.00  0.00     0.150 C
BRANCH  26  27
HETATM   27  C19 UNL     1       9.184   8.548  22.894  1.00  0.00     0.249 C
BRANCH  27  28
HETATM   28  N3  UNL     1       9.588   8.928  21.546  1.00  0.00    -0.078 N
ATOM     29  H33 UNL     1       9.175   8.336  20.826  1.00  0.00     0.274 HD
ATOM     30  H32 UNL     1       9.181   9.812  21.244  1.00  0.00     0.274 HD
ATOM     31  H31 UNL     1      10.608   8.931  21.520  1.00  0.00     0.274 HD
ENDBRANCH  27  28
ENDBRANCH  26  27
ENDBRANCH  24  26
ENDBRANCH   2  22
TORSDOF 5
ENDMDL