MODEL 4
REMARK VINA RESULT: -7.343776259      2.588      4.058
REMARK  7 active torsions:
REMARK  status: ('A' for Active; 'I' for Inactive)
REMARK    1  A    between atoms: C2_2  and  C3_3
REMARK    2  A    between atoms: C3_3  and  C4_5
REMARK    3  A    between atoms: C4_5  and  N1_6
REMARK    4  A    between atoms: C4_5  and  C6_10
REMARK       I    between atoms: C6_10  and  N2_12
REMARK       I    between atoms: N2_12  and  C7_14
REMARK    5  A    between atoms: C7_14  and  C8_16
REMARK    6  A    between atoms: C8_16  and  C9_17
REMARK    7  A    between atoms: C10_18  and  C11_19
ROOT
HETATM    1  C6  UNL     1       8.737   9.234  22.909  1.00  0.00     0.256 C
HETATM    2  O1  UNL     1       9.607   8.868  22.083  1.00  0.00    -0.271 OA
HETATM    3  N2  UNL     1       7.443   9.616  22.495  1.00  0.00    -0.295 N
ATOM      4  H2  UNL     1       6.759   9.908  23.193  1.00  0.00     0.171 HD
HETATM    5  C7  UNL     1       7.083   9.601  21.144  1.00  0.00     0.235 C
HETATM    6  O2  UNL     1       5.884   9.966  20.863  1.00  0.00    -0.272 OA
ENDROOT
BRANCH   5   7
HETATM    7  C8  UNL     1       7.973   9.198  20.017  1.00  0.00     0.197 C
BRANCH   7   8
HETATM    8  C9  UNL     1       7.865   7.728  19.819  1.00  0.00    -0.095 C
HETATM    9  C10 UNL     1       7.798   6.535  19.662  1.00  0.00    -0.074 C
BRANCH   9  10
HETATM   10  C11 UNL     1       7.740   5.083  19.484  1.00  0.00     0.202 C
HETATM   11  C12 UNL     1       7.063   4.398  20.681  1.00  0.00     0.061 C
HETATM   12  C13 UNL     1       5.876   3.603  20.181  1.00  0.00     0.071 C
HETATM   13 BR2  UNL     1       4.467   4.784  19.598  1.00  0.00    -0.090 Br
HETATM   14  C14 UNL     1       6.317   2.698  19.034  1.00  0.00     0.055 A
HETATM   15  C15 UNL     1       7.045   1.577  19.663  1.00  0.00    -0.018 A
HETATM   16  C20 UNL     1       7.067   3.450  18.000  1.00  0.00     0.155 A
HETATM   17  C16 UNL     1       8.272   1.262  19.336  1.00  0.00     0.003 A
HETATM   18  C17 UNL     1       9.015   1.996  18.323  1.00  0.00    -0.064 A
HETATM   19  C18 UNL     1      10.427   1.588  17.987  1.00  0.00     0.048 C
HETATM   20  C19 UNL     1       8.431   3.003  17.723  1.00  0.00     0.012 A
HETATM   21  O3  UNL     1       7.021   4.814  18.320  1.00  0.00    -0.364 OA
ENDBRANCH   9  10
ENDBRANCH   7   8
ENDBRANCH   5   7
BRANCH   1  22
HETATM   22  C4  UNL     1       9.122   9.251  24.367  1.00  0.00     0.291 C
BRANCH  22  23
HETATM   23  C3  UNL     1       8.439   8.086  25.057  1.00  0.00     0.097 C
HETATM   24 BR1  UNL     1       9.489   7.682  26.647  1.00  0.00    -0.088 Br
BRANCH  23  25
HETATM   25  C2  UNL     1       7.052   8.427  25.500  1.00  0.00     0.014 C
HETATM   26  C1  UNL     1       6.027   7.479  24.911  1.00  0.00     0.006 C
ENDBRANCH  23  25
ENDBRANCH  22  23
BRANCH  22  27
HETATM   27  N1  UNL     1      10.542   9.102  24.490  1.00  0.00    -0.065 N
HETATM   28  C5  UNL     1      11.115  10.361  24.955  1.00  0.00     0.267 C
ATOM     29  H12 UNL     1      10.800   8.315  25.086  1.00  0.00     0.277 HD
ATOM     30  H11 UNL     1      10.974   8.775  23.627  1.00  0.00     0.277 HD
ENDBRANCH  22  27
ENDBRANCH   1  22
TORSDOF 7
ENDMDL