MODEL 5
REMARK VINA RESULT: -8.737175804      2.322      3.738
REMARK  7 active torsions:
REMARK  status: ('A' for Active; 'I' for Inactive)
REMARK       I    between atoms: C1_2  and  N1_3
REMARK       I    between atoms: C1_2  and  N5_23
REMARK    1  A    between atoms: N1_3  and  C2_5
REMARK    2  A    between atoms: C2_5  and  C3_6
REMARK    3  A    between atoms: C3_6  and  C4_7
REMARK    4  A    between atoms: C4_7  and  N2_8
REMARK    5  A    between atoms: N3_11  and  C7_12
REMARK    6  A    between atoms: C7_12  and  N4_14
REMARK    7  A    between atoms: N5_23  and  C15_25
ROOT
HETATM    1  C2  UNL     1       6.403   5.935  21.512  1.00  0.00     0.129 C
ENDROOT
BRANCH   1   2
HETATM    2  N1  UNL     1       6.893   4.570  21.446  1.00  0.00    -0.343 N
HETATM    3  C1  UNL     1       7.272   4.000  20.203  1.00  0.00     0.316 C
HETATM    4  O1  UNL     1       7.169   4.716  19.164  1.00  0.00    -0.247 OA
HETATM    5  N5  UNL     1       7.751   2.667  20.135  1.00  0.00    -0.333 N
ATOM      6  H5  UNL     1       7.808   2.150  21.012  1.00  0.00     0.165 HD
ATOM      7  H1  UNL     1       6.964   4.017  22.300  1.00  0.00     0.164 HD
BRANCH   5   8
HETATM    8  C15 UNL     1       8.161   1.983  18.952  1.00  0.00     0.040 C
HETATM    9  C16 UNL     1       8.870   0.662  19.287  1.00  0.00     0.036 C
HETATM   10  C17 UNL     1       9.661   0.461  18.003  1.00  0.00    -0.010 C
HETATM   11  C18 UNL     1      10.356   1.827  17.917  1.00  0.00     0.012 C
HETATM   12  C22 UNL     1       8.735   0.290  16.832  1.00  0.00     0.030 C
HETATM   13  C19 UNL     1       9.129   2.739  18.085  1.00  0.00     0.016 C
HETATM   14  C20 UNL     1       8.503   2.771  16.694  1.00  0.00     0.033 C
HETATM   15  C21 UNL     1       7.764   1.425  16.718  1.00  0.00     0.040 C
HETATM   16 CL1  UNL     1       6.691   1.235  15.347  1.00  0.00    -0.119 Cl
HETATM   17  C23 UNL     1       7.007   1.580  18.043  1.00  0.00     0.057 C
ENDBRANCH   5   8
ENDBRANCH   1   2
BRANCH   1  18
HETATM   18  C3  UNL     1       4.952   5.927  21.984  1.00  0.00     0.064 C
BRANCH  18  19
HETATM   19  C4  UNL     1       4.836   6.361  23.418  1.00  0.00     0.060 C
BRANCH  19  20
HETATM   20  N2  UNL     1       5.026   7.728  23.660  1.00  0.00    -0.390 N
HETATM   21  C5  UNL     1       4.432   8.682  22.811  1.00  0.00     0.141 C
HETATM   22  C6  UNL     1       5.117  10.039  23.107  1.00  0.00     0.145 C
HETATM   23  N3  UNL     1       6.468   9.716  23.344  1.00  0.00    -0.355 N
HETATM   24  C13 UNL     1       6.700   9.173  24.719  1.00  0.00     0.145 C
HETATM   25  C14 UNL     1       5.590   8.147  24.883  1.00  0.00     0.141 C
BRANCH  23  26
HETATM   26  C7  UNL     1       7.554   9.799  22.509  1.00  0.00     0.172 C
HETATM   27  S1  UNL     1       8.786   8.639  22.719  1.00  0.00    -0.041 SA
BRANCH  26  28
HETATM   28  N4  UNL     1       7.811  10.701  21.492  1.00  0.00    -0.358 N
HETATM   29  C8  UNL     1       7.789  10.504  20.084  1.00  0.00     0.128 C
HETATM   30  C9  UNL     1       6.482  11.111  19.574  1.00  0.00     0.057 C
HETATM   31  C10 UNL     1       6.200  12.366  20.394  1.00  0.00     0.173 C
HETATM   32  F1  UNL     1       5.522  13.245  19.601  1.00  0.00    -0.249 F
HETATM   33  C11 UNL     1       7.504  13.003  20.846  1.00  0.00     0.057 C
HETATM   34  C12 UNL     1       8.125  12.113  21.896  1.00  0.00     0.128 C
ENDBRANCH  26  28
ENDBRANCH  23  26
ENDBRANCH  19  20
ENDBRANCH  18  19
ENDBRANCH   1  18
TORSDOF 7
ENDMDL