MODEL 3
REMARK VINA RESULT: -7.555985857      1.342      2.510
REMARK  13 active torsions:
REMARK  status: ('A' for Active; 'I' for Inactive)
REMARK    1  A    between atoms: C2_2  and  O1_3
REMARK    2  A    between atoms: O1_3  and  C3_4
REMARK    3  A    between atoms: C3_4  and  C4_6
REMARK    4  A    between atoms: C4_6  and  C5_7
REMARK    5  A    between atoms: C4_6  and  N1_19
REMARK    6  A    between atoms: C5_7  and  S1_8
REMARK    7  A    between atoms: S1_8  and  C6_9
REMARK    8  A    between atoms: C6_9  and  C7_10
REMARK       I    between atoms: N1_19  and  C16_21
REMARK    9  A    between atoms: C16_21  and  C17_23
REMARK   10  A    between atoms: C17_23  and  N2_24
REMARK   11  A    between atoms: C17_23  and  C19_32
REMARK   12  A    between atoms: N2_24  and  S2_26
REMARK   13  A    between atoms: S2_26  and  N3_29
ROOT
HETATM    1  N1  UNL     1      -5.625  27.515   1.685  1.00  0.00    -0.345 N
ATOM      2  H1  UNL     1      -5.202  27.452   2.611  1.00  0.00     0.163 HD
HETATM    3  C16 UNL     1      -6.633  28.476   1.498  1.00  0.00     0.242 C
HETATM    4  O3  UNL     1      -7.193  28.553   0.369  1.00  0.00    -0.271 OA
ENDROOT
BRANCH   1   5
HETATM    5  C4  UNL     1      -5.147  26.624   0.686  1.00  0.00     0.193 C
BRANCH   5   6
HETATM    6  C3  UNL     1      -3.694  26.644   0.494  1.00  0.00     0.282 C
HETATM    7  O2  UNL     1      -3.074  27.738   0.513  1.00  0.00    -0.263 OA
BRANCH   6   8
HETATM    8  O1  UNL     1      -2.933  25.482   0.292  1.00  0.00    -0.320 OA
BRANCH   8   9
HETATM    9  C2  UNL     1      -2.241  25.203  -0.894  1.00  0.00     0.174 C
HETATM   10  C1  UNL     1      -3.056  25.514  -2.138  1.00  0.00     0.034 C
ENDBRANCH   8   9
ENDBRANCH   6   8
ENDBRANCH   5   6
BRANCH   5  11
HETATM   11  C5  UNL     1      -5.616  25.187   0.995  1.00  0.00     0.109 C
BRANCH  11  12
HETATM   12  S1  UNL     1      -6.385  24.537  -0.538  1.00  0.00    -0.166 SA
BRANCH  12  13
HETATM   13  C6  UNL     1      -6.645  25.851  -1.736  1.00  0.00     0.079 C
BRANCH  13  14
HETATM   14  C7  UNL     1      -7.760  25.488  -2.690  1.00  0.00    -0.001 C
HETATM   15  C8  UNL     1      -7.265  25.492  -4.113  1.00  0.00     0.006 C
HETATM   16  C9  UNL     1      -8.271  25.972  -5.121  1.00  0.00     0.000 C
HETATM   17  C10 UNL     1      -9.533  25.183  -5.197  1.00  0.00     0.000 C
HETATM   18  C11 UNL     1     -10.607  25.740  -4.286  1.00  0.00     0.005 C
HETATM   19  C12 UNL     1     -10.187  25.397  -2.875  1.00  0.00    -0.010 C
HETATM   20  C13 UNL     1     -10.930  26.151  -1.794  1.00  0.00     0.005 C
HETATM   21  C15 UNL     1      -8.990  26.294  -2.565  1.00  0.00    -0.006 C
HETATM   22  C14 UNL     1      -9.578  26.396  -1.166  1.00  0.00     0.006 C
ENDBRANCH  13  14
ENDBRANCH  12  13
ENDBRANCH  11  12
ENDBRANCH   5  11
ENDBRANCH   1   5
BRANCH   3  23
HETATM   23  C17 UNL     1      -7.097  29.432   2.553  1.00  0.00     0.190 C
BRANCH  23  24
HETATM   24  N2  UNL     1      -5.936  29.869   3.273  1.00  0.00    -0.289 N
ATOM     25  H2  UNL     1      -5.530  29.321   4.032  1.00  0.00     0.174 HD
BRANCH  24  26
HETATM   26  S2  UNL     1      -5.279  31.359   2.783  1.00  0.00     0.315 S
HETATM   27  O4  UNL     1      -6.046  31.961   1.615  1.00  0.00    -0.183 OA
HETATM   28  O5  UNL     1      -3.851  31.202   2.295  1.00  0.00    -0.183 OA
BRANCH  26  29
HETATM   29  N3  UNL     1      -5.223  32.537   4.037  1.00  0.00    -0.307 N
HETATM   30  C18 UNL     1      -6.306  33.455   3.998  1.00  0.00     0.161 C
ATOM     31  H3  UNL     1      -4.484  32.572   4.739  1.00  0.00     0.173 HD
ENDBRANCH  26  29
ENDBRANCH  24  26
ENDBRANCH  23  24
BRANCH  23  32
HETATM   32  C19 UNL     1      -8.116  28.762   3.438  1.00  0.00     0.018 C
HETATM   33  C20 UNL     1      -8.912  27.751   2.707  1.00  0.00     0.007 C
HETATM   34  C21 UNL     1     -10.237  28.192   2.163  1.00  0.00     0.000 C
HETATM   35  C22 UNL     1     -11.144  28.582   3.290  1.00  0.00     0.000 C
HETATM   36  C23 UNL     1     -10.324  29.032   4.457  1.00  0.00     0.000 C
HETATM   37  C24 UNL     1      -9.060  29.761   4.069  1.00  0.00     0.007 C
ENDBRANCH  23  32
ENDBRANCH   3  23
TORSDOF 13
ENDMDL