MODEL 4
REMARK VINA RESULT: -7.279421974      1.448      1.786
REMARK  13 active torsions:
REMARK  status: ('A' for Active; 'I' for Inactive)
REMARK    1  A    between atoms: C2_2  and  O1_3
REMARK    2  A    between atoms: O1_3  and  C3_4
REMARK       I    between atoms: C3_4  and  N1_6
REMARK    3  A    between atoms: C6_9  and  C7_10
REMARK    4  A    between atoms: C7_10  and  C8_11
REMARK    5  A    between atoms: C8_11  and  N2_12
REMARK    6  A    between atoms: C8_11  and  C21_33
REMARK       I    between atoms: N2_12  and  C9_14
REMARK    7  A    between atoms: C9_14  and  C10_16
REMARK       I    between atoms: N3_20  and  C14_21
REMARK       I    between atoms: C14_21  and  N4_23
REMARK    8  A    between atoms: N4_23  and  C15_25
REMARK    9  A    between atoms: C15_25  and  C16_26
REMARK   10  A    between atoms: C15_25  and  C17_29
REMARK   11  A    between atoms: C17_29  and  C19_31
REMARK   12  A    between atoms: C21_33  and  C22_35
REMARK   13  A    between atoms: C22_35  and  C23_36
ROOT
HETATM    1  N2  UNL     1      -7.076  26.763  -0.517  1.00  0.00    -0.348 N
ATOM      2  H2  UNL     1      -6.149  26.882  -0.108  1.00  0.00     0.163 HD
HETATM    3  C9  UNL     1      -8.235  26.978   0.296  1.00  0.00     0.241 C
HETATM    4  O3  UNL     1      -9.327  26.833  -0.270  1.00  0.00    -0.271 OA
ENDROOT
BRANCH   1   5
HETATM    5  C8  UNL     1      -7.198  26.369  -1.950  1.00  0.00     0.154 C
BRANCH   5   6
HETATM    6  C7  UNL     1      -7.186  27.665  -2.673  1.00  0.00     0.039 C
BRANCH   6   7
HETATM    7  C6  UNL     1      -8.080  27.877  -3.825  1.00  0.00     0.007 C
HETATM    8  C5  UNL     1      -9.282  28.749  -3.505  1.00  0.00     0.026 C
HETATM    9  C4  UNL     1      -9.718  29.091  -4.941  1.00  0.00     0.128 C
HETATM   10  N1  UNL     1      -8.444  29.321  -5.604  1.00  0.00    -0.328 N
HETATM   11  C3  UNL     1      -8.328  29.977  -6.862  1.00  0.00     0.362 C
HETATM   12  C26 UNL     1      -7.355  28.821  -4.830  1.00  0.00     0.132 C
HETATM   13  O2  UNL     1      -7.201  30.151  -7.410  1.00  0.00    -0.238 OA
BRANCH  11  14
HETATM   14  O1  UNL     1      -9.415  30.469  -7.575  1.00  0.00    -0.304 OA
BRANCH  14  15
HETATM   15  C2  UNL     1     -10.426  29.575  -8.077  1.00  0.00     0.176 C
HETATM   16  C1  UNL     1      -9.700  28.398  -8.679  1.00  0.00     0.034 C
ENDBRANCH  14  15
ENDBRANCH  11  14
ENDBRANCH   6   7
ENDBRANCH   5   6
BRANCH   5  17
HETATM   17  C21 UNL     1      -6.186  25.374  -2.259  1.00  0.00     0.149 C
HETATM   18  O7  UNL     1      -6.078  24.389  -1.490  1.00  0.00    -0.296 OA
BRANCH  17  19
HETATM   19  C22 UNL     1      -5.259  25.380  -3.390  1.00  0.00     0.084 C
BRANCH  19  20
HETATM   20  C23 UNL     1      -4.011  26.241  -3.093  1.00  0.00    -0.016 C
HETATM   21  C24 UNL     1      -2.747  25.413  -3.212  1.00  0.00     0.010 C
HETATM   22  C25 UNL     1      -3.927  27.355  -4.123  1.00  0.00     0.010 C
ENDBRANCH  19  20
ENDBRANCH  17  19
ENDBRANCH   5  17
ENDBRANCH   1   5
BRANCH   3  23
HETATM   23  C10 UNL     1      -8.069  27.345   1.693  1.00  0.00     0.181 C
HETATM   24  C11 UNL     1      -7.122  26.316   2.322  1.00  0.00     0.037 C
HETATM   25  C12 UNL     1      -6.860  26.993   3.655  1.00  0.00     0.022 C
HETATM   26  C13 UNL     1      -6.820  28.443   3.327  1.00  0.00     0.129 C
HETATM   27  N3  UNL     1      -7.620  28.613   2.070  1.00  0.00    -0.321 N
HETATM   28  C14 UNL     1      -7.775  29.903   1.554  1.00  0.00     0.319 C
HETATM   29  O4  UNL     1      -8.456  30.143   0.549  1.00  0.00    -0.247 OA
HETATM   30  N4  UNL     1      -7.142  31.036   2.167  1.00  0.00    -0.328 N
ATOM     31  H4  UNL     1      -6.572  30.924   3.005  1.00  0.00     0.165 HD
BRANCH  30  32
HETATM   32  C15 UNL     1      -7.332  32.374   1.554  1.00  0.00     0.191 C
BRANCH  32  33
HETATM   33  C16 UNL     1      -5.988  32.999   1.475  1.00  0.00     0.197 C
HETATM   34  O5  UNL     1      -4.947  32.260   1.403  1.00  0.00    -0.646 OA
HETATM   35  O6  UNL     1      -5.742  34.353   1.466  1.00  0.00    -0.646 OA
ENDBRANCH  32  33
BRANCH  32  36
HETATM   36  C17 UNL     1      -8.348  33.135   2.339  1.00  0.00     0.014 C
HETATM   37  C18 UNL     1      -9.704  33.165   1.660  1.00  0.00     0.012 C
BRANCH  36  38
HETATM   38  C19 UNL     1      -8.497  32.856   3.776  1.00  0.00     0.002 C
HETATM   39  C20 UNL     1      -8.153  33.961   4.736  1.00  0.00     0.005 C
ENDBRANCH  36  38
ENDBRANCH  32  36
ENDBRANCH  30  32
ENDBRANCH   3  23
TORSDOF 13
ENDMDL