MODEL 1
REMARK VINA RESULT: -8.619338310      0.000      0.000
REMARK  12 active torsions:
REMARK  status: ('A' for Active; 'I' for Inactive)
REMARK    1  A    between atoms: C2_2  and  C4_4
REMARK    2  A    between atoms: C4_4  and  C5_5
REMARK    3  A    between atoms: C5_5  and  N1_6
REMARK    4  A    between atoms: C5_5  and  C13_16
REMARK       I    between atoms: N1_6  and  C6_8
REMARK    5  A    between atoms: C6_8  and  C7_10
REMARK    6  A    between atoms: C13_16  and  C14_17
REMARK    7  A    between atoms: C13_16  and  N2_19
REMARK       I    between atoms: N2_19  and  C15_21
REMARK    8  A    between atoms: C15_21  and  C16_23
REMARK    9  A    between atoms: C16_23  and  C17_24
REMARK   10  A    between atoms: C20_27  and  C21_28
REMARK   11  A    between atoms: C21_28  and  N3_29
REMARK   12  A    between atoms: C24_34  and  C25_35
ROOT
HETATM    1  N2  UNL     1      -7.460  26.838   1.450  1.00  0.00    -0.348 N
ATOM      2  H2  UNL     1      -8.077  27.535   1.035  1.00  0.00     0.163 HD
HETATM    3  C15 UNL     1      -7.216  26.841   2.839  1.00  0.00     0.218 C
HETATM    4  O3  UNL     1      -6.451  25.957   3.318  1.00  0.00    -0.274 OA
ENDROOT
BRANCH   1   5
HETATM    5  C13 UNL     1      -6.821  25.825   0.608  1.00  0.00     0.168 C
BRANCH   5   6
HETATM    6  C5  UNL     1      -5.580  26.395  -0.024  1.00  0.00     0.114 C
BRANCH   6   7
HETATM    7  C4  UNL     1      -4.359  25.858   0.631  1.00  0.00     0.031 C
BRANCH   7   8
HETATM    8  C2  UNL     1      -3.850  24.617  -0.034  1.00  0.00    -0.021 C
HETATM    9  C1  UNL     1      -2.315  24.694  -0.039  1.00  0.00     0.009 C
HETATM   10  C3  UNL     1      -4.283  23.344   0.638  1.00  0.00     0.009 C
ENDBRANCH   7   8
ENDBRANCH   6   7
BRANCH   6  11
HETATM   11  N1  UNL     1      -5.568  26.135  -1.463  1.00  0.00    -0.354 N
HETATM   12  C6  UNL     1      -4.697  26.803  -2.364  1.00  0.00     0.222 C
HETATM   13  O1  UNL     1      -3.905  27.654  -1.905  1.00  0.00    -0.273 OA
ATOM     14  H1  UNL     1      -6.216  25.441  -1.837  1.00  0.00     0.163 HD
BRANCH  12  15
HETATM   15  C7  UNL     1      -4.749  26.483  -3.791  1.00  0.00     0.078 C
HETATM   16  C8  UNL     1      -5.563  25.278  -4.125  1.00  0.00     0.014 C
HETATM   17  C9  UNL     1      -7.041  25.497  -4.144  1.00  0.00     0.001 C
HETATM   18  C10 UNL     1      -7.490  26.762  -4.799  1.00  0.00     0.000 C
HETATM   19  C11 UNL     1      -6.636  27.960  -4.439  1.00  0.00     0.001 C
HETATM   20  C12 UNL     1      -5.187  27.644  -4.663  1.00  0.00     0.014 C
ENDBRANCH  12  15
ENDBRANCH   6  11
ENDBRANCH   5   6
BRANCH   5  21
HETATM   21  C14 UNL     1      -7.773  25.308  -0.404  1.00  0.00     0.258 C
HETATM   22  O2  UNL     1      -7.672  24.198  -0.864  1.00  0.00    -0.305 OA
ENDBRANCH   5  21
ENDBRANCH   1   5
BRANCH   3  23
HETATM   23  C16 UNL     1      -7.854  27.863   3.679  1.00  0.00     0.107 C
BRANCH  23  24
HETATM   24  C17 UNL     1      -8.600  28.899   2.911  1.00  0.00    -0.006 C
HETATM   25  C18 UNL     1      -9.841  29.288   3.713  1.00  0.00     0.005 C
HETATM   26  C19 UNL     1      -9.478  30.493   4.556  1.00  0.00     0.006 C
HETATM   27  C20 UNL     1      -9.438  31.737   3.639  1.00  0.00     0.004 C
HETATM   28  C26 UNL     1      -8.622  31.366   2.470  1.00  0.00     0.006 C
HETATM   29  C27 UNL     1      -7.732  30.129   2.718  1.00  0.00     0.005 C
BRANCH  27  30
HETATM   30  C21 UNL     1      -9.066  32.879   4.491  1.00  0.00     0.134 C
BRANCH  30  31
HETATM   31  N3  UNL     1      -8.317  33.938   3.924  1.00  0.00    -0.311 N
HETATM   32  C22 UNL     1      -8.852  34.965   3.021  1.00  0.00     0.363 C
HETATM   33  O4  UNL     1     -10.042  35.321   3.084  1.00  0.00    -0.238 OA
HETATM   34  O5  UNL     1      -7.780  35.327   2.230  1.00  0.00    -0.301 OA
HETATM   35  C23 UNL     1      -6.599  34.578   2.602  1.00  0.00     0.217 C
HETATM   36  C24 UNL     1      -6.961  34.335   4.074  1.00  0.00     0.214 C
BRANCH  36  37
HETATM   37  C25 UNL     1      -6.012  33.607   4.844  1.00  0.00     0.199 C
HETATM   38  O6  UNL     1      -5.350  32.643   4.311  1.00  0.00    -0.646 OA
HETATM   39  O7  UNL     1      -5.715  33.843   6.163  1.00  0.00    -0.646 OA
ENDBRANCH  36  37
ENDBRANCH  30  31
ENDBRANCH  27  30
ENDBRANCH  23  24
ENDBRANCH   3  23
TORSDOF 12
ENDMDL