MODEL 2
REMARK VINA RESULT: -7.002664824      1.553      4.543
REMARK  15 active torsions:
REMARK  status: ('A' for Active; 'I' for Inactive)
REMARK    1  A    between atoms: N1_2  and  C3_4
REMARK    2  A    between atoms: C3_4  and  C4_5
REMARK    3  A    between atoms: C3_4  and  C25_42
REMARK       I    between atoms: C4_5  and  N2_7
REMARK       I    between atoms: N2_7  and  C5_9
REMARK    4  A    between atoms: C5_9  and  C6_11
REMARK    5  A    between atoms: C6_11  and  C21_38
REMARK    6  A    between atoms: N3_12  and  C7_14
REMARK    7  A    between atoms: C7_14  and  C15_22
REMARK    8  A    between atoms: C8_15  and  C9_16
REMARK    9  A    between atoms: C15_22  and  O3_23
REMARK   10  A    between atoms: C16_25  and  O4_26
REMARK   11  A    between atoms: C16_25  and  N4_28
REMARK   12  A    between atoms: C17_30  and  C18_31
REMARK   13  A    between atoms: C18_31  and  C19_32
REMARK   14  A    between atoms: C19_32  and  C20_33
REMARK   15  A    between atoms: C20_33  and  N5_34
ROOT
HETATM    1  C7  UNL     1      -7.948  27.383   2.081  1.00  0.00     0.067 C
HETATM    2  C8  UNL     1      -7.328  26.279   1.391  1.00  0.00     0.010 C
ENDROOT
BRANCH   1   3
HETATM    3  N3  UNL     1      -9.233  27.783   1.623  1.00  0.00    -0.352 N
HETATM    4  C6  UNL     1      -9.851  27.556   0.433  1.00  0.00     0.086 C
ATOM      5  H3  UNL     1      -9.778  28.326   2.292  1.00  0.00     0.166 HD
BRANCH   4   6
HETATM    6  C5  UNL     1      -9.311  28.149  -0.786  1.00  0.00     0.271 C
HETATM    7  N2  UNL     1      -9.160  27.522  -2.058  1.00  0.00    -0.290 N
HETATM    8  C4  UNL     1      -8.656  28.165  -3.190  1.00  0.00     0.259 C
ATOM      9  H2  UNL     1      -9.438  26.544  -2.146  1.00  0.00     0.172 HD
HETATM   10  O1  UNL     1      -8.316  29.398  -3.026  1.00  0.00    -0.271 OA
HETATM   11  O2  UNL     1      -8.907  29.377  -0.795  1.00  0.00    -0.266 OA
BRANCH   8  12
HETATM   12  C3  UNL     1      -8.458  27.654  -4.527  1.00  0.00     0.320 C
BRANCH  12  13
HETATM   13  N1  UNL     1      -7.152  27.015  -4.689  1.00  0.00     0.094 N
HETATM   14  C1  UNL     1      -7.264  25.585  -4.390  1.00  0.00     0.310 C
HETATM   15  C2  UNL     1      -6.118  27.516  -3.850  1.00  0.00     0.310 C
ENDBRANCH  12  13
BRANCH  12  16
HETATM   16  C25 UNL     1      -8.769  28.442  -5.713  1.00  0.00    -0.011 C
HETATM   17  C26 UNL     1      -7.631  29.273  -6.260  1.00  0.00     0.017 C
HETATM   18  C27 UNL     1      -9.993  29.293  -5.717  1.00  0.00     0.017 C
HETATM   19  C28 UNL     1      -9.025  27.405  -6.866  1.00  0.00     0.017 C
ENDBRANCH  12  16
ENDBRANCH   8  12
ENDBRANCH   4   6
BRANCH   4  20
HETATM   20  C21 UNL     1     -11.368  27.673   0.611  1.00  0.00    -0.003 C
HETATM   21  C22 UNL     1     -11.672  27.823   2.108  1.00  0.00     0.021 C
HETATM   22  C23 UNL     1     -11.982  28.819  -0.105  1.00  0.00     0.021 C
HETATM   23  C24 UNL     1     -12.096  26.397   0.223  1.00  0.00     0.021 C
ENDBRANCH   4  20
ENDBRANCH   1   3
BRANCH   1  24
HETATM   24  C15 UNL     1      -7.282  28.459   2.795  1.00  0.00     0.143 C
HETATM   25  C16 UNL     1      -6.900  29.802   2.453  1.00  0.00     0.176 C
BRANCH  24  26
HETATM   26  O3  UNL     1      -6.930  28.181   4.052  1.00  0.00    -0.355 OA
ATOM     27  H3  UNL     1      -7.453  28.602   4.725  1.00  0.00     0.218 HD
ENDBRANCH  24  26
BRANCH  25  28
HETATM   28  O4  UNL     1      -7.299  30.367   1.352  1.00  0.00    -0.344 OA
ATOM     29  H4  UNL     1      -7.701  31.228   1.349  1.00  0.00     0.219 HD
ENDBRANCH  25  28
BRANCH  25  30
HETATM   30  N4  UNL     1      -6.096  30.661   3.192  1.00  0.00    -0.348 N
HETATM   31  C17 UNL     1      -5.905  31.877   3.210  1.00  0.00     0.063 C
ATOM     32  H4  UNL     1      -5.530  30.167   3.882  1.00  0.00     0.167 HD
BRANCH  31  33
HETATM   33  C18 UNL     1      -4.935  32.531   4.164  1.00  0.00     0.046 C
BRANCH  33  34
HETATM   34  C19 UNL     1      -5.640  33.419   5.142  1.00  0.00     0.032 C
BRANCH  34  35
HETATM   35  C20 UNL     1      -6.588  34.380   4.436  1.00  0.00     0.230 C
BRANCH  35  36
HETATM   36  N5  UNL     1      -6.226  35.756   4.696  1.00  0.00    -0.079 N
ATOM     37  H53 UNL     1      -5.351  35.822   5.218  1.00  0.00     0.274 HD
ATOM     38  H52 UNL     1      -5.935  36.235   3.844  1.00  0.00     0.274 HD
ATOM     39  H51 UNL     1      -6.982  36.253   5.167  1.00  0.00     0.274 HD
ENDBRANCH  35  36
ENDBRANCH  34  35
ENDBRANCH  33  34
ENDBRANCH  31  33
ENDBRANCH  25  30
ENDBRANCH   1  24
BRANCH   2  40
HETATM   40  C9  UNL     1      -6.041  25.664   1.810  1.00  0.00     0.010 C
HETATM   41  C10 UNL     1      -5.898  24.254   1.195  1.00  0.00     0.008 C
HETATM   42  C11 UNL     1      -5.746  24.300  -0.290  1.00  0.00     0.001 C
HETATM   43  C12 UNL     1      -4.485  24.999  -0.739  1.00  0.00     0.000 C
HETATM   44  C13 UNL     1      -3.857  25.575   0.536  1.00  0.00     0.001 C
HETATM   45  C14 UNL     1      -4.873  26.477   1.141  1.00  0.00     0.008 C
ENDBRANCH   2  40
TORSDOF 15
ENDMDL