MODEL 1
REMARK VINA RESULT: -7.786759353      0.000      0.000
REMARK  15 active torsions:
REMARK  status: ('A' for Active; 'I' for Inactive)
REMARK    1  A    between atoms: C2_2  and  C3_4
REMARK    2  A    between atoms: C7_8  and  C8_9
REMARK       I    between atoms: C8_9  and  N1_11
REMARK    3  A    between atoms: N1_11  and  C9_13
REMARK    4  A    between atoms: C9_13  and  C10_14
REMARK    5  A    between atoms: C9_13  and  C14_18
REMARK    6  A    between atoms: C10_14  and  C11_15
REMARK    7  A    between atoms: C14_18  and  O3_19
REMARK    8  A    between atoms: C14_18  and  C15_21
REMARK       I    between atoms: C15_21  and  N2_23
REMARK    9  A    between atoms: N2_23  and  C16_25
REMARK   10  A    between atoms: C16_25  and  C17_26
REMARK   11  A    between atoms: C16_25  and  C21_30
REMARK   12  A    between atoms: C17_26  and  C18_27
REMARK   13  A    between atoms: C21_30  and  C22_32
REMARK       I    between atoms: C22_32  and  N3_34
REMARK   14  A    between atoms: N3_34  and  C23_36
REMARK   15  A    between atoms: C23_36  and  C24_37
ROOT
HETATM    1  C14 UNL     1      -7.277  28.523   3.215  1.00  0.00     0.134 C
ENDROOT
BRANCH   1   2
HETATM    2  C9  UNL     1      -8.573  29.203   3.531  1.00  0.00     0.147 C
BRANCH   2   3
HETATM    3  N1  UNL     1      -8.325  30.629   3.662  1.00  0.00    -0.350 N
HETATM    4  C8  UNL     1      -8.308  31.534   2.576  1.00  0.00     0.223 C
HETATM    5  O2  UNL     1      -8.516  31.125   1.416  1.00  0.00    -0.273 OA
ATOM      6  H1  UNL     1      -8.153  31.000   4.597  1.00  0.00     0.163 HD
BRANCH   4   7
HETATM    7  C7  UNL     1      -8.047  32.957   2.824  1.00  0.00     0.089 C
HETATM    8  C3  UNL     1      -6.746  33.474   2.317  1.00  0.00     0.068 C
HETATM    9  C4  UNL     1      -6.538  34.725   3.157  1.00  0.00     0.013 C
HETATM   10  C5  UNL     1      -7.294  34.528   4.444  1.00  0.00     0.002 C
HETATM   11  C6  UNL     1      -8.093  33.259   4.310  1.00  0.00     0.015 C
BRANCH   8  12
HETATM   12  C2  UNL     1      -5.607  32.557   2.400  1.00  0.00     0.128 C
HETATM   13  C1  UNL     1      -5.084  32.111   3.711  1.00  0.00     0.091 C
HETATM   14  O1  UNL     1      -5.075  32.149   1.386  1.00  0.00    -0.298 OA
ENDBRANCH   8  12
ENDBRANCH   4   7
ENDBRANCH   2   3
BRANCH   2  15
HETATM   15  C10 UNL     1      -9.315  28.542   4.604  1.00  0.00     0.036 C
BRANCH  15  16
HETATM   16  C11 UNL     1     -10.806  28.717   4.632  1.00  0.00    -0.020 C
HETATM   17  C12 UNL     1     -11.545  27.836   5.594  1.00  0.00     0.009 C
HETATM   18  C13 UNL     1     -11.311  28.369   3.222  1.00  0.00     0.009 C
ENDBRANCH  15  16
ENDBRANCH   2  15
ENDBRANCH   1   2
BRANCH   1  19
HETATM   19  O3  UNL     1      -6.404  28.484   4.181  1.00  0.00    -0.358 OA
ATOM     20  H3  UNL     1      -5.805  27.747   4.169  1.00  0.00     0.217 HD
ENDBRANCH   1  19
BRANCH   1  21
HETATM   21  C15 UNL     1      -6.876  27.908   1.991  1.00  0.00     0.273 C
HETATM   22  O4  UNL     1      -7.523  28.057   0.933  1.00  0.00    -0.266 OA
HETATM   23  N2  UNL     1      -5.716  27.093   1.930  1.00  0.00    -0.344 N
ATOM     24  H2  UNL     1      -5.162  26.954   2.775  1.00  0.00     0.163 HD
BRANCH  23  25
HETATM   25  C16 UNL     1      -5.287  26.435   0.665  1.00  0.00     0.165 C
BRANCH  25  26
HETATM   26  C17 UNL     1      -3.810  26.290   0.839  1.00  0.00     0.037 C
BRANCH  26  27
HETATM   27  C18 UNL     1      -2.993  25.701  -0.208  1.00  0.00    -0.020 C
HETATM   28  C19 UNL     1      -3.428  25.706  -1.609  1.00  0.00     0.009 C
HETATM   29  C20 UNL     1      -2.686  24.237   0.170  1.00  0.00     0.009 C
ENDBRANCH  26  27
ENDBRANCH  25  26
BRANCH  25  30
HETATM   30  C21 UNL     1      -6.041  25.164   0.680  1.00  0.00     0.239 C
HETATM   31  O5  UNL     1      -6.020  24.415   1.672  1.00  0.00    -0.285 OA
BRANCH  30  32
HETATM   32  C22 UNL     1      -6.845  24.755  -0.483  1.00  0.00     0.293 C
HETATM   33  O6  UNL     1      -7.115  23.525  -0.576  1.00  0.00    -0.264 OA
HETATM   34  N3  UNL     1      -7.263  25.724  -1.414  1.00  0.00    -0.333 N
ATOM     35  H3  UNL     1      -6.970  26.672  -1.174  1.00  0.00     0.168 HD
BRANCH  34  36
HETATM   36  C23 UNL     1      -8.002  25.653  -2.608  1.00  0.00     0.072 C
BRANCH  36  37
HETATM   37  C24 UNL     1      -7.366  25.995  -3.905  1.00  0.00    -0.019 C
HETATM   38  C25 UNL     1      -8.204  25.324  -5.027  1.00  0.00     0.020 C
HETATM   39  C26 UNL     1      -7.447  27.497  -4.195  1.00  0.00     0.020 C
HETATM   40  C27 UNL     1      -5.983  25.480  -4.111  1.00  0.00     0.020 C
ENDBRANCH  36  37
ENDBRANCH  34  36
ENDBRANCH  30  32
ENDBRANCH  25  30
ENDBRANCH  23  25
ENDBRANCH   1  21
TORSDOF 15
ENDMDL