MODEL 5
REMARK VINA RESULT: -6.332030793      2.548      6.656
REMARK  14 active torsions:
REMARK  status: ('A' for Active; 'I' for Inactive)
REMARK    1  A    between atoms: C2_2  and  C3_3
REMARK    2  A    between atoms: C3_3  and  C4_4
REMARK    3  A    between atoms: C3_3  and  N4_32
REMARK    4  A    between atoms: C4_4  and  N1_5
REMARK       I    between atoms: N1_5  and  C5_7
REMARK    5  A    between atoms: C5_7  and  C6_9
REMARK    6  A    between atoms: C6_9  and  N2_10
REMARK    7  A    between atoms: C6_9  and  C20_28
REMARK       I    between atoms: N2_10  and  C7_11
REMARK    8  A    between atoms: N2_10  and  C14_22
REMARK    9  A    between atoms: C7_11  and  C8_13
REMARK   10  A    between atoms: C8_13  and  N3_14
REMARK   11  A    between atoms: C8_13  and  C10_18
REMARK       I    between atoms: N4_32  and  C24_34
REMARK   12  A    between atoms: C24_34  and  C25_36
REMARK   13  A    between atoms: C25_36  and  O4_37
REMARK   14  A    between atoms: O4_37  and  C26_38
ROOT
HETATM    1  C6  UNL     1      -7.343  26.853  -0.343  1.00  0.00     0.187 C
ENDROOT
BRANCH   1   2
HETATM    2  C5  UNL     1      -7.267  27.491   1.015  1.00  0.00     0.241 C
HETATM    3  N1  UNL     1      -7.991  27.218   2.165  1.00  0.00    -0.357 N
ATOM      4  H1  UNL     1      -8.688  26.474   2.132  1.00  0.00     0.162 HD
HETATM    5  O1  UNL     1      -6.400  28.442   1.168  1.00  0.00    -0.271 OA
BRANCH   3   6
HETATM    6  C4  UNL     1      -7.813  27.931   3.410  1.00  0.00     0.147 C
BRANCH   6   7
HETATM    7  C3  UNL     1      -8.917  28.948   3.597  1.00  0.00     0.102 C
BRANCH   7   8
HETATM    8  C2  UNL     1      -9.706  28.674   4.865  1.00  0.00     0.022 C
HETATM    9  C1  UNL     1     -11.169  28.428   4.554  1.00  0.00     0.007 C
ENDBRANCH   7   8
BRANCH   7  10
HETATM   10  N4  UNL     1      -8.407  30.295   3.561  1.00  0.00    -0.353 N
HETATM   11  C24 UNL     1      -8.478  31.075   2.346  1.00  0.00     0.242 C
HETATM   12  O3  UNL     1      -8.984  30.602   1.302  1.00  0.00    -0.271 OA
ATOM     13  H4  UNL     1      -7.993  30.702   4.399  1.00  0.00     0.163 HD
BRANCH  11  14
HETATM   14  C25 UNL     1      -7.952  32.457   2.309  1.00  0.00     0.281 C
BRANCH  14  15
HETATM   15  O4  UNL     1      -6.736  32.614   3.003  1.00  0.00    -0.312 OA
BRANCH  15  16
HETATM   16  C26 UNL     1      -5.564  32.176   2.417  1.00  0.00     0.255 C
HETATM   17  C27 UNL     1      -4.619  31.223   3.085  1.00  0.00     0.126 C
HETATM   18  O5  UNL     1      -5.273  32.592   1.272  1.00  0.00    -0.266 OA
ENDBRANCH  15  16
ENDBRANCH  14  15
ENDBRANCH  11  14
ENDBRANCH   7  10
ENDBRANCH   6   7
ENDBRANCH   3   6
ENDBRANCH   1   2
BRANCH   1  19
HETATM   19  N2  UNL     1      -8.620  27.058  -0.995  1.00  0.00    -0.331 N
HETATM   20  C7  UNL     1      -8.701  27.704  -2.306  1.00  0.00     0.252 C
HETATM   21  O2  UNL     1      -9.856  27.815  -2.823  1.00  0.00    -0.271 OA
BRANCH  20  22
HETATM   22  C8  UNL     1      -7.609  28.253  -3.088  1.00  0.00     0.284 C
BRANCH  22  23
HETATM   23  N3  UNL     1      -8.223  29.438  -3.796  1.00  0.00    -0.066 N
HETATM   24  C9  UNL     1      -8.510  30.462  -2.808  1.00  0.00     0.267 C
ATOM     25  H32 UNL     1      -7.642  29.782  -4.561  1.00  0.00     0.277 HD
ATOM     26  H31 UNL     1      -9.043  29.184  -4.347  1.00  0.00     0.277 HD
ENDBRANCH  22  23
BRANCH  22  27
HETATM   27  C10 UNL     1      -7.179  27.394  -4.259  1.00  0.00    -0.014 C
HETATM   28  C11 UNL     1      -5.711  27.491  -4.476  1.00  0.00     0.017 C
HETATM   29  C12 UNL     1      -7.800  28.019  -5.557  1.00  0.00     0.017 C
HETATM   30  C13 UNL     1      -7.703  25.999  -4.242  1.00  0.00     0.017 C
ENDBRANCH  22  27
ENDBRANCH  20  22
BRANCH  19  31
HETATM   31  C14 UNL     1      -9.901  26.675  -0.439  1.00  0.00     0.088 C
HETATM   32  C15 UNL     1     -10.757  25.793  -1.330  1.00  0.00     0.025 C
HETATM   33  C16 UNL     1     -11.930  25.362  -0.456  1.00  0.00     0.002 C
HETATM   34  C17 UNL     1     -12.709  26.500   0.119  1.00  0.00     0.000 C
HETATM   35  C18 UNL     1     -11.746  27.281   1.029  1.00  0.00     0.002 C
HETATM   36  C19 UNL     1     -10.735  27.865   0.019  1.00  0.00     0.025 C
ENDBRANCH  19  31
ENDBRANCH   1  19
BRANCH   1  37
HETATM   37  C20 UNL     1      -6.737  25.516  -0.339  1.00  0.00    -0.022 C
HETATM   38  C21 UNL     1      -6.257  24.965   0.977  1.00  0.00     0.017 C
HETATM   39  C22 UNL     1      -5.444  25.652  -1.239  1.00  0.00     0.017 C
HETATM   40  C23 UNL     1      -7.515  24.476  -1.061  1.00  0.00     0.017 C
ENDBRANCH   1  37
TORSDOF 14
ENDMDL