MODEL 3
REMARK VINA RESULT: -7.324227767      2.787      6.175
REMARK  14 active torsions:
REMARK  status: ('A' for Active; 'I' for Inactive)
REMARK    1  A    between atoms: C2_2  and  C3_3
REMARK    2  A    between atoms: C3_3  and  C5_5
REMARK    3  A    between atoms: C5_5  and  C6_6
REMARK    4  A    between atoms: C6_6  and  C7_7
REMARK    5  A    between atoms: C6_6  and  N2_19
REMARK    6  A    between atoms: C7_7  and  C8_8
REMARK    7  A    between atoms: C8_8  and  N1_10
REMARK       I    between atoms: N1_10  and  C10_12
REMARK    8  A    between atoms: C10_12  and  O2_14
REMARK    9  A    between atoms: O2_14  and  C11_15
REMARK       I    between atoms: N2_19  and  C14_21
REMARK   10  A    between atoms: C14_21  and  C15_23
REMARK       I    between atoms: N3_28  and  C20_29
REMARK   11  A    between atoms: C20_29  and  C21_31
REMARK   12  A    between atoms: C21_31  and  N4_32
REMARK   13  A    between atoms: C21_31  and  C22_36
REMARK   14  A    between atoms: C22_36  and  C23_37
ROOT
HETATM    1  N2  UNL     1      -7.611  27.432  -1.213  1.00  0.00    -0.355 N
ATOM      2  H2  UNL     1      -6.850  26.796  -0.974  1.00  0.00     0.162 HD
HETATM    3  C14 UNL     1      -7.619  28.080  -2.493  1.00  0.00     0.241 C
HETATM    4  O4  UNL     1      -8.548  28.859  -2.795  1.00  0.00    -0.271 OA
ENDROOT
BRANCH   3   5
HETATM    5  C15 UNL     1      -6.523  27.823  -3.461  1.00  0.00     0.179 C
HETATM    6  C16 UNL     1      -7.048  27.705  -4.850  1.00  0.00     0.035 C
HETATM    7  C17 UNL     1      -7.930  26.477  -4.943  1.00  0.00     0.004 C
HETATM    8  C18 UNL     1      -7.174  25.237  -4.598  1.00  0.00     0.020 C
HETATM    9  C19 UNL     1      -6.438  25.348  -3.275  1.00  0.00     0.127 C
HETATM   10  N3  UNL     1      -5.803  26.616  -3.094  1.00  0.00    -0.337 N
HETATM   11  C20 UNL     1      -4.505  26.743  -2.590  1.00  0.00     0.251 C
HETATM   12  O5  UNL     1      -3.965  27.887  -2.480  1.00  0.00    -0.271 OA
BRANCH  11  13
HETATM   13  C21 UNL     1      -3.705  25.581  -2.167  1.00  0.00     0.275 C
BRANCH  13  14
HETATM   14  N4  UNL     1      -2.671  25.267  -3.163  1.00  0.00    -0.066 N
ATOM     15  H43 UNL     1      -3.061  24.782  -3.971  1.00  0.00     0.275 HD
ATOM     16  H42 UNL     1      -2.335  26.107  -3.635  1.00  0.00     0.275 HD
ATOM     17  H41 UNL     1      -1.906  24.741  -2.739  1.00  0.00     0.275 HD
ENDBRANCH  13  14
BRANCH  13  18
HETATM   18  C22 UNL     1      -2.994  25.866  -0.838  1.00  0.00     0.047 C
BRANCH  18  19
HETATM   19  C23 UNL     1      -3.924  25.419   0.279  1.00  0.00    -0.012 C
HETATM   20  C24 UNL     1      -4.799  24.259  -0.145  1.00  0.00     0.005 C
HETATM   21  C25 UNL     1      -6.248  24.527   0.219  1.00  0.00     0.000 C
HETATM   22  C26 UNL     1      -6.434  24.993   1.624  1.00  0.00     0.000 C
HETATM   23  C27 UNL     1      -5.519  26.129   1.963  1.00  0.00     0.000 C
HETATM   24  C28 UNL     1      -4.810  26.594   0.713  1.00  0.00     0.005 C
ENDBRANCH  18  19
ENDBRANCH  13  18
ENDBRANCH  11  13
ENDBRANCH   3   5
BRANCH   1  25
HETATM   25  C6  UNL     1      -8.659  27.666  -0.269  1.00  0.00     0.087 C
BRANCH  25  26
HETATM   26  C5  UNL     1      -8.258  28.368   0.980  1.00  0.00     0.033 C
BRANCH  26  27
HETATM   27  C3  UNL     1      -8.939  27.966   2.241  1.00  0.00     0.005 C
HETATM   28  C4  UNL     1      -8.115  28.006   3.482  1.00  0.00     0.014 C
BRANCH  27  29
HETATM   29  C2  UNL     1     -10.118  28.859   2.400  1.00  0.00    -0.033 C
HETATM   30  C1  UNL     1     -11.325  28.402   2.654  1.00  0.00     0.007 C
ENDBRANCH  27  29
ENDBRANCH  26  27
ENDBRANCH  25  26
BRANCH  25  31
HETATM   31  C7  UNL     1      -9.556  26.478  -0.059  1.00  0.00     0.050 C
BRANCH  31  32
HETATM   32  C8  UNL     1     -10.643  26.391  -1.083  1.00  0.00     0.084 C
HETATM   33  C9  UNL     1     -11.531  27.638  -1.049  1.00  0.00     0.032 C
BRANCH  32  34
HETATM   34  N1  UNL     1     -11.528  25.282  -0.795  1.00  0.00    -0.333 N
HETATM   35  C10 UNL     1     -12.121  24.468  -1.788  1.00  0.00     0.361 C
HETATM   36  O1  UNL     1     -11.913  24.663  -3.027  1.00  0.00    -0.238 OA
ATOM     37  H1  UNL     1     -11.735  25.076   0.182  1.00  0.00     0.165 HD
BRANCH  35  38
HETATM   38  O2  UNL     1     -12.965  23.409  -1.491  1.00  0.00    -0.294 OA
BRANCH  38  39
HETATM   39  C11 UNL     1     -12.827  22.165  -2.115  1.00  0.00     0.181 C
HETATM   40  C12 UNL     1     -13.847  21.188  -1.513  1.00  0.00     0.202 C
HETATM   41  O3  UNL     1     -12.868  20.811  -0.596  1.00  0.00    -0.386 OA
HETATM   42  C13 UNL     1     -11.904  21.172  -1.505  1.00  0.00     0.202 C
ENDBRANCH  38  39
ENDBRANCH  35  38
ENDBRANCH  32  34
ENDBRANCH  31  32
ENDBRANCH  25  31
ENDBRANCH   1  25
TORSDOF 14
ENDMDL