MODEL 3
REMARK VINA RESULT: -7.033147996      2.537      5.232
REMARK  12 active torsions:
REMARK  status: ('A' for Active; 'I' for Inactive)
REMARK    1  A    between atoms: C2_2  and  C4_4
REMARK    2  A    between atoms: C4_4  and  C5_5
REMARK    3  A    between atoms: C5_5  and  C6_6
REMARK    4  A    between atoms: N1_7  and  C7_8
REMARK    5  A    between atoms: N1_7  and  C13_15
REMARK    6  A    between atoms: C7_8  and  C8_9
REMARK    7  A    between atoms: C13_15  and  C14_16
REMARK    8  A    between atoms: N3_29  and  C23_30
REMARK    9  A    between atoms: C23_30  and  C24_31
REMARK   10  A    between atoms: C24_31  and  O4_32
REMARK   11  A    between atoms: C24_31  and  C25_34
REMARK   12  A    between atoms: C25_34  and  O5_35
ROOT
HETATM    1  C14 UNL     1      -8.510  28.145   0.157  1.00  0.00     0.145 C
HETATM    2  O2  UNL     1      -9.344  28.450  -0.868  1.00  0.00    -0.383 OA
HETATM    3  C15 UNL     1     -10.674  28.509  -0.707  1.00  0.00     0.173 C
HETATM    4  C16 UNL     1     -11.224  29.369  -1.864  1.00  0.00     0.018 C
HETATM    5  C17 UNL     1     -10.416  29.171  -3.104  1.00  0.00     0.013 C
HETATM    6  C18 UNL     1     -11.342  30.820  -1.464  1.00  0.00     0.079 C
HETATM    7  C19 UNL     1     -12.783  31.313  -1.641  1.00  0.00     0.020 C
HETATM    8  C20 UNL     1     -10.434  31.722  -2.207  1.00  0.00     0.221 C
HETATM    9  O3  UNL     1     -10.697  31.841  -3.457  1.00  0.00    -0.273 OA
HETATM   10  N2  UNL     1      -9.342  32.445  -1.686  1.00  0.00    -0.359 N
ATOM     11  H2  UNL     1      -9.353  33.452  -1.849  1.00  0.00     0.162 HD
HETATM   12  C21 UNL     1      -8.216  31.935  -0.952  1.00  0.00     0.152 C
HETATM   13  C22 UNL     1      -8.402  31.929   0.549  1.00  0.00     0.292 C
HETATM   14  N3  UNL     1      -7.835  30.744   1.161  1.00  0.00     0.093 N
HETATM   15  C26 UNL     1      -8.877  30.022   1.797  1.00  0.00     0.279 C
HETATM   16  C27 UNL     1      -8.930  28.553   1.530  1.00  0.00     0.040 C
HETATM   17  C28 UNL     1      -8.132  27.756   2.560  1.00  0.00     0.014 C
ENDROOT
BRANCH   1  18
HETATM   18  C13 UNL     1      -8.209  26.692   0.130  1.00  0.00     0.159 C
BRANCH  18  19
HETATM   19  N1  UNL     1      -7.077  26.342  -0.761  1.00  0.00    -0.368 N
HETATM   20  C6  UNL     1      -7.422  25.546  -1.798  1.00  0.00     0.086 C
BRANCH  20  21
HETATM   21  C5  UNL     1      -7.392  25.820  -3.231  1.00  0.00    -0.009 C
BRANCH  21  22
HETATM   22  C4  UNL     1      -6.178  25.682  -4.056  1.00  0.00     0.032 C
BRANCH  22  23
HETATM   23  C2  UNL     1      -5.674  27.109  -4.436  1.00  0.00    -0.019 C
HETATM   24  C1  UNL     1      -6.763  28.124  -4.193  1.00  0.00     0.010 C
HETATM   25  C3  UNL     1      -4.483  27.428  -3.603  1.00  0.00     0.010 C
ENDBRANCH  22  23
ENDBRANCH  21  22
ENDBRANCH  20  21
BRANCH  19  26
HETATM   26  C7  UNL     1      -5.875  26.768  -0.257  1.00  0.00     0.068 C
BRANCH  26  27
HETATM   27  C8  UNL     1      -5.168  26.193   0.907  1.00  0.00     0.028 C
HETATM   28  C9  UNL     1      -5.469  24.729   1.135  1.00  0.00     0.036 C
HETATM   29  C10 UNL     1      -4.669  23.815   0.260  1.00  0.00     0.168 C
HETATM   30  O1  UNL     1      -3.305  24.061   0.307  1.00  0.00    -0.391 OA
HETATM   31  C11 UNL     1      -3.094  25.324  -0.235  1.00  0.00     0.168 C
HETATM   32  C12 UNL     1      -3.634  26.344   0.705  1.00  0.00     0.036 C
ENDBRANCH  26  27
ENDBRANCH  19  26
ENDBRANCH  18  19
ENDBRANCH   1  18
BRANCH  14  33
HETATM   33  C23 UNL     1      -6.800  31.029   2.094  1.00  0.00     0.306 C
BRANCH  33  34
HETATM   34  C24 UNL     1      -6.124  32.351   1.935  1.00  0.00     0.170 C
BRANCH  34  35
HETATM   35  O4  UNL     1      -4.856  32.276   1.403  1.00  0.00    -0.392 OA
ATOM     36  H4  UNL     1      -4.834  32.210   0.456  1.00  0.00     0.210 HD
ENDBRANCH  34  35
BRANCH  34  37
HETATM   37  C25 UNL     1      -5.985  32.944   3.333  1.00  0.00     0.197 C
BRANCH  37  38
HETATM   38  O5  UNL     1      -4.767  32.581   3.913  1.00  0.00    -0.398 OA
ATOM     39  H5  UNL     1      -4.878  31.847   4.507  1.00  0.00     0.209 HD
ENDBRANCH  37  38
ENDBRANCH  34  37
ENDBRANCH  33  34
ENDBRANCH  14  33
TORSDOF 12
ENDMDL