MODEL 3
REMARK VINA RESULT: -6.716407758      3.374      6.112
REMARK  14 active torsions:
REMARK  status: ('A' for Active; 'I' for Inactive)
REMARK    1  A    between atoms: C2_2  and  C3_3
REMARK    2  A    between atoms: C3_3  and  C4_4
REMARK    3  A    between atoms: C4_4  and  C5_5
REMARK    4  A    between atoms: C5_5  and  N1_6
REMARK    5  A    between atoms: C5_5  and  C20_31
REMARK       I    between atoms: N1_6  and  C6_8
REMARK    6  A    between atoms: C6_8  and  C7_10
REMARK       I    between atoms: N2_14  and  C11_15
REMARK    7  A    between atoms: C11_15  and  O3_17
REMARK    8  A    between atoms: O3_17  and  C12_18
REMARK       I    between atoms: C12_18  and  N3_20
REMARK    9  A    between atoms: N3_20  and  C13_22
REMARK   10  A    between atoms: C13_22  and  C15_24
REMARK       I    between atoms: C15_24  and  N4_26
REMARK   11  A    between atoms: C20_31  and  C21_33
REMARK   12  A    between atoms: C21_33  and  O7_34
REMARK   13  A    between atoms: C21_33  and  C22_36
REMARK   14  A    between atoms: C22_36  and  C23_37
ROOT
HETATM    1  C7  UNL     1      -5.025  24.782  -0.838  1.00  0.00     0.181 C
HETATM    2  C8  UNL     1      -3.975  24.162   0.067  1.00  0.00     0.037 C
HETATM    3  C9  UNL     1      -2.920  25.203   0.276  1.00  0.00     0.022 C
HETATM    4  C10 UNL     1      -3.495  26.457  -0.323  1.00  0.00     0.129 C
HETATM    5  N2  UNL     1      -4.367  25.963  -1.343  1.00  0.00    -0.314 N
HETATM    6  C11 UNL     1      -4.543  26.539  -2.636  1.00  0.00     0.372 C
HETATM    7  O2  UNL     1      -3.937  27.573  -3.008  1.00  0.00    -0.238 OA
ENDROOT
BRANCH   1   8
HETATM    8  C6  UNL     1      -6.239  25.150  -0.037  1.00  0.00     0.241 C
HETATM    9  N1  UNL     1      -6.347  26.396   0.621  1.00  0.00    -0.348 N
ATOM     10  H1  UNL     1      -5.584  27.071   0.564  1.00  0.00     0.163 HD
HETATM   11  O1  UNL     1      -7.157  24.281   0.017  1.00  0.00    -0.271 OA
BRANCH   9  12
HETATM   12  C5  UNL     1      -7.538  26.714   1.377  1.00  0.00     0.157 C
BRANCH  12  13
HETATM   13  C4  UNL     1      -8.456  27.628   0.646  1.00  0.00     0.033 C
BRANCH  13  14
HETATM   14  C3  UNL     1      -9.855  27.208   0.436  1.00  0.00     0.002 C
BRANCH  14  15
HETATM   15  C2  UNL     1     -10.114  26.178  -0.629  1.00  0.00    -0.004 C
HETATM   16  C1  UNL     1     -11.618  25.871  -0.612  1.00  0.00     0.005 C
ENDBRANCH  14  15
ENDBRANCH  13  14
ENDBRANCH  12  13
BRANCH  12  17
HETATM   17  C20 UNL     1      -7.245  27.073   2.791  1.00  0.00     0.177 C
HETATM   18  O6  UNL     1      -6.624  26.215   3.459  1.00  0.00    -0.293 OA
BRANCH  17  19
HETATM   19  C21 UNL     1      -7.600  28.311   3.450  1.00  0.00     0.190 C
BRANCH  19  20
HETATM   20  O7  UNL     1      -6.407  28.620   4.265  1.00  0.00    -0.388 OA
ATOM     21  H7  UNL     1      -6.135  29.472   3.946  1.00  0.00     0.210 HD
ENDBRANCH  19  20
BRANCH  19  22
HETATM   22  C22 UNL     1      -8.673  28.353   4.451  1.00  0.00     0.043 C
BRANCH  22  23
HETATM   23  C23 UNL     1     -10.103  28.403   4.104  1.00  0.00    -0.020 C
HETATM   24  C24 UNL     1     -10.291  29.825   3.455  1.00  0.00     0.009 C
HETATM   25  C25 UNL     1     -11.058  28.464   5.285  1.00  0.00     0.009 C
ENDBRANCH  22  23
ENDBRANCH  19  22
ENDBRANCH  17  19
ENDBRANCH  12  17
ENDBRANCH   9  12
ENDBRANCH   1   8
BRANCH   6  26
HETATM   26  O3  UNL     1      -5.419  25.950  -3.545  1.00  0.00    -0.209 OA
BRANCH  26  27
HETATM   27  C12 UNL     1      -6.524  26.549  -4.094  1.00  0.00     0.370 C
HETATM   28  O4  UNL     1      -7.570  25.834  -4.241  1.00  0.00    -0.238 OA
HETATM   29  N3  UNL     1      -6.571  27.891  -4.498  1.00  0.00    -0.324 N
ATOM     30  H3  UNL     1      -5.744  28.478  -4.389  1.00  0.00     0.165 HD
BRANCH  29  31
HETATM   31  C13 UNL     1      -7.771  28.453  -5.066  1.00  0.00     0.175 C
HETATM   32  C14 UNL     1      -7.357  29.368  -6.183  1.00  0.00     0.042 C
BRANCH  31  33
HETATM   33  C15 UNL     1      -8.566  29.150  -4.004  1.00  0.00     0.242 C
HETATM   34  O5  UNL     1      -8.087  30.214  -3.491  1.00  0.00    -0.271 OA
HETATM   35  N4  UNL     1      -9.811  28.681  -3.558  1.00  0.00    -0.350 N
HETATM   36  C16 UNL     1     -10.611  27.535  -3.937  1.00  0.00     0.126 C
HETATM   37  C19 UNL     1     -10.615  29.334  -2.508  1.00  0.00     0.126 C
HETATM   38  C17 UNL     1     -12.015  28.103  -4.046  1.00  0.00     0.021 C
HETATM   39  C18 UNL     1     -12.062  29.126  -2.922  1.00  0.00     0.021 C
ENDBRANCH  31  33
ENDBRANCH  29  31
ENDBRANCH  26  27
ENDBRANCH   6  26
TORSDOF 14
ENDMDL