MODEL 1
REMARK VINA RESULT: -7.469079525      0.000      0.000
REMARK  14 active torsions:
REMARK  status: ('A' for Active; 'I' for Inactive)
REMARK    1  A    between atoms: C2_2  and  O1_3
REMARK    2  A    between atoms: O1_3  and  C3_4
REMARK    3  A    between atoms: C3_4  and  C4_6
REMARK    4  A    between atoms: C6_8  and  C7_9
REMARK    5  A    between atoms: C7_9  and  C8_11
REMARK    6  A    between atoms: C8_11  and  C9_12
REMARK    7  A    between atoms: C8_11  and  N1_18
REMARK    8  A    between atoms: C9_12  and  C10_13
REMARK       I    between atoms: N1_18  and  C15_20
REMARK    9  A    between atoms: C15_20  and  C16_22
REMARK       I    between atoms: N2_26  and  C20_27
REMARK   10  A    between atoms: C20_27  and  C21_29
REMARK   11  A    between atoms: C21_29  and  N3_30
REMARK   12  A    between atoms: N3_30  and  C22_32
REMARK   13  A    between atoms: C22_32  and  O6_33
REMARK   14  A    between atoms: C22_32  and  C23_35
ROOT
HETATM    1  N1  UNL     1      -7.620  26.920  -1.422  1.00  0.00    -0.348 N
ATOM      2  H1  UNL     1      -7.301  27.886  -1.336  1.00  0.00     0.163 HD
HETATM    3  C15 UNL     1      -7.596  26.094  -0.257  1.00  0.00     0.241 C
HETATM    4  O4  UNL     1      -7.981  24.909  -0.348  1.00  0.00    -0.271 OA
ENDROOT
BRANCH   3   5
HETATM    5  C16 UNL     1      -7.109  26.728   0.990  1.00  0.00     0.179 C
HETATM    6  C17 UNL     1      -6.574  25.633   1.920  1.00  0.00     0.037 C
HETATM    7  C18 UNL     1      -6.532  26.333   3.242  1.00  0.00     0.022 C
HETATM    8  C19 UNL     1      -7.506  27.468   3.147  1.00  0.00     0.127 C
HETATM    9  N2  UNL     1      -8.029  27.432   1.788  1.00  0.00    -0.337 N
HETATM   10  C20 UNL     1      -9.222  28.072   1.455  1.00  0.00     0.237 C
HETATM   11  O5  UNL     1      -9.678  28.131   0.318  1.00  0.00    -0.272 OA
BRANCH  10  12
HETATM   12  C21 UNL     1     -10.020  28.747   2.555  1.00  0.00     0.219 C
BRANCH  12  13
HETATM   13  N3  UNL     1      -9.854  30.147   2.491  1.00  0.00    -0.388 N
ATOM     14  H3  UNL     1     -10.529  30.702   1.965  1.00  0.00     0.156 HD
BRANCH  13  15
HETATM   15  C22 UNL     1      -8.787  30.799   3.129  1.00  0.00     0.217 C
BRANCH  15  16
HETATM   16  O6  UNL     1      -9.158  31.211   4.452  1.00  0.00    -0.377 OA
ATOM     17  H6  UNL     1      -9.544  30.490   4.936  1.00  0.00     0.212 HD
ENDBRANCH  15  16
BRANCH  15  18
HETATM   18  C23 UNL     1      -8.119  31.935   2.423  1.00  0.00     0.034 C
HETATM   19  C24 UNL     1      -6.698  31.461   1.999  1.00  0.00     0.009 C
HETATM   20  C25 UNL     1      -5.904  32.717   1.681  1.00  0.00     0.001 C
HETATM   21  C26 UNL     1      -6.597  33.489   0.557  1.00  0.00     0.000 C
HETATM   22  C27 UNL     1      -7.774  32.715   0.047  1.00  0.00     0.001 C
HETATM   23  C28 UNL     1      -8.769  32.343   1.136  1.00  0.00     0.009 C
ENDBRANCH  15  18
ENDBRANCH  13  15
ENDBRANCH  12  13
ENDBRANCH  10  12
ENDBRANCH   3   5
BRANCH   1  24
HETATM   24  C8  UNL     1      -8.073  26.459  -2.721  1.00  0.00     0.155 C
BRANCH  24  25
HETATM   25  C7  UNL     1      -6.916  26.029  -3.561  1.00  0.00     0.154 C
HETATM   26  O3  UNL     1      -7.127  25.372  -4.557  1.00  0.00    -0.295 OA
BRANCH  25  27
HETATM   27  C6  UNL     1      -5.508  26.359  -3.249  1.00  0.00     0.072 A
HETATM   28  C4  UNL     1      -4.381  25.647  -3.897  1.00  0.00     0.097 A
HETATM   29  C5  UNL     1      -4.762  27.038  -4.362  1.00  0.00     0.028 A
BRANCH  28  30
HETATM   30  C3  UNL     1      -3.126  25.579  -3.087  1.00  0.00     0.263 C
HETATM   31  O2  UNL     1      -2.085  25.038  -3.526  1.00  0.00    -0.265 OA
BRANCH  30  32
HETATM   32  O1  UNL     1      -3.063  26.120  -1.796  1.00  0.00    -0.322 OA
BRANCH  32  33
HETATM   33  C2  UNL     1      -2.762  25.273  -0.684  1.00  0.00     0.174 C
HETATM   34  C1  UNL     1      -3.184  26.007   0.568  1.00  0.00     0.034 C
ENDBRANCH  32  33
ENDBRANCH  30  32
ENDBRANCH  28  30
ENDBRANCH  25  27
ENDBRANCH  24  25
BRANCH  24  35
HETATM   35  C9  UNL     1      -8.736  27.597  -3.474  1.00  0.00     0.037 C
BRANCH  35  36
HETATM   36  C10 UNL     1      -7.967  28.872  -3.466  1.00  0.00    -0.012 C
HETATM   37  C11 UNL     1      -8.726  30.053  -2.944  1.00  0.00     0.005 C
HETATM   38  C12 UNL     1      -9.540  30.547  -4.130  1.00  0.00     0.000 C
HETATM   39  C13 UNL     1      -9.021  29.835  -5.342  1.00  0.00     0.000 C
HETATM   40  C14 UNL     1      -7.675  29.256  -4.901  1.00  0.00     0.005 C
ENDBRANCH  35  36
ENDBRANCH  24  35
ENDBRANCH   1  24
TORSDOF 14
ENDMDL