MODEL 4
REMARK VINA RESULT: -5.873667035      2.099      6.117
REMARK  10 active torsions:
REMARK  status: ('A' for Active; 'I' for Inactive)
REMARK    1  A    between atoms: N1_1  and  C1_5
REMARK    2  A    between atoms: C1_5  and  C2_6
REMARK    3  A    between atoms: C4_8  and  C5_9
REMARK    4  A    between atoms: C5_9  and  O1_10
REMARK    5  A    between atoms: C6_12  and  N2_13
REMARK    6  A    between atoms: C7_17  and  O2_18
REMARK    7  A    between atoms: O2_18  and  C8_19
REMARK    8  A    between atoms: C9_20  and  N3_21
REMARK    9  A    between atoms: C11_26  and  N4_27
REMARK   10  A    between atoms: C13_32  and  N5_33
ROOT
HETATM    1  C8  UNL     1      18.529 -19.354  42.449  1.00  0.00     0.182 C
HETATM    2  C9  UNL     1      19.005 -20.773  42.457  1.00  0.00     0.216 C
HETATM    3  C10 UNL     1      20.428 -20.938  42.898  1.00  0.00     0.068 C
HETATM    4  C11 UNL     1      20.779 -20.120  44.101  1.00  0.00     0.187 C
HETATM    5  C12 UNL     1      20.327 -18.690  44.005  1.00  0.00     0.068 C
HETATM    6  C13 UNL     1      19.639 -18.365  42.714  1.00  0.00     0.216 C
ENDROOT
BRANCH   1   7
HETATM    7  O2  UNL     1      17.842 -19.088  41.294  1.00  0.00    -0.374 OA
BRANCH   7   8
HETATM    8  C7  UNL     1      16.479 -19.259  41.373  1.00  0.00     0.158 C
HETATM    9  C2  UNL     1      15.802 -19.428  40.044  1.00  0.00     0.043 C
HETATM   10  C3  UNL     1      14.537 -18.610  40.072  1.00  0.00     0.017 C
HETATM   11  C4  UNL     1      14.372 -18.230  41.528  1.00  0.00     0.043 C
HETATM   12  C6  UNL     1      15.798 -18.074  41.968  1.00  0.00     0.218 C
BRANCH   9  13
HETATM   13  C1  UNL     1      16.638 -18.901  38.893  1.00  0.00     0.236 C
BRANCH  13  14
HETATM   14  N1  UNL     1      15.987 -17.825  38.202  1.00  0.00    -0.079 N
ATOM     15  H13 UNL     1      16.646 -17.082  37.969  1.00  0.00     0.274 HD
ATOM     16  H12 UNL     1      15.717 -18.101  37.257  1.00  0.00     0.274 HD
ATOM     17  H11 UNL     1      15.189 -17.461  38.723  1.00  0.00     0.274 HD
ENDBRANCH  13  14
ENDBRANCH   9  13
BRANCH  11  18
HETATM   18  C5  UNL     1      13.673 -19.381  42.211  1.00  0.00     0.170 C
BRANCH  18  19
HETATM   19  O1  UNL     1      12.496 -19.751  41.612  1.00  0.00    -0.400 OA
ATOM     20  H1  UNL     1      12.458 -19.553  40.684  1.00  0.00     0.209 HD
ENDBRANCH  18  19
ENDBRANCH  11  18
BRANCH  12  21
HETATM   21  N2  UNL     1      15.834 -18.015  43.396  1.00  0.00    -0.072 N
ATOM     22  H23 UNL     1      15.147 -18.632  43.829  1.00  0.00     0.274 HD
ATOM     23  H22 UNL     1      16.674 -18.444  43.783  1.00  0.00     0.274 HD
ATOM     24  H21 UNL     1      15.722 -17.044  43.687  1.00  0.00     0.274 HD
ENDBRANCH  12  21
ENDBRANCH   7   8
ENDBRANCH   1   7
BRANCH   2  25
HETATM   25  N3  UNL     1      18.175 -21.618  43.272  1.00  0.00    -0.072 N
ATOM     26  H33 UNL     1      18.453 -21.575  44.252  1.00  0.00     0.274 HD
ATOM     27  H32 UNL     1      17.231 -21.240  43.355  1.00  0.00     0.274 HD
ATOM     28  H31 UNL     1      18.159 -22.581  42.935  1.00  0.00     0.274 HD
ENDBRANCH   2  25
BRANCH   6  29
HETATM   29  N5  UNL     1      20.533 -18.201  41.604  1.00  0.00    -0.072 N
ATOM     30  H53 UNL     1      20.555 -19.044  41.030  1.00  0.00     0.274 HD
ATOM     31  H52 UNL     1      20.150 -17.544  40.926  1.00  0.00     0.274 HD
ATOM     32  H51 UNL     1      21.476 -17.927  41.881  1.00  0.00     0.274 HD
ENDBRANCH   6  29
BRANCH   4  33
HETATM   33  N4  UNL     1      22.227 -20.116  44.232  1.00  0.00    -0.075 N
ATOM     34  H43 UNL     1      22.621 -19.175  44.231  1.00  0.00     0.274 HD
ATOM     35  H42 UNL     1      22.539 -20.394  45.162  1.00  0.00     0.274 HD
ATOM     36  H41 UNL     1      22.611 -20.705  43.494  1.00  0.00     0.274 HD
ENDBRANCH   4  33
TORSDOF 10
ENDMDL