MODEL 1
REMARK VINA RESULT: -7.775001666      0.000      0.000
REMARK  5 active torsions:
REMARK  status: ('A' for Active; 'I' for Inactive)
REMARK    1  A    between atoms: C5_8  and  N3_9
REMARK    2  A    between atoms: N3_9  and  C6_11
REMARK    3  A    between atoms: C6_11  and  C7_12
REMARK    4  A    between atoms: C7_12  and  C8_13
REMARK    5  A    between atoms: C8_13  and  N4_14
REMARK       I    between atoms: N4_14  and  C9_16
ROOT
HETATM    1  C1  UNL     1      13.183 -18.315  41.916  1.00  0.00     0.163 C
HETATM    2  N1  UNL     1      14.515 -18.931  41.991  1.00  0.00    -0.287 N
HETATM    3  C2  UNL     1      14.956 -19.815  42.903  1.00  0.00     0.330 A
HETATM    4  O1  UNL     1      14.293 -20.275  43.870  1.00  0.00    -0.246 OA
HETATM    5  N2  UNL     1      16.232 -20.155  42.649  1.00  0.00    -0.297 N
HETATM    6  C3  UNL     1      17.063 -21.092  43.416  1.00  0.00     0.161 C
HETATM    7  C4  UNL     1      16.627 -19.488  41.559  1.00  0.00     0.128 A
HETATM    8  C5  UNL     1      17.839 -19.468  40.865  1.00  0.00     0.148 A
HETATM    9  N7  UNL     1      17.887 -18.665  39.787  1.00  0.00    -0.175 N
ATOM     10  H7  UNL     1      18.753 -18.617  39.249  1.00  0.00     0.186 HD
HETATM   11  C10 UNL     1      16.826 -17.914  39.389  1.00  0.00     0.679 A
HETATM   12  N8  UNL     1      16.893 -17.147  38.354  1.00  0.00    -0.234 N
ATOM     13  H81 UNL     1      16.096 -16.583  38.055  1.00  0.00     0.174 HD
ATOM     14  H82 UNL     1      17.775 -17.127  37.841  1.00  0.00     0.174 HD
HETATM   15  N9  UNL     1      15.662 -17.940  40.066  1.00  0.00    -0.174 N
ATOM     16  H9  UNL     1      14.874 -17.371  39.757  1.00  0.00     0.186 HD
HETATM   17  C11 UNL     1      15.551 -18.727  41.156  1.00  0.00     0.158 A
ENDROOT
BRANCH   8  18
HETATM   18  N3  UNL     1      18.828 -20.198  41.274  1.00  0.00    -0.374 N
ATOM     19  H3  UNL     1      18.632 -21.136  41.625  1.00  0.00     0.161 HD
BRANCH  18  20
HETATM   20  C6  UNL     1      20.217 -19.731  41.251  1.00  0.00     0.123 C
BRANCH  20  21
HETATM   21  C7  UNL     1      20.945 -20.500  42.291  1.00  0.00     0.039 C
BRANCH  21  22
HETATM   22  C8  UNL     1      20.946 -19.956  43.670  1.00  0.00     0.123 C
BRANCH  22  23
HETATM   23  N4  UNL     1      19.758 -19.323  44.130  1.00  0.00    -0.365 N
HETATM   24  C9  UNL     1      19.570 -17.936  44.294  1.00  0.00     0.181 C
HETATM   25  N5  UNL     1      20.433 -17.190  44.916  1.00  0.00    -0.374 N
HETATM   26  N6  UNL     1      18.418 -17.276  43.791  1.00  0.00    -0.064 NA
ATOM     27  H52 UNL     1      21.261 -17.664  45.277  1.00  0.00     0.158 HD
ATOM     28  H51 UNL     1      20.297 -16.186  45.034  1.00  0.00     0.158 HD
ATOM     29  H4  UNL     1      18.971 -19.929  44.363  1.00  0.00     0.162 HD
ENDBRANCH  22  23
ENDBRANCH  21  22
ENDBRANCH  20  21
ENDBRANCH  18  20
ENDBRANCH   8  18
TORSDOF 5
ENDMDL