MODEL 3
REMARK VINA RESULT: -7.080553345      2.301      6.077
REMARK  5 active torsions:
REMARK  status: ('A' for Active; 'I' for Inactive)
REMARK    1  A    between atoms: C2_2  and  C3_3
REMARK    2  A    between atoms: C3_3  and  N1_4
REMARK    3  A    between atoms: C6_10  and  N3_11
REMARK    4  A    between atoms: N3_11  and  N4_12
REMARK    5  A    between atoms: N4_12  and  C7_14
ROOT
HETATM    1  C7  UNL     1      17.849 -18.542  39.981  1.00  0.00     0.124 C
HETATM    2  C8  UNL     1      16.643 -18.450  40.478  1.00  0.00     0.092 A
HETATM    3  C9  UNL     1      15.484 -18.807  39.652  1.00  0.00     0.120 A
HETATM    4  N5  UNL     1      15.572 -19.218  38.450  1.00  0.00    -0.385 N
ATOM      5  H51 UNL     1      14.767 -19.467  37.876  1.00  0.00     0.157 HD
ATOM      6  H52 UNL     1      16.509 -19.294  38.054  1.00  0.00     0.157 HD
HETATM    7  N6  UNL     1      14.180 -18.701  40.204  1.00  0.00    -0.294 N
ATOM      8  H6  UNL     1      13.372 -18.949  39.635  1.00  0.00     0.172 HD
HETATM    9  C10 UNL     1      13.988 -18.259  41.520  1.00  0.00     0.328 A
HETATM   10  O2  UNL     1      12.810 -18.177  41.972  1.00  0.00    -0.247 OA
HETATM   11  N7  UNL     1      15.084 -17.909  42.332  1.00  0.00    -0.275 N
ATOM     12  H7  UNL     1      14.919 -17.590  43.287  1.00  0.00     0.173 HD
HETATM   13  C11 UNL     1      16.431 -17.995  41.838  1.00  0.00     0.264 A
HETATM   14  O3  UNL     1      17.358 -17.668  42.618  1.00  0.00    -0.267 OA
ENDROOT
BRANCH   1  15
HETATM   15  N4  UNL     1      19.055 -18.236  40.646  1.00  0.00    -0.310 N
ATOM     16  H4  UNL     1      19.250 -17.271  40.914  1.00  0.00     0.181 HD
BRANCH  15  17
HETATM   17  N3  UNL     1      20.003 -19.251  40.950  1.00  0.00    -0.084 NA
BRANCH  17  18
HETATM   18  C6  UNL     1      20.487 -19.131  42.286  1.00  0.00     0.440 C
HETATM   19  N1  UNL     1      20.037 -20.189  43.157  1.00  0.00     0.140 N
HETATM   20  C4  UNL     1      20.452 -19.730  44.448  1.00  0.00     0.379 C
HETATM   21  C5  UNL     1      20.175 -18.259  44.377  1.00  0.00     0.248 C
HETATM   22  O1  UNL     1      20.117 -17.516  45.367  1.00  0.00    -0.272 OA
HETATM   23  N2  UNL     1      20.013 -17.963  43.000  1.00  0.00    -0.315 N
ATOM     24  H2  UNL     1      19.639 -17.104  42.595  1.00  0.00     0.166 HD
BRANCH  19  25
HETATM   25  C3  UNL     1      18.676 -20.552  43.023  1.00  0.00     0.304 C
BRANCH  25  26
HETATM   26  C2  UNL     1      17.996 -21.031  44.237  1.00  0.00    -0.007 C
HETATM   27  C1  UNL     1      16.748 -20.763  44.549  1.00  0.00     0.008 C
ENDBRANCH  25  26
ENDBRANCH  19  25
ENDBRANCH  17  18
ENDBRANCH  15  17
ENDBRANCH   1  15
TORSDOF 5
ENDMDL