MODEL 3
REMARK VINA RESULT: -6.946507100      1.782      4.541
REMARK  8 active torsions:
REMARK  status: ('A' for Active; 'I' for Inactive)
REMARK    1  A    between atoms: N1_1  and  C1_5
REMARK    2  A    between atoms: C1_5  and  C2_6
REMARK    3  A    between atoms: C2_6  and  C3_7
REMARK    4  A    between atoms: C3_7  and  O1_8
REMARK    5  A    between atoms: O1_8  and  C4_9
REMARK    6  A    between atoms: C5_10  and  C6_11
REMARK    7  A    between atoms: C6_11  and  N2_12
REMARK    8  A    between atoms: C6_11  and  N3_16
ROOT
HETATM    1  C4  UNL     1      16.426 -19.199  41.691  1.00  0.00     0.103 A
HETATM    2  C5  UNL     1      15.164 -19.426  42.169  1.00  0.00     0.101 A
HETATM    3  C7  UNL     1      14.071 -19.156  41.377  1.00  0.00     0.259 A
HETATM    4  O2  UNL     1      12.881 -19.361  41.798  1.00  0.00    -0.267 OA
HETATM    5  N4  UNL     1      14.163 -18.676  40.144  1.00  0.00    -0.308 N
ATOM      6  H4  UNL     1      13.327 -18.491  39.589  1.00  0.00     0.170 HD
HETATM    7  C8  UNL     1      15.383 -18.441  39.649  1.00  0.00     0.130 A
HETATM    8  N5  UNL     1      15.510 -17.945  38.412  1.00  0.00    -0.293 N
ATOM      9  H5  UNL     1      14.667 -17.764  37.866  1.00  0.00     0.172 HD
HETATM   10  C9  UNL     1      16.713 -17.673  37.860  1.00  0.00     0.328 A
HETATM   11  O3  UNL     1      16.836 -17.210  36.707  1.00  0.00    -0.247 OA
HETATM   12  N6  UNL     1      17.830 -17.909  38.575  1.00  0.00    -0.275 N
ATOM     13  H6  UNL     1      18.747 -17.710  38.176  1.00  0.00     0.173 HD
HETATM   14  C10 UNL     1      17.726 -18.407  39.816  1.00  0.00     0.266 A
HETATM   15  O4  UNL     1      18.778 -18.603  40.433  1.00  0.00    -0.267 OA
HETATM   16  C11 UNL     1      16.530 -18.701  40.421  1.00  0.00     0.110 A
ENDROOT
BRANCH   2  17
HETATM   17  C6  UNL     1      14.883 -19.958  43.525  1.00  0.00     0.419 C
BRANCH  17  18
HETATM   18  N2  UNL     1      15.957 -19.508  44.388  1.00  0.00    -0.046 N
ATOM     19  H23 UNL     1      16.606 -18.874  43.921  1.00  0.00     0.277 HD
ATOM     20  H22 UNL     1      15.644 -18.864  45.114  1.00  0.00     0.277 HD
ATOM     21  H21 UNL     1      16.410 -20.343  44.760  1.00  0.00     0.277 HD
ENDBRANCH  17  18
BRANCH  17  22
HETATM   22  N3  UNL     1      15.000 -21.425  43.479  1.00  0.00    -0.046 N
ATOM     23  H33 UNL     1      14.104 -21.895  43.609  1.00  0.00     0.277 HD
ATOM     24  H32 UNL     1      15.205 -21.774  42.543  1.00  0.00     0.277 HD
ATOM     25  H31 UNL     1      15.697 -21.714  44.167  1.00  0.00     0.277 HD
ENDBRANCH  17  22
ENDBRANCH   2  17
BRANCH   1  26
HETATM   26  O1  UNL     1      17.509 -19.459  42.454  1.00  0.00    -0.349 OA
BRANCH  26  27
HETATM   27  C3  UNL     1      18.283 -20.614  42.547  1.00  0.00     0.177 C
BRANCH  27  28
HETATM   28  C2  UNL     1      19.575 -20.302  43.281  1.00  0.00     0.054 C
BRANCH  28  29
HETATM   29  C1  UNL     1      19.555 -18.924  43.895  1.00  0.00     0.231 C
BRANCH  29  30
HETATM   30  N1  UNL     1      19.964 -17.941  42.915  1.00  0.00    -0.079 N
ATOM     31  H13 UNL     1      20.908 -17.597  43.089  1.00  0.00     0.274 HD
ATOM     32  H12 UNL     1      20.126 -18.359  41.999  1.00  0.00     0.274 HD
ATOM     33  H11 UNL     1      19.281 -17.184  42.876  1.00  0.00     0.274 HD
ENDBRANCH  29  30
ENDBRANCH  28  29
ENDBRANCH  27  28
ENDBRANCH  26  27
ENDBRANCH   1  26
TORSDOF 8
ENDMDL