MODEL 2
REMARK VINA RESULT: -7.110322910      0.972      1.459
REMARK  8 active torsions:
REMARK  status: ('A' for Active; 'I' for Inactive)
REMARK    1  A    between atoms: C3_5  and  C4_6
REMARK    2  A    between atoms: C4_6  and  C5_7
REMARK    3  A    between atoms: N2_9  and  C7_10
REMARK    4  A    between atoms: C7_10  and  O1_11
REMARK    5  A    between atoms: O1_11  and  C8_12
REMARK    6  A    between atoms: C8_12  and  C9_13
REMARK    7  A    between atoms: C9_13  and  O2_14
REMARK    8  A    between atoms: C12_24  and  N6_25
ROOT
HETATM    1  C4  UNL     1      18.264 -18.195  43.603  1.00  0.00     0.079 C
ENDROOT
BRANCH   1   2
HETATM    2  C3  UNL     1      17.283 -18.302  42.741  1.00  0.00     0.109 A
HETATM    3  N1  UNL     1      17.487 -18.131  41.427  1.00  0.00    -0.341 N
HETATM    4  C2  UNL     1      16.484 -18.236  40.508  1.00  0.00     0.054 A
ATOM      5  H1  UNL     1      18.429 -17.913  41.101  1.00  0.00     0.167 HD
HETATM    6  C1  UNL     1      16.770 -18.053  39.237  1.00  0.00     0.045 C
HETATM    7  C12 UNL     1      15.210 -18.527  40.910  1.00  0.00     0.093 A
HETATM    8  C11 UNL     1      15.005 -18.704  42.286  1.00  0.00     0.146 A
HETATM    9  N4  UNL     1      16.043 -18.584  43.126  1.00  0.00    -0.329 N
HETATM   10  N5  UNL     1      13.701 -19.007  42.761  1.00  0.00    -0.080 NA
ATOM     11  H4  UNL     1      15.869 -18.718  44.122  1.00  0.00     0.168 HD
BRANCH   7  12
HETATM   12  N6  UNL     1      14.216 -18.641  40.096  1.00  0.00    -0.395 N
ATOM     13  H62 UNL     1      14.355 -18.466  39.101  1.00  0.00     0.156 HD
ATOM     14  H61 UNL     1      13.275 -18.901  40.390  1.00  0.00     0.156 HD
ENDBRANCH   7  12
ENDBRANCH   1   2
BRANCH   1  15
HETATM   15  C5  UNL     1      19.351 -19.163  43.712  1.00  0.00     0.055 A
HETATM   16  C6  UNL     1      19.334 -20.417  44.285  1.00  0.00     0.127 A
HETATM   17  N2  UNL     1      20.539 -21.006  44.186  1.00  0.00    -0.286 N
HETATM   18  C10 UNL     1      21.325 -20.120  43.546  1.00  0.00     0.328 A
HETATM   19  O3  UNL     1      22.528 -20.332  43.278  1.00  0.00    -0.246 OA
HETATM   20  N3  UNL     1      20.622 -19.009  43.257  1.00  0.00    -0.307 N
ATOM     21  H3  UNL     1      20.984 -18.186  42.774  1.00  0.00     0.170 HD
BRANCH  17  22
HETATM   22  C7  UNL     1      20.916 -22.345  44.678  1.00  0.00     0.302 C
BRANCH  22  23
HETATM   23  O1  UNL     1      21.572 -22.269  45.877  1.00  0.00    -0.369 OA
BRANCH  23  24
HETATM   24  C8  UNL     1      22.871 -22.710  45.753  1.00  0.00     0.196 C
BRANCH  24  25
HETATM   25  C9  UNL     1      23.909 -21.830  46.377  1.00  0.00     0.190 C
BRANCH  25  26
HETATM   26  O2  UNL     1      24.265 -20.844  45.422  1.00  0.00    -0.399 OA
ATOM     27  H2  UNL     1      25.214 -20.799  45.398  1.00  0.00     0.209 HD
ENDBRANCH  25  26
ENDBRANCH  24  25
ENDBRANCH  23  24
ENDBRANCH  22  23
ENDBRANCH  17  22
ENDBRANCH   1  15
TORSDOF 8
ENDMDL