MODEL 4
REMARK VINA RESULT: -7.250261605      2.852      4.323
REMARK  6 active torsions:
REMARK  status: ('A' for Active; 'I' for Inactive)
REMARK    1  A    between atoms: C3_6  and  N3_7
REMARK    2  A    between atoms: N3_7  and  N4_9
REMARK    3  A    between atoms: N4_9  and  C4_11
REMARK    4  A    between atoms: C4_11  and  C5_12
REMARK    5  A    between atoms: C5_12  and  O1_13
REMARK    6  A    between atoms: O1_13  and  N5_14
ROOT
HETATM    1  C1  UNL     1      17.160 -22.898  44.216  1.00  0.00     0.159 C
HETATM    2  N1  UNL     1      17.463 -21.483  43.954  1.00  0.00    -0.320 N
HETATM    3  C2  UNL     1      16.612 -20.539  43.514  1.00  0.00     0.153 A
HETATM    4  N2  UNL     1      15.323 -20.325  43.140  1.00  0.00    -0.173 N
ATOM      5  H2  UNL     1      14.576 -21.019  43.120  1.00  0.00     0.186 HD
HETATM    6  C3  UNL     1      15.216 -19.028  42.803  1.00  0.00     0.698 A
HETATM    7  N6  UNL     1      16.393 -18.394  42.946  1.00  0.00    -0.185 N
ATOM      8  H6  UNL     1      16.596 -17.412  42.762  1.00  0.00     0.184 HD
HETATM    9  C6  UNL     1      17.250 -19.341  43.387  1.00  0.00     0.113 A
HETATM   10  C7  UNL     1      18.574 -19.537  43.766  1.00  0.00     0.107 A
HETATM   11  C8  UNL     1      19.675 -18.706  43.843  1.00  0.00     0.265 A
HETATM   12  O2  UNL     1      19.597 -17.490  43.532  1.00  0.00    -0.267 OA
HETATM   13  N7  UNL     1      20.865 -19.176  44.254  1.00  0.00    -0.275 N
ATOM     14  H7  UNL     1      21.682 -18.567  44.313  1.00  0.00     0.173 HD
HETATM   15  C9  UNL     1      20.938 -20.478  44.583  1.00  0.00     0.328 A
HETATM   16  O3  UNL     1      22.052 -20.920  44.968  1.00  0.00    -0.247 OA
HETATM   17  N8  UNL     1      19.870 -21.310  44.515  1.00  0.00    -0.293 N
ATOM     18  H8  UNL     1      19.984 -22.289  44.777  1.00  0.00     0.172 HD
HETATM   19  C10 UNL     1      18.651 -20.872  44.105  1.00  0.00     0.131 A
ENDROOT
BRANCH   6  20
HETATM   20  N3  UNL     1      14.111 -18.496  42.399  1.00  0.00    -0.136 N
ATOM     21  H3  UNL     1      13.357 -18.368  43.073  1.00  0.00     0.205 HD
BRANCH  20  22
HETATM   22  N4  UNL     1      13.903 -18.091  41.088  1.00  0.00    -0.320 N
ATOM     23  H4  UNL     1      13.513 -17.172  40.878  1.00  0.00     0.180 HD
BRANCH  22  24
HETATM   24  C4  UNL     1      14.257 -19.015  40.025  1.00  0.00     0.168 C
BRANCH  24  25
HETATM   25  C5  UNL     1      15.434 -18.455  39.236  1.00  0.00     0.221 C
BRANCH  25  26
HETATM   26  O1  UNL     1      16.405 -17.944  40.063  1.00  0.00    -0.286 OA
BRANCH  26  27
HETATM   27  N5  UNL     1      16.993 -16.891  39.455  1.00  0.00    -0.311 N
ATOM     28  H52 UNL     1      16.734 -16.534  38.535  1.00  0.00     0.184 HD
ATOM     29  H51 UNL     1      17.724 -16.521  40.062  1.00  0.00     0.184 HD
ENDBRANCH  26  27
ENDBRANCH  25  26
ENDBRANCH  24  25
ENDBRANCH  22  24
ENDBRANCH  20  22
ENDBRANCH   6  20
TORSDOF 6
ENDMDL