MODEL 1
REMARK VINA RESULT: -6.726351213      0.000      0.000
REMARK  11 active torsions:
REMARK  status: ('A' for Active; 'I' for Inactive)
REMARK    1  A    between atoms: N1_1  and  C1_5
REMARK    2  A    between atoms: C1_5  and  C2_6
REMARK    3  A    between atoms: C2_6  and  C3_7
REMARK    4  A    between atoms: C3_7  and  C4_8
REMARK    5  A    between atoms: C4_8  and  N2_9
REMARK    6  A    between atoms: C5_10  and  O1_11
REMARK    7  A    between atoms: C6_13  and  C7_14
REMARK    8  A    between atoms: C7_14  and  N3_15
REMARK    9  A    between atoms: N3_15  and  N4_17
REMARK       I    between atoms: N4_17  and  C8_19
REMARK   10  A    between atoms: C9_22  and  N7_23
REMARK   11  A    between atoms: N7_23  and  N8_25
ROOT
HETATM    1  N2  UNL     1      17.753 -19.335  41.010  1.00  0.00    -0.279 N
HETATM    2  C5  UNL     1      16.897 -19.891  41.883  1.00  0.00     0.162 A
HETATM    3  C6  UNL     1      15.611 -19.407  42.067  1.00  0.00     0.077 A
HETATM    4  C9  UNL     1      15.214 -18.314  41.318  1.00  0.00     0.139 A
HETATM    5  N9  UNL     1      16.111 -17.800  40.462  1.00  0.00    -0.292 N
ATOM      6  H9  UNL     1      15.828 -16.994  39.904  1.00  0.00     0.172 HD
HETATM    7  C10 UNL     1      17.355 -18.276  40.291  1.00  0.00     0.330 A
HETATM    8  O2  UNL     1      18.143 -17.716  39.446  1.00  0.00    -0.246 OA
ENDROOT
BRANCH   1   9
HETATM    9  C4  UNL     1      19.082 -19.891  40.868  1.00  0.00     0.136 C
BRANCH   9  10
HETATM   10  C3  UNL     1      20.103 -19.188  41.697  1.00  0.00     0.022 C
BRANCH  10  11
HETATM   11  C2  UNL     1      20.761 -20.191  42.611  1.00  0.00     0.029 C
BRANCH  11  12
HETATM   12  C1  UNL     1      20.387 -19.980  44.060  1.00  0.00     0.229 C
BRANCH  12  13
HETATM   13  N1  UNL     1      20.457 -18.579  44.433  1.00  0.00    -0.079 N
ATOM     14  H13 UNL     1      20.861 -18.014  43.684  1.00  0.00     0.274 HD
ATOM     15  H12 UNL     1      19.530 -18.157  44.468  1.00  0.00     0.274 HD
ATOM     16  H11 UNL     1      20.960 -18.447  45.311  1.00  0.00     0.274 HD
ENDBRANCH  12  13
ENDBRANCH  11  12
ENDBRANCH  10  11
ENDBRANCH   9  10
ENDBRANCH   1   9
BRANCH   2  17
HETATM   17  O1  UNL     1      17.275 -20.989  42.644  1.00  0.00    -0.345 OA
ATOM     18  H1  UNL     1      16.696 -21.337  43.312  1.00  0.00     0.219 HD
ENDBRANCH   2  17
BRANCH   3  19
HETATM   19  C7  UNL     1      14.681 -20.008  43.013  1.00  0.00     0.127 C
BRANCH  19  20
HETATM   20  N3  UNL     1      14.953 -20.204  44.240  1.00  0.00    -0.309 N
ATOM     21  H3  UNL     1      15.263 -19.423  44.817  1.00  0.00     0.186 HD
BRANCH  20  22
HETATM   22  N4  UNL     1      14.836 -21.459  44.802  1.00  0.00    -0.276 N
HETATM   23  C8  UNL     1      15.785 -21.974  45.491  1.00  0.00     0.215 C
HETATM   24  N5  UNL     1      15.663 -23.270  46.071  1.00  0.00    -0.065 NA
HETATM   25  N6  UNL     1      16.988 -21.241  45.681  1.00  0.00    -0.065 NA
ATOM     26  H4  UNL     1      13.974 -21.988  44.665  1.00  0.00     0.189 HD
ENDBRANCH  20  22
ENDBRANCH  19  20
ENDBRANCH   3  19
BRANCH   4  27
HETATM   27  N7  UNL     1      14.027 -17.856  41.478  1.00  0.00    -0.291 N
ATOM     28  H7  UNL     1      13.253 -18.428  41.140  1.00  0.00     0.188 HD
BRANCH  27  29
HETATM   29  N8  UNL     1      13.715 -16.653  42.070  1.00  0.00    -0.344 N
ATOM     30  H82 UNL     1      14.405 -15.909  41.975  1.00  0.00     0.176 HD
ATOM     31  H81 UNL     1      12.858 -16.459  42.586  1.00  0.00     0.176 HD
ENDBRANCH  27  29
ENDBRANCH   4  27
TORSDOF 11
ENDMDL