MODEL 5
REMARK VINA RESULT: -7.229612684      2.491      5.317
REMARK  10 active torsions:
REMARK  status: ('A' for Active; 'I' for Inactive)
REMARK    1  A    between atoms: N1_1  and  C1_5
REMARK    2  A    between atoms: C1_5  and  C2_6
REMARK    3  A    between atoms: C2_6  and  C3_7
REMARK    4  A    between atoms: C3_7  and  C4_8
REMARK    5  A    between atoms: C4_8  and  N2_9
REMARK    6  A    between atoms: N2_9  and  S1_11
REMARK    7  A    between atoms: S1_11  and  N3_12
REMARK    8  A    between atoms: N4_17  and  N5_19
REMARK    9  A    between atoms: N5_19  and  C5_21
REMARK   10  A    between atoms: N7_27  and  N8_28
ROOT
HETATM    1  C3  UNL     1      16.526 -18.062  39.192  1.00  0.00     0.024 C
HETATM    2  N4  UNL     1      17.386 -17.611  40.031  1.00  0.00    -0.293 N
ATOM      3  H4  UNL     1      18.001 -16.864  39.709  1.00  0.00     0.187 HD
ENDROOT
BRANCH   1   4
HETATM    4  C2  UNL     1      16.464 -17.497  37.835  1.00  0.00     0.083 C
BRANCH   4   5
HETATM    5  C1  UNL     1      17.228 -18.239  36.794  1.00  0.00     0.235 C
BRANCH   5   6
HETATM    6  N1  UNL     1      16.463 -19.350  36.252  1.00  0.00    -0.079 N
ATOM      7  H13 UNL     1      17.075 -20.085  35.898  1.00  0.00     0.274 HD
ATOM      8  H12 UNL     1      15.996 -19.875  36.992  1.00  0.00     0.274 HD
ATOM      9  H11 UNL     1      15.801 -19.042  35.540  1.00  0.00     0.274 HD
ENDBRANCH   5   6
ENDBRANCH   4   5
ENDBRANCH   1   4
BRANCH   1  10
HETATM   10  C4  UNL     1      15.617 -19.133  39.597  1.00  0.00     0.187 C
BRANCH  10  11
HETATM   11  N2  UNL     1      14.259 -18.744  39.835  1.00  0.00    -0.298 N
ATOM     12  H2  UNL     1      13.555 -18.538  39.126  1.00  0.00     0.174 HD
BRANCH  11  13
HETATM   13  S1  UNL     1      14.033 -18.689  41.558  1.00  0.00     0.313 S
HETATM   14  O1  UNL     1      15.094 -19.461  42.246  1.00  0.00    -0.183 OA
HETATM   15  O2  UNL     1      12.665 -19.286  41.830  1.00  0.00    -0.183 OA
BRANCH  13  16
HETATM   16  N3  UNL     1      13.966 -17.048  42.107  1.00  0.00    -0.312 N
ATOM     17  H32 UNL     1      13.438 -16.741  42.922  1.00  0.00     0.170 HD
ATOM     18  H31 UNL     1      14.525 -16.447  41.501  1.00  0.00     0.170 HD
ENDBRANCH  13  16
ENDBRANCH  11  13
ENDBRANCH  10  11
ENDBRANCH   1  10
BRANCH   2  19
HETATM   19  N5  UNL     1      17.553 -18.047  41.328  1.00  0.00    -0.131 N
ATOM     20  H5  UNL     1      16.802 -17.853  41.990  1.00  0.00     0.205 HD
BRANCH  19  21
HETATM   21  C5  UNL     1      18.699 -18.749  41.815  1.00  0.00     0.709 C
HETATM   22  N6  UNL     1      19.321 -19.627  41.116  1.00  0.00    -0.223 N
HETATM   23  C6  UNL     1      20.472 -20.332  41.607  1.00  0.00     0.140 C
ATOM     24  H6  UNL     1      18.984 -19.833  40.175  1.00  0.00     0.177 HD
HETATM   25  C7  UNL     1      20.961 -19.909  42.947  1.00  0.00     0.042 C
HETATM   26  C8  UNL     1      19.861 -19.425  43.862  1.00  0.00     0.169 C
HETATM   27  N7  UNL     1      19.119 -18.422  43.126  1.00  0.00    -0.129 N
BRANCH  27  28
HETATM   28  N8  UNL     1      18.841 -17.184  43.718  1.00  0.00    -0.329 N
ATOM     29  H82 UNL     1      17.896 -16.973  44.038  1.00  0.00     0.177 HD
ATOM     30  H81 UNL     1      19.554 -16.466  43.846  1.00  0.00     0.177 HD
ENDBRANCH  27  28
ENDBRANCH  19  21
ENDBRANCH   2  19
TORSDOF 10
ENDMDL