MODEL 2
REMARK VINA RESULT: -7.017282843      1.715      1.859
REMARK  9 active torsions:
REMARK  status: ('A' for Active; 'I' for Inactive)
REMARK    1  A    between atoms: N1_1  and  C1_4
REMARK    2  A    between atoms: C4_12  and  N4_13
REMARK    3  A    between atoms: N4_13  and  C5_15
REMARK    4  A    between atoms: C5_15  and  N5_16
REMARK    5  A    between atoms: N6_20  and  C6_21
REMARK    6  A    between atoms: C6_21  and  C7_22
REMARK    7  A    between atoms: C7_22  and  C8_23
REMARK    8  A    between atoms: C8_23  and  C9_24
REMARK    9  A    between atoms: C9_24  and  O2_25
ROOT
HETATM    1  C1  UNL     1      20.697 -19.390  43.567  1.00  0.00     0.679 A
HETATM    2  N2  UNL     1      20.337 -18.353  44.321  1.00  0.00    -0.154 N
ATOM      3  H2  UNL     1      20.955 -18.048  45.073  1.00  0.00     0.187 HD
HETATM    4  C2  UNL     1      19.176 -17.694  44.116  1.00  0.00     0.289 A
HETATM    5  O1  UNL     1      18.866 -16.722  44.843  1.00  0.00    -0.265 OA
HETATM    6  C3  UNL     1      18.340 -18.111  43.097  1.00  0.00     0.150 A
HETATM    7  N3  UNL     1      17.161 -17.474  42.858  1.00  0.00    -0.184 N
ATOM      8  H3  UNL     1      16.902 -16.681  43.446  1.00  0.00     0.184 HD
HETATM    9  C4  UNL     1      16.326 -17.853  41.873  1.00  0.00     0.685 A
HETATM   10  N6  UNL     1      16.704 -18.903  41.121  1.00  0.00    -0.146 N
HETATM   11  C10 UNL     1      17.861 -19.573  41.311  1.00  0.00     0.291 A
HETATM   12  O3  UNL     1      18.183 -20.561  40.578  1.00  0.00    -0.265 OA
HETATM   13  C11 UNL     1      18.718 -19.186  42.318  1.00  0.00     0.150 A
HETATM   14  N7  UNL     1      19.886 -19.810  42.562  1.00  0.00    -0.184 N
ATOM     15  H7  UNL     1      20.164 -20.605  41.987  1.00  0.00     0.184 HD
ENDROOT
BRANCH   9  16
HETATM   16  N4  UNL     1      15.205 -17.243  41.651  1.00  0.00    -0.202 N
ATOM     17  H4  UNL     1      15.244 -16.288  41.294  1.00  0.00     0.179 HD
BRANCH  16  18
HETATM   18  C5  UNL     1      13.920 -17.818  41.875  1.00  0.00     0.368 C
BRANCH  18  19
HETATM   19  N5  UNL     1      14.060 -18.842  42.905  1.00  0.00    -0.063 N
ATOM     20  H53 UNL     1      14.546 -19.675  42.571  1.00  0.00     0.276 HD
ATOM     21  H52 UNL     1      14.724 -18.582  43.634  1.00  0.00     0.276 HD
ATOM     22  H51 UNL     1      13.131 -19.048  43.271  1.00  0.00     0.276 HD
ENDBRANCH  18  19
ENDBRANCH  16  18
ENDBRANCH   9  16
BRANCH  10  23
HETATM   23  C6  UNL     1      15.789 -19.301  40.060  1.00  0.00     0.151 C
BRANCH  23  24
HETATM   24  C7  UNL     1      16.202 -18.675  38.737  1.00  0.00     0.023 C
BRANCH  24  25
HETATM   25  C8  UNL     1      16.520 -19.762  37.733  1.00  0.00     0.028 C
BRANCH  25  26
HETATM   26  C9  UNL     1      16.501 -19.175  36.345  1.00  0.00     0.164 C
BRANCH  26  27
HETATM   27  O2  UNL     1      16.093 -20.153  35.438  1.00  0.00    -0.401 OA
ATOM     28  H2  UNL     1      15.244 -19.917  35.083  1.00  0.00     0.209 HD
ENDBRANCH  26  27
ENDBRANCH  25  26
ENDBRANCH  24  25
ENDBRANCH  23  24
ENDBRANCH  10  23
BRANCH   1  29
HETATM   29  N1  UNL     1      21.797 -20.045  43.731  1.00  0.00    -0.234 N
ATOM     30  H12 UNL     1      22.382 -19.763  44.516  1.00  0.00     0.174 HD
ATOM     31  H11 UNL     1      22.095 -20.809  43.124  1.00  0.00     0.174 HD
ENDBRANCH   1  29
TORSDOF 9
ENDMDL