MODEL 3
REMARK VINA RESULT: -6.960591549      3.002      6.740
REMARK  10 active torsions:
REMARK  status: ('A' for Active; 'I' for Inactive)
REMARK    1  A    between atoms: N1_1  and  C1_4
REMARK    2  A    between atoms: C3_6  and  N2_7
REMARK    3  A    between atoms: N2_7  and  N3_9
REMARK    4  A    between atoms: C5_15  and  N5_16
REMARK    5  A    between atoms: N5_16  and  C6_18
REMARK    6  A    between atoms: C6_18  and  C7_19
REMARK    7  A    between atoms: C7_19  and  O1_20
REMARK    8  A    between atoms: O1_20  and  C8_21
REMARK    9  A    between atoms: C8_21  and  C9_22
REMARK   10  A    between atoms: C9_22  and  O2_23
ROOT
HETATM    1  C1  UNL     1      14.393 -19.097  42.069  1.00  0.00     0.103 C
HETATM    2  C2  UNL     1      15.069 -18.286  41.167  1.00  0.00     0.081 C
HETATM    3  C3  UNL     1      16.419 -18.061  41.119  1.00  0.00     0.080 C
HETATM    4  C4  UNL     1      17.408 -18.589  41.915  1.00  0.00     0.110 A
HETATM    5  N4  UNL     1      18.725 -18.565  41.688  1.00  0.00    -0.187 N
ATOM      6  H4  UNL     1      19.156 -18.137  40.868  1.00  0.00     0.184 HD
HETATM    7  C5  UNL     1      19.413 -19.171  42.667  1.00  0.00     0.679 A
HETATM    8  N6  UNL     1      18.494 -19.596  43.551  1.00  0.00    -0.184 N
ATOM      9  H6  UNL     1      18.702 -20.099  44.413  1.00  0.00     0.184 HD
HETATM   10  C10 UNL     1      17.260 -19.263  43.134  1.00  0.00     0.146 A
HETATM   11  C11 UNL     1      16.082 -19.534  43.783  1.00  0.00     0.276 C
HETATM   12  O3  UNL     1      16.184 -19.822  44.990  1.00  0.00    -0.266 OA
HETATM   13  N7  UNL     1      14.841 -19.528  43.288  1.00  0.00    -0.308 N
ATOM     14  H7  UNL     1      14.123 -19.899  43.909  1.00  0.00     0.170 HD
ENDROOT
BRANCH   7  15
HETATM   15  N5  UNL     1      20.687 -19.356  42.821  1.00  0.00    -0.224 N
ATOM     16  H5  UNL     1      21.266 -18.528  42.956  1.00  0.00     0.177 HD
BRANCH  15  17
HETATM   17  C6  UNL     1      21.346 -20.618  42.817  1.00  0.00     0.164 C
BRANCH  17  18
HETATM   18  C7  UNL     1      21.636 -20.947  44.299  1.00  0.00     0.188 C
BRANCH  18  19
HETATM   19  O1  UNL     1      22.934 -20.540  44.504  1.00  0.00    -0.387 OA
BRANCH  19  20
HETATM   20  C8  UNL     1      23.833 -21.526  44.760  1.00  0.00     0.193 C
BRANCH  20  21
HETATM   21  C9  UNL     1      24.474 -21.316  46.108  1.00  0.00     0.190 C
BRANCH  21  22
HETATM   22  O2  UNL     1      25.161 -20.094  46.062  1.00  0.00    -0.399 OA
ATOM     23  H2  UNL     1      25.576 -19.968  46.906  1.00  0.00     0.209 HD
ENDBRANCH  21  22
ENDBRANCH  20  21
ENDBRANCH  19  20
ENDBRANCH  18  19
ENDBRANCH  17  18
ENDBRANCH  15  17
ENDBRANCH   7  15
BRANCH   3  24
HETATM   24  N2  UNL     1      16.862 -17.160  40.117  1.00  0.00    -0.305 N
ATOM     25  H2  UNL     1      17.415 -16.329  40.326  1.00  0.00     0.186 HD
BRANCH  24  26
HETATM   26  N3  UNL     1      16.483 -17.503  38.839  1.00  0.00    -0.345 N
ATOM     27  H32 UNL     1      16.239 -16.799  38.141  1.00  0.00     0.176 HD
ATOM     28  H31 UNL     1      16.470 -18.507  38.660  1.00  0.00     0.176 HD
ENDBRANCH  24  26
ENDBRANCH   3  24
BRANCH   1  29
HETATM   29  N1  UNL     1      13.216 -19.505  41.757  1.00  0.00    -0.385 N
ATOM     30  H12 UNL     1      12.473 -18.826  41.920  1.00  0.00     0.157 HD
ATOM     31  H11 UNL     1      13.114 -20.448  41.382  1.00  0.00     0.157 HD
ENDBRANCH   1  29
TORSDOF 10
ENDMDL