MODEL 3
REMARK VINA RESULT: -7.724495097      1.508      5.028
REMARK  10 active torsions:
REMARK  status: ('A' for Active; 'I' for Inactive)
REMARK    1  A    between atoms: C3_5  and  N2_6
REMARK    2  A    between atoms: N2_6  and  N3_8
REMARK       I    between atoms: N3_8  and  C4_10
REMARK    3  A    between atoms: C5_13  and  C6_14
REMARK    4  A    between atoms: C6_14  and  C7_15
REMARK    5  A    between atoms: C6_14  and  N9_23
REMARK    6  A    between atoms: C7_15  and  C8_16
REMARK    7  A    between atoms: C8_16  and  C9_17
REMARK    8  A    between atoms: C9_17  and  N6_18
REMARK    9  A    between atoms: C11_25  and  C12_26
REMARK   10  A    between atoms: C12_26  and  N10_27
ROOT
HETATM    1  C1  UNL     1      19.690 -27.946  18.432  1.00  0.00     0.049 C
HETATM    2  C2  UNL     1      19.613 -29.184  18.863  1.00  0.00     0.093 A
HETATM    3  N1  UNL     1      19.447 -30.167  17.970  1.00  0.00    -0.336 N
ATOM      4  H1  UNL     1      19.384 -29.936  16.979  1.00  0.00     0.168 HD
HETATM    5  C3  UNL     1      19.362 -31.455  18.354  1.00  0.00     0.150 A
HETATM    6  C5  UNL     1      19.445 -31.804  19.704  1.00  0.00     0.103 A
HETATM    7  N11 UNL     1      19.612 -30.798  20.580  1.00  0.00    -0.317 N
ATOM      8  H11 UNL     1      19.677 -31.020  21.573  1.00  0.00     0.169 HD
HETATM    9  C13 UNL     1      19.698 -29.503  20.195  1.00  0.00     0.272 A
HETATM   10  O1  UNL     1      19.854 -28.608  21.069  1.00  0.00    -0.266 OA
ENDROOT
BRANCH   6  11
HETATM   11  C6  UNL     1      19.375 -33.091  20.044  1.00  0.00     0.039 C
BRANCH  11  12
HETATM   12  C7  UNL     1      20.445 -34.075  19.780  1.00  0.00     0.061 C
BRANCH  12  13
HETATM   13  C8  UNL     1      19.925 -35.504  19.931  1.00  0.00     0.026 C
BRANCH  13  14
HETATM   14  C9  UNL     1      19.648 -36.009  18.527  1.00  0.00     0.122 C
BRANCH  14  15
HETATM   15  N6  UNL     1      18.301 -35.715  18.139  1.00  0.00    -0.367 N
HETATM   16  C10 UNL     1      17.983 -35.475  16.936  1.00  0.00     0.196 C
HETATM   17  N7  UNL     1      16.644 -35.185  16.568  1.00  0.00    -0.067 NA
HETATM   18  N8  UNL     1      18.973 -35.490  15.922  1.00  0.00    -0.067 NA
ATOM     19  H6  UNL     1      17.574 -35.699  18.854  1.00  0.00     0.161 HD
ENDBRANCH  14  15
ENDBRANCH  13  14
ENDBRANCH  12  13
ENDBRANCH  11  12
BRANCH  11  20
HETATM   20  N9  UNL     1      18.198 -33.548  20.682  1.00  0.00    -0.369 N
HETATM   21  C11 UNL     1      17.848 -33.424  21.892  1.00  0.00     0.088 C
ATOM     22  H9  UNL     1      17.540 -34.047  20.084  1.00  0.00     0.165 HD
BRANCH  21  23
HETATM   23  C12 UNL     1      18.573 -32.768  22.976  1.00  0.00     0.274 C
BRANCH  23  24
HETATM   24  N10 UNL     1      17.773 -31.741  23.635  1.00  0.00    -0.075 N
ATOM     25 3H10 UNL     1      17.242 -32.131  24.415  1.00  0.00     0.274 HD
ATOM     26 2H10 UNL     1      18.364 -31.089  24.151  1.00  0.00     0.274 HD
ATOM     27 1H10 UNL     1      17.162 -31.248  22.984  1.00  0.00     0.274 HD
ENDBRANCH  23  24
ENDBRANCH  21  23
ENDBRANCH  11  20
ENDBRANCH   6  11
BRANCH   5  28
HETATM   28  N2  UNL     1      19.188 -32.394  17.468  1.00  0.00    -0.281 N
ATOM     29  H2  UNL     1      18.279 -32.842  17.353  1.00  0.00     0.188 HD
BRANCH  28  30
HETATM   30  N3  UNL     1      20.276 -32.772  16.682  1.00  0.00    -0.274 N
HETATM   31  C4  UNL     1      20.635 -32.185  15.616  1.00  0.00     0.215 C
HETATM   32  N4  UNL     1      19.943 -31.057  15.106  1.00  0.00    -0.065 NA
HETATM   33  N5  UNL     1      21.761 -32.658  14.896  1.00  0.00    -0.065 NA
ATOM     34  H3  UNL     1      20.823 -33.578  16.986  1.00  0.00     0.189 HD
ENDBRANCH  28  30
ENDBRANCH   5  28
TORSDOF 10
ENDMDL