MODEL 3
REMARK VINA RESULT: -6.987970332      3.381      4.370
REMARK  10 active torsions:
REMARK  status: ('A' for Active; 'I' for Inactive)
REMARK    1  A    between atoms: N1_1  and  C1_4
REMARK    2  A    between atoms: C3_8  and  C4_9
REMARK    3  A    between atoms: C4_9  and  N3_10
REMARK       I    between atoms: N3_10  and  C5_12
REMARK    4  A    between atoms: C5_12  and  C6_14
REMARK       I    between atoms: C6_14  and  N4_16
REMARK    5  A    between atoms: N4_16  and  C7_18
REMARK    6  A    between atoms: C7_18  and  C8_19
REMARK       I    between atoms: C8_19  and  N5_21
REMARK    7  A    between atoms: N5_21  and  C9_23
REMARK    8  A    between atoms: C9_23  and  C10_24
REMARK       I    between atoms: C10_24  and  N6_26
REMARK    9  A    between atoms: C11_28  and  N7_29
REMARK   10  A    between atoms: N7_29  and  N8_31
ROOT
HETATM    1  C6  UNL     1      18.684 -33.140  17.583  1.00  0.00     0.309 C
HETATM    2  O2  UNL     1      19.042 -32.659  16.492  1.00  0.00    -0.262 OA
HETATM    3  N4  UNL     1      18.475 -34.528  17.715  1.00  0.00    -0.344 N
ATOM      4  H4  UNL     1      18.182 -34.930  18.607  1.00  0.00     0.163 HD
ENDROOT
BRANCH   3   5
HETATM    5  C7  UNL     1      18.685 -35.366  16.562  1.00  0.00     0.225 C
BRANCH   5   6
HETATM    6  C8  UNL     1      20.015 -36.019  16.583  1.00  0.00     0.235 C
HETATM    7  O3  UNL     1      21.013 -35.302  16.334  1.00  0.00    -0.272 OA
HETATM    8  N5  UNL     1      20.080 -37.393  16.877  1.00  0.00    -0.351 N
ATOM      9  H5  UNL     1      19.226 -37.917  17.069  1.00  0.00     0.163 HD
BRANCH   8  10
HETATM   10  C9  UNL     1      21.353 -38.051  16.904  1.00  0.00     0.225 C
BRANCH  10  11
HETATM   11  C10 UNL     1      21.712 -38.682  15.619  1.00  0.00     0.240 C
HETATM   12  O4  UNL     1      22.486 -38.074  14.839  1.00  0.00    -0.271 OA
HETATM   13  N6  UNL     1      21.193 -39.941  15.280  1.00  0.00    -0.321 N
HETATM   14  C11 UNL     1      21.547 -40.575  14.212  1.00  0.00     0.199 C
ATOM     15  H6  UNL     1      20.509 -40.372  15.902  1.00  0.00     0.169 HD
BRANCH  14  16
HETATM   16  N7  UNL     1      20.960 -41.843  13.967  1.00  0.00    -0.303 N
ATOM     17  H7  UNL     1      19.993 -41.895  13.647  1.00  0.00     0.187 HD
BRANCH  16  18
HETATM   18  N8  UNL     1      21.687 -43.025  14.157  1.00  0.00    -0.344 N
ATOM     19  H82 UNL     1      21.406 -43.857  13.639  1.00  0.00     0.176 HD
ATOM     20  H81 UNL     1      22.479 -43.057  14.798  1.00  0.00     0.176 HD
ENDBRANCH  16  18
ENDBRANCH  14  16
ENDBRANCH  10  11
ENDBRANCH   8  10
ENDBRANCH   5   6
ENDBRANCH   3   5
BRANCH   1  21
HETATM   21  C5  UNL     1      18.468 -32.300  18.755  1.00  0.00     0.309 C
HETATM   22  N3  UNL     1      19.453 -31.337  19.102  1.00  0.00    -0.347 N
ATOM     23  H3  UNL     1      20.286 -31.256  18.520  1.00  0.00     0.163 HD
HETATM   24  O1  UNL     1      17.435 -32.413  19.458  1.00  0.00    -0.262 OA
BRANCH  22  25
HETATM   25  C4  UNL     1      19.320 -30.476  20.240  1.00  0.00     0.182 C
BRANCH  25  26
HETATM   26  C3  UNL     1      19.397 -31.246  21.497  1.00  0.00     0.060 A
HETATM   27  C2  UNL     1      20.458 -31.843  22.142  1.00  0.00     0.133 A
HETATM   28  N2  UNL     1      19.991 -32.423  23.263  1.00  0.00    -0.200 N
HETATM   29  C1  UNL     1      18.673 -32.220  23.358  1.00  0.00     0.676 A
ATOM     30  H2  UNL     1      20.556 -32.939  23.937  1.00  0.00     0.183 HD
HETATM   31  N9  UNL     1      18.325 -31.505  22.282  1.00  0.00    -0.193 N
ATOM     32  H9  UNL     1      17.375 -31.195  22.079  1.00  0.00     0.184 HD
BRANCH  29  33
HETATM   33  N1  UNL     1      17.850 -32.610  24.279  1.00  0.00    -0.234 N
ATOM     34  H12 UNL     1      18.129 -32.927  25.208  1.00  0.00     0.174 HD
ATOM     35  H11 UNL     1      16.833 -32.672  24.249  1.00  0.00     0.174 HD
ENDBRANCH  29  33
ENDBRANCH  25  26
ENDBRANCH  22  25
ENDBRANCH   1  21
TORSDOF 10
ENDMDL