MODEL 2
REMARK VINA RESULT: -7.377656401      1.833      3.108
REMARK  6 active torsions:
REMARK  status: ('A' for Active; 'I' for Inactive)
REMARK    1  A    between atoms: N2_3  and  C2_5
REMARK    2  A    between atoms: C4_10  and  C5_11
REMARK    3  A    between atoms: C5_11  and  C6_12
REMARK    4  A    between atoms: C6_12  and  C7_13
REMARK    5  A    between atoms: C7_13  and  N4_14
REMARK    6  A    between atoms: C12_28  and  N9_29
ROOT
HETATM    1  C2  UNL     1      19.013 -32.170  19.057  1.00  0.00     0.214 C
HETATM    2  C3  UNL     1      20.439 -32.418  19.268  1.00  0.00     0.244 C
HETATM    3  O1  UNL     1      20.777 -32.435  20.511  1.00  0.00    -0.271 OA
HETATM    4  N3  UNL     1      21.453 -32.632  18.337  1.00  0.00    -0.338 N
ATOM      5  H3  UNL     1      22.394 -32.423  18.668  1.00  0.00     0.164 HD
HETATM    6  C4  UNL     1      21.376 -33.098  16.992  1.00  0.00     0.186 C
HETATM    7  N7  UNL     1      21.330 -32.098  15.972  1.00  0.00    -0.339 N
ATOM      8  H7  UNL     1      21.272 -32.470  15.024  1.00  0.00     0.164 HD
HETATM    9  C9  UNL     1      21.350 -30.704  16.039  1.00  0.00     0.236 C
HETATM   10  O2  UNL     1      22.324 -30.118  15.429  1.00  0.00    -0.272 OA
HETATM   11  C10 UNL     1      20.395 -29.797  16.721  1.00  0.00     0.225 C
HETATM   12  N8  UNL     1      20.623 -29.668  18.146  1.00  0.00    -0.350 N
ATOM     13  H8  UNL     1      21.589 -29.503  18.428  1.00  0.00     0.163 HD
HETATM   14  C11 UNL     1      19.692 -29.741  19.181  1.00  0.00     0.251 C
HETATM   15  O3  UNL     1      19.695 -28.759  20.018  1.00  0.00    -0.271 OA
HETATM   16  C12 UNL     1      18.693 -30.778  19.471  1.00  0.00     0.306 C
ENDROOT
BRANCH   6  17
HETATM   17  C5  UNL     1      22.606 -33.968  16.725  1.00  0.00     0.048 C
BRANCH  17  18
HETATM   18  C6  UNL     1      23.843 -33.202  16.431  1.00  0.00     0.023 C
BRANCH  18  19
HETATM   19  C7  UNL     1      24.351 -33.689  15.069  1.00  0.00     0.122 C
BRANCH  19  20
HETATM   20  N4  UNL     1      24.404 -32.551  14.181  1.00  0.00    -0.367 N
HETATM   21  C8  UNL     1      23.497 -32.418  13.287  1.00  0.00     0.196 C
HETATM   22  N5  UNL     1      22.443 -33.361  13.149  1.00  0.00    -0.067 NA
HETATM   23  N6  UNL     1      23.517 -31.321  12.405  1.00  0.00    -0.067 NA
ATOM     24  H4  UNL     1      25.154 -31.864  14.266  1.00  0.00     0.161 HD
ENDBRANCH  19  20
ENDBRANCH  18  19
ENDBRANCH  17  18
ENDBRANCH   6  17
BRANCH   1  25
HETATM   25  N2  UNL     1      18.478 -32.556  17.787  1.00  0.00    -0.373 N
HETATM   26  C1  UNL     1      18.154 -33.741  17.436  1.00  0.00     0.186 C
HETATM   27  N1  UNL     1      18.280 -34.888  18.276  1.00  0.00    -0.097 NA
ATOM     28  H2  UNL     1      18.343 -31.817  17.097  1.00  0.00     0.160 HD
ENDBRANCH   1  25
BRANCH  16  29
HETATM   29  N9  UNL     1      17.412 -30.312  18.967  1.00  0.00    -0.064 N
ATOM     30  H93 UNL     1      17.073 -30.919  18.221  1.00  0.00     0.275 HD
ATOM     31  H92 UNL     1      16.674 -30.464  19.655  1.00  0.00     0.275 HD
ATOM     32  H91 UNL     1      17.431 -29.339  18.664  1.00  0.00     0.275 HD
ENDBRANCH  16  29
TORSDOF 6
ENDMDL