MODEL 5
REMARK VINA RESULT: -6.595259060      4.012      6.475
REMARK  9 active torsions:
REMARK  status: ('A' for Active; 'I' for Inactive)
REMARK    1  A    between atoms: C1_4  and  C2_5
REMARK    2  A    between atoms: C1_4  and  N7_30
REMARK    3  A    between atoms: C2_5  and  C3_6
REMARK    4  A    between atoms: C3_6  and  N2_7
REMARK       I    between atoms: N2_7  and  C4_9
REMARK    5  A    between atoms: C4_9  and  C5_11
REMARK    6  A    between atoms: C9_21  and  N5_22
REMARK    7  A    between atoms: N7_30  and  C11_32
REMARK    8  A    between atoms: C11_32  and  C12_33
REMARK    9  A    between atoms: C12_33  and  N8_34
ROOT
HETATM    1  C5  UNL     1      20.719 -30.997  17.239  1.00  0.00     0.379 C
HETATM    2  N3  UNL     1      19.987 -31.896  16.364  1.00  0.00    -0.044 N
ATOM      3  H31 UNL     1      20.468 -32.005  15.470  1.00  0.00     0.280 HD
ATOM      4  H32 UNL     1      19.123 -31.462  16.038  1.00  0.00     0.280 HD
HETATM    5  C6  UNL     1      19.721 -33.182  16.964  1.00  0.00     0.255 C
HETATM    6  C7  UNL     1      18.524 -33.155  17.882  1.00  0.00     0.150 C
HETATM    7  N4  UNL     1      18.975 -33.245  19.229  1.00  0.00    -0.357 N
ATOM      8  H4  UNL     1      18.867 -34.156  19.675  1.00  0.00     0.162 HD
HETATM    9  C8  UNL     1      19.551 -32.236  20.024  1.00  0.00     0.257 C
HETATM   10  O2  UNL     1      20.499 -32.631  20.796  1.00  0.00    -0.271 OA
HETATM   11  C9  UNL     1      19.220 -30.821  20.087  1.00  0.00     0.365 C
HETATM   12  C10 UNL     1      18.929 -30.138  18.827  1.00  0.00     0.259 C
HETATM   13  O3  UNL     1      17.768 -29.607  18.715  1.00  0.00    -0.271 OA
HETATM   14  N6  UNL     1      19.787 -30.005  17.737  1.00  0.00    -0.324 N
ATOM     15  H6  UNL     1      19.755 -29.116  17.237  1.00  0.00     0.165 HD
ENDROOT
BRANCH   1  16
HETATM   16  C4  UNL     1      21.812 -30.340  16.481  1.00  0.00     0.268 C
HETATM   17  N2  UNL     1      23.078 -30.218  17.083  1.00  0.00    -0.357 N
ATOM     18  H2  UNL     1      23.223 -30.581  18.025  1.00  0.00     0.162 HD
HETATM   19  O1  UNL     1      21.650 -29.891  15.322  1.00  0.00    -0.269 OA
BRANCH  17  20
HETATM   20  C3  UNL     1      24.172 -29.589  16.390  1.00  0.00     0.130 C
BRANCH  20  21
HETATM   21  C2  UNL     1      25.237 -29.165  17.365  1.00  0.00     0.095 C
BRANCH  21  22
HETATM   22  C1  UNL     1      25.240 -27.713  17.603  1.00  0.00     0.072 C
HETATM   23  N1  UNL     1      24.638 -27.225  18.620  1.00  0.00    -0.389 N
ATOM     24  H12 UNL     1      24.167 -27.880  19.244  1.00  0.00     0.157 HD
ATOM     25  H11 UNL     1      24.640 -26.219  18.785  1.00  0.00     0.157 HD
BRANCH  22  26
HETATM   26  N7  UNL     1      25.896 -26.800  16.734  1.00  0.00    -0.379 N
ATOM     27  H7  UNL     1      26.908 -26.810  16.618  1.00  0.00     0.160 HD
BRANCH  26  28
HETATM   28  C11 UNL     1      25.060 -25.854  16.019  1.00  0.00     0.148 C
BRANCH  28  29
HETATM   29  C12 UNL     1      25.278 -26.016  14.536  1.00  0.00     0.249 C
BRANCH  29  30
HETATM   30  N8  UNL     1      24.182 -26.779  13.959  1.00  0.00    -0.078 N
ATOM     31  H83 UNL     1      24.478 -27.707  13.658  1.00  0.00     0.274 HD
ATOM     32  H82 UNL     1      23.500 -27.062  14.661  1.00  0.00     0.274 HD
ATOM     33  H81 UNL     1      23.754 -26.248  13.201  1.00  0.00     0.274 HD
ENDBRANCH  29  30
ENDBRANCH  28  29
ENDBRANCH  26  28
ENDBRANCH  22  26
ENDBRANCH  21  22
ENDBRANCH  20  21
ENDBRANCH  17  20
ENDBRANCH   1  16
BRANCH  11  34
HETATM   34  N5  UNL     1      20.328 -30.056  20.688  1.00  0.00    -0.058 N
ATOM     35  H53 UNL     1      21.072 -30.667  21.023  1.00  0.00     0.275 HD
ATOM     36  H52 UNL     1      20.859 -29.541  19.984  1.00  0.00     0.275 HD
ATOM     37  H51 UNL     1      19.981 -29.442  21.424  1.00  0.00     0.275 HD
ENDBRANCH  11  34
TORSDOF 9
ENDMDL