MODEL 3
REMARK VINA RESULT: -7.815955915      2.835      6.792
REMARK  6 active torsions:
REMARK  status: ('A' for Active; 'I' for Inactive)
REMARK    1  A    between atoms: N3_4  and  C2_6
REMARK    2  A    between atoms: C2_6  and  C3_7
REMARK    3  A    between atoms: C3_7  and  C4_8
REMARK    4  A    between atoms: C4_8  and  C5_9
REMARK    5  A    between atoms: C7_14  and  C8_15
REMARK    6  A    between atoms: C8_15  and  N5_16
ROOT
HETATM    1  C5  UNL     1      18.620 -30.375  19.081  1.00  0.00     0.177 C
HETATM    2  N4  UNL     1      18.418 -31.535  18.276  1.00  0.00    -0.346 N
ATOM      3  H4  UNL     1      18.135 -31.246  17.339  1.00  0.00     0.163 HD
HETATM    4  C6  UNL     1      18.475 -32.945  18.327  1.00  0.00     0.242 C
HETATM    5  O1  UNL     1      17.798 -33.461  17.408  1.00  0.00    -0.271 OA
HETATM    6  C7  UNL     1      19.111 -33.961  19.165  1.00  0.00     0.194 C
HETATM    7  N8  UNL     1      18.619 -33.954  20.532  1.00  0.00    -0.349 N
ATOM      8  H8  UNL     1      18.264 -34.859  20.842  1.00  0.00     0.163 HD
HETATM    9  C10 UNL     1      18.540 -33.032  21.432  1.00  0.00     0.191 C
HETATM   10  N9  UNL     1      17.985 -33.438  22.668  1.00  0.00    -0.063 NA
HETATM   11  N10 UNL     1      18.922 -31.645  21.408  1.00  0.00    -0.299 N
ATOM     12  H10 UNL     1      19.063 -31.285  22.351  1.00  0.00     0.171 HD
HETATM   13  C11 UNL     1      19.155 -30.648  20.443  1.00  0.00     0.246 C
HETATM   14  O2  UNL     1      20.002 -29.811  20.832  1.00  0.00    -0.271 OA
ENDROOT
BRANCH   1  15
HETATM   15  C4  UNL     1      19.361 -29.281  18.416  1.00  0.00     0.036 C
BRANCH  15  16
HETATM   16  C3  UNL     1      20.253 -29.572  17.288  1.00  0.00     0.022 C
BRANCH  16  17
HETATM   17  C2  UNL     1      21.364 -30.532  17.451  1.00  0.00     0.122 C
BRANCH  17  18
HETATM   18  N3  UNL     1      22.197 -30.677  16.258  1.00  0.00    -0.367 N
HETATM   19  C1  UNL     1      21.863 -31.464  15.290  1.00  0.00     0.196 C
HETATM   20  N1  UNL     1      20.675 -32.242  15.305  1.00  0.00    -0.067 NA
HETATM   21  N2  UNL     1      22.750 -31.525  14.179  1.00  0.00    -0.067 NA
ATOM     22  H3  UNL     1      23.063 -30.144  16.189  1.00  0.00     0.161 HD
ENDBRANCH  17  18
ENDBRANCH  16  17
ENDBRANCH  15  16
ENDBRANCH   1  15
BRANCH   6  23
HETATM   23  C8  UNL     1      18.993 -35.326  18.548  1.00  0.00     0.156 C
BRANCH  23  24
HETATM   24  N5  UNL     1      20.117 -35.690  17.745  1.00  0.00    -0.364 N
HETATM   25  C9  UNL     1      19.904 -36.013  16.514  1.00  0.00     0.197 C
HETATM   26  N6  UNL     1      18.624 -36.031  15.907  1.00  0.00    -0.067 NA
HETATM   27  N7  UNL     1      21.029 -36.373  15.727  1.00  0.00    -0.067 NA
ATOM     28  H5  UNL     1      21.060 -35.695  18.134  1.00  0.00     0.161 HD
ENDBRANCH  23  24
ENDBRANCH   6  23
TORSDOF 6
ENDMDL