MODEL 4
REMARK VINA RESULT: -7.014966336      2.180      5.222
REMARK  8 active torsions:
REMARK  status: ('A' for Active; 'I' for Inactive)
REMARK    1  A    between atoms: N1_1  and  C1_5
REMARK    2  A    between atoms: C1_5  and  C2_6
REMARK    3  A    between atoms: C2_6  and  C3_7
REMARK    4  A    between atoms: C4_10  and  N3_11
REMARK    5  A    between atoms: C6_16  and  N4_17
REMARK    6  A    between atoms: C8_22  and  O1_23
REMARK    7  A    between atoms: O1_23  and  C9_24
REMARK    8  A    between atoms: C11_29  and  N8_30
ROOT
HETATM    1  C3  UNL     1      18.114 -33.895  18.466  1.00  0.00     0.111 C
HETATM    2  N2  UNL     1      18.697 -35.115  18.904  1.00  0.00    -0.389 N
ATOM      3  H2  UNL     1      18.138 -35.913  19.207  1.00  0.00     0.155 HD
HETATM    4  C4  UNL     1      20.130 -35.140  18.888  1.00  0.00     0.280 C
HETATM    5  C5  UNL     1      20.772 -34.094  19.725  1.00  0.00     0.081 C
HETATM    6  C6  UNL     1      19.767 -33.006  20.027  1.00  0.00     0.118 C
HETATM    7  C8  UNL     1      18.915 -32.670  18.805  1.00  0.00     0.169 C
ENDROOT
BRANCH   7   8
HETATM    8  O1  UNL     1      18.057 -31.658  19.177  1.00  0.00    -0.355 OA
BRANCH   8   9
HETATM    9  C9  UNL     1      18.495 -30.394  18.963  1.00  0.00     0.256 C
HETATM   10  N7  UNL     1      18.839 -29.577  20.084  1.00  0.00    -0.330 N
HETATM   11  C10 UNL     1      19.805 -28.944  19.267  1.00  0.00     0.246 C
ATOM     12  H7  UNL     1      18.525 -29.489  21.051  1.00  0.00     0.165 HD
HETATM   13  O2  UNL     1      20.318 -27.811  19.254  1.00  0.00    -0.271 OA
HETATM   14  C11 UNL     1      19.901 -30.197  18.491  1.00  0.00     0.225 C
BRANCH  14  15
HETATM   15  N8  UNL     1      20.066 -30.042  17.065  1.00  0.00    -0.350 N
HETATM   16  C12 UNL     1      21.033 -30.683  16.502  1.00  0.00     0.197 C
HETATM   17  N9  UNL     1      21.924 -31.521  17.227  1.00  0.00    -0.067 NA
HETATM   18  N10 UNL     1      21.230 -30.557  15.102  1.00  0.00    -0.067 NA
ATOM     19  H8  UNL     1      19.441 -29.446  16.523  1.00  0.00     0.162 HD
ENDBRANCH  14  15
ENDBRANCH   8   9
ENDBRANCH   7   8
BRANCH   1  20
HETATM   20  C2  UNL     1      17.853 -33.971  16.980  1.00  0.00     0.054 C
BRANCH  20  21
HETATM   21  C1  UNL     1      16.906 -35.083  16.624  1.00  0.00     0.231 C
BRANCH  21  22
HETATM   22  N1  UNL     1      17.472 -36.120  15.841  1.00  0.00    -0.079 N
ATOM     23  H13 UNL     1      18.012 -35.726  15.071  1.00  0.00     0.274 HD
ATOM     24  H12 UNL     1      18.217 -36.587  16.358  1.00  0.00     0.274 HD
ATOM     25  H11 UNL     1      16.803 -36.805  15.489  1.00  0.00     0.274 HD
ENDBRANCH  21  22
ENDBRANCH  20  21
ENDBRANCH   1  20
BRANCH   6  26
HETATM   26  N4  UNL     1      18.899 -33.357  21.122  1.00  0.00    -0.360 N
HETATM   27  C7  UNL     1      18.807 -32.733  22.215  1.00  0.00     0.197 C
HETATM   28  N5  UNL     1      19.594 -31.580  22.450  1.00  0.00    -0.067 NA
HETATM   29  N6  UNL     1      17.916 -33.173  23.221  1.00  0.00    -0.067 NA
ATOM     30  H4  UNL     1      18.309 -34.182  21.005  1.00  0.00     0.162 HD
ENDBRANCH   6  26
BRANCH   4  31
HETATM   31  N3  UNL     1      20.619 -36.437  19.273  1.00  0.00    -0.059 N
ATOM     32  H33 UNL     1      19.917 -37.162  19.133  1.00  0.00     0.276 HD
ATOM     33  H32 UNL     1      21.326 -36.782  18.624  1.00  0.00     0.276 HD
ATOM     34  H31 UNL     1      20.963 -36.422  20.233  1.00  0.00     0.276 HD
ENDBRANCH   4  31
TORSDOF 8
ENDMDL