MODEL 2
REMARK VINA RESULT: -6.437358569      2.776      6.305
REMARK  10 active torsions:
REMARK  status: ('A' for Active; 'I' for Inactive)
REMARK    1  A    between atoms: N1_2  and  C2_5
REMARK    2  A    between atoms: N3_9  and  N4_11
REMARK    3  A    between atoms: N4_11  and  N5_13
REMARK    4  A    between atoms: C4_16  and  C5_17
REMARK    5  A    between atoms: C5_17  and  N6_18
REMARK    6  A    between atoms: N6_18  and  C6_20
REMARK    7  A    between atoms: C6_20  and  C7_21
REMARK    8  A    between atoms: C7_21  and  N7_22
REMARK    9  A    between atoms: C10_27  and  O1_28
REMARK   10  A    between atoms: C11_33  and  O2_34
ROOT
HETATM    1  C2  UNL     1      19.059 -31.104  20.399  1.00  0.00     0.331 C
HETATM    2  N2  UNL     1      19.189 -32.399  19.800  1.00  0.00    -0.343 N
ATOM      3  H2  UNL     1      19.389 -33.136  20.476  1.00  0.00     0.163 HD
HETATM    4  C3  UNL     1      19.100 -32.867  18.487  1.00  0.00     0.143 C
HETATM    5  N3  UNL     1      17.951 -33.441  18.204  1.00  0.00    -0.270 N
ATOM      6  H3  UNL     1      17.298 -33.464  18.987  1.00  0.00     0.190 HD
HETATM    7  C4  UNL     1      20.068 -32.837  17.391  1.00  0.00     0.075 C
HETATM    8  N8  UNL     1      20.746 -31.821  17.021  1.00  0.00    -0.320 N
ATOM      9  H8  UNL     1      21.366 -32.015  16.235  1.00  0.00     0.169 HD
HETATM   10  C10 UNL     1      20.817 -30.500  17.469  1.00  0.00     0.233 C
HETATM   11  N9  UNL     1      19.720 -29.601  17.621  1.00  0.00    -0.267 N
ATOM     12  H9  UNL     1      19.794 -28.626  17.330  1.00  0.00     0.186 HD
HETATM   13  N10 UNL     1      18.526 -30.107  18.190  1.00  0.00    -0.102 NA
HETATM   14  C11 UNL     1      18.697 -29.938  19.613  1.00  0.00     0.281 C
ENDROOT
BRANCH   7  15
HETATM   15  C5  UNL     1      20.366 -34.092  16.569  1.00  0.00     0.175 C
BRANCH  15  16
HETATM   16  N6  UNL     1      21.323 -34.955  17.147  1.00  0.00    -0.414 N
ATOM     17  H6  UNL     1      22.324 -34.765  17.099  1.00  0.00     0.153 HD
BRANCH  16  18
HETATM   18  C6  UNL     1      20.807 -36.102  17.796  1.00  0.00     0.144 C
BRANCH  18  19
HETATM   19  C7  UNL     1      20.461 -37.302  17.018  1.00  0.00     0.290 C
BRANCH  19  20
HETATM   20  N7  UNL     1      21.226 -38.492  17.215  1.00  0.00     0.081 N
HETATM   21  C8  UNL     1      21.618 -38.916  15.847  1.00  0.00     0.309 C
HETATM   22  C9  UNL     1      22.487 -38.251  17.929  1.00  0.00     0.309 C
ENDBRANCH  19  20
ENDBRANCH  18  19
ENDBRANCH  16  18
ENDBRANCH  15  16
ENDBRANCH   7  15
BRANCH   5  23
HETATM   23  N4  UNL     1      17.473 -34.002  17.084  1.00  0.00    -0.248 N
ATOM     24  H4  UNL     1      17.390 -33.443  16.235  1.00  0.00     0.207 HD
BRANCH  23  25
HETATM   25  N5  UNL     1      17.116 -35.237  17.070  1.00  0.00    -0.331 N
ATOM     26  H52 UNL     1      16.145 -35.469  17.278  1.00  0.00     0.178 HD
ATOM     27  H51 UNL     1      17.792 -35.971  16.855  1.00  0.00     0.178 HD
ENDBRANCH  23  25
ENDBRANCH   5  23
BRANCH  10  28
HETATM   28  O1  UNL     1      21.955 -29.963  17.798  1.00  0.00    -0.332 OA
ATOM     29  H1  UNL     1      22.028 -29.394  18.555  1.00  0.00     0.221 HD
ENDBRANCH  10  28
BRANCH   1  30
HETATM   30  N1  UNL     1      20.258 -30.895  21.224  1.00  0.00    -0.054 N
HETATM   31  C1  UNL     1      20.472 -32.129  22.001  1.00  0.00     0.269 C
ATOM     32  H12 UNL     1      20.201 -30.060  21.807  1.00  0.00     0.279 HD
ATOM     33  H11 UNL     1      21.074 -30.618  20.679  1.00  0.00     0.279 HD
ENDBRANCH   1  30
BRANCH  14  34
HETATM   34  O2  UNL     1      19.614 -28.896  19.908  1.00  0.00    -0.374 OA
ATOM     35  H2  UNL     1      19.120 -28.121  20.150  1.00  0.00     0.212 HD
ENDBRANCH  14  34
TORSDOF 10
ENDMDL