MODEL 1
REMARK VINA RESULT: -7.397266275      0.000      0.000
REMARK  6 active torsions:
REMARK  status: ('A' for Active; 'I' for Inactive)
REMARK    1  A    between atoms: N3_4  and  C2_6
REMARK    2  A    between atoms: C2_6  and  C3_7
REMARK    3  A    between atoms: C3_7  and  C4_8
REMARK    4  A    between atoms: C4_8  and  C5_9
REMARK    5  A    between atoms: C6_12  and  C7_13
REMARK    6  A    between atoms: N6_14  and  N7_16
ROOT
HETATM    1  C5  UNL     1      19.986 -31.130  18.737  1.00  0.00     0.187 C
HETATM    2  N4  UNL     1      19.659 -32.379  18.102  1.00  0.00    -0.132 NA
HETATM    3  N5  UNL     1      18.734 -33.142  18.792  1.00  0.00    -0.117 NA
HETATM    4  C6  UNL     1      19.411 -33.945  19.762  1.00  0.00     0.235 C
HETATM    5  N10 UNL     1      18.583 -33.962  20.964  1.00  0.00    -0.336 N
ATOM      6  H10 UNL     1      18.111 -34.831  21.213  1.00  0.00     0.164 HD
HETATM    7  C9  UNL     1      18.401 -32.840  21.798  1.00  0.00     0.236 C
HETATM    8  O1  UNL     1      17.430 -32.756  22.589  1.00  0.00    -0.272 OA
HETATM    9  C10 UNL     1      19.364 -31.718  21.760  1.00  0.00     0.225 C
HETATM   10  N11 UNL     1      18.777 -30.675  20.946  1.00  0.00    -0.351 N
ATOM     11  H11 UNL     1      18.223 -29.963  21.422  1.00  0.00     0.163 HD
HETATM   12  C11 UNL     1      18.910 -30.565  19.551  1.00  0.00     0.238 C
HETATM   13  O2  UNL     1      18.003 -29.906  18.930  1.00  0.00    -0.272 OA
ENDROOT
BRANCH   1  14
HETATM   14  C4  UNL     1      20.413 -30.179  17.635  1.00  0.00     0.034 C
BRANCH  14  15
HETATM   15  C3  UNL     1      20.401 -30.817  16.277  1.00  0.00     0.022 C
BRANCH  15  16
HETATM   16  C2  UNL     1      21.809 -31.069  15.842  1.00  0.00     0.122 C
BRANCH  16  17
HETATM   17  N3  UNL     1      22.348 -32.301  16.427  1.00  0.00    -0.367 N
HETATM   18  C1  UNL     1      22.344 -33.344  15.688  1.00  0.00     0.196 C
HETATM   19  N1  UNL     1      22.860 -34.544  16.234  1.00  0.00    -0.067 NA
HETATM   20  N2  UNL     1      21.855 -33.358  14.368  1.00  0.00    -0.067 NA
ATOM     21  H3  UNL     1      22.709 -32.325  17.380  1.00  0.00     0.161 HD
ENDBRANCH  16  17
ENDBRANCH  15  16
ENDBRANCH  14  15
ENDBRANCH   1  14
BRANCH   4  22
HETATM   22  C7  UNL     1      19.688 -35.321  19.290  1.00  0.00     0.123 C
HETATM   23  N6  UNL     1      20.587 -35.499  18.407  1.00  0.00    -0.310 N
ATOM     24  H6  UNL     1      21.088 -34.683  18.056  1.00  0.00     0.185 HD
BRANCH  23  25
HETATM   25  N7  UNL     1      20.925 -36.755  17.896  1.00  0.00    -0.277 N
HETATM   26  C8  UNL     1      20.516 -37.101  16.714  1.00  0.00     0.215 C
HETATM   27  N8  UNL     1      20.845 -38.373  16.170  1.00  0.00    -0.065 NA
HETATM   28  N9  UNL     1      19.732 -36.217  15.947  1.00  0.00    -0.065 NA
ATOM     29  H7  UNL     1      21.492 -37.397  18.449  1.00  0.00     0.189 HD
ENDBRANCH  23  25
ENDBRANCH   4  22
TORSDOF 6
ENDMDL