MODEL 4
REMARK VINA RESULT: -7.000652969      1.834      2.089
REMARK  8 active torsions:
REMARK  status: ('A' for Active; 'I' for Inactive)
REMARK    1  A    between atoms: C3_3  and  N1_4
REMARK    2  A    between atoms: C5_10  and  C6_11
REMARK       I    between atoms: C6_11  and  N3_13
REMARK    3  A    between atoms: N3_13  and  C7_15
REMARK    4  A    between atoms: C7_15  and  C8_16
REMARK    5  A    between atoms: C8_16  and  C9_17
REMARK       I    between atoms: C9_17  and  N4_19
REMARK    6  A    between atoms: N4_19  and  C10_21
REMARK    7  A    between atoms: C10_21  and  C11_22
REMARK       I    between atoms: C11_22  and  N5_24
REMARK    8  A    between atoms: N5_24  and  N6_26
ROOT
HETATM    1  C6  UNL     1      20.512 -31.830  18.795  1.00  0.00     0.248 C
HETATM    2  O1  UNL     1      19.566 -32.471  18.345  1.00  0.00    -0.268 OA
HETATM    3  N3  UNL     1      21.303 -31.023  17.954  1.00  0.00    -0.333 N
ATOM      4  H3  UNL     1      22.056 -30.561  18.465  1.00  0.00     0.168 HD
ENDROOT
BRANCH   1   5
HETATM    5  C5  UNL     1      20.876 -31.861  20.215  1.00  0.00     0.122 C
HETATM    6  C4  UNL     1      20.099 -32.094  21.243  1.00  0.00     0.114 A
HETATM    7  N2  UNL     1      18.801 -32.352  21.197  1.00  0.00    -0.328 N
HETATM    8  N7  UNL     1      20.659 -32.077  22.501  1.00  0.00    -0.309 N
HETATM    9  C3  UNL     1      18.029 -32.593  22.308  1.00  0.00     0.115 A
ATOM     10  H2  UNL     1      18.348 -32.373  20.282  1.00  0.00     0.169 HD
HETATM   11  C2  UNL     1      18.594 -32.574  23.555  1.00  0.00     0.066 A
HETATM   12  C1  UNL     1      17.902 -32.800  24.661  1.00  0.00     0.033 C
HETATM   13  C12 UNL     1      19.944 -32.305  23.603  1.00  0.00     0.260 A
HETATM   14  O4  UNL     1      20.479 -32.286  24.763  1.00  0.00    -0.267 OA
ATOM     15  H7  UNL     1      21.657 -31.883  22.593  1.00  0.00     0.170 HD
BRANCH   9  16
HETATM   16  N1  UNL     1      16.774 -32.838  22.197  1.00  0.00    -0.385 N
ATOM     17  H12 UNL     1      16.346 -33.615  22.701  1.00  0.00     0.157 HD
ATOM     18  H11 UNL     1      16.205 -32.241  21.597  1.00  0.00     0.157 HD
ENDBRANCH   9  16
ENDBRANCH   1   5
BRANCH   3  19
HETATM   19  C7  UNL     1      21.315 -30.697  16.591  1.00  0.00     0.097 C
BRANCH  19  20
HETATM   20  C8  UNL     1      22.135 -31.486  15.679  1.00  0.00     0.091 C
BRANCH  20  21
HETATM   21  C9  UNL     1      21.856 -32.828  15.259  1.00  0.00     0.242 C
HETATM   22  O2  UNL     1      21.880 -33.343  14.119  1.00  0.00    -0.269 OA
HETATM   23  N4  UNL     1      21.478 -33.777  16.299  1.00  0.00    -0.349 N
ATOM     24  H4  UNL     1      21.426 -33.462  17.268  1.00  0.00     0.163 HD
BRANCH  23  25
HETATM   25  C10 UNL     1      21.178 -35.144  15.986  1.00  0.00     0.227 C
BRANCH  25  26
HETATM   26  C11 UNL     1      19.882 -35.509  16.584  1.00  0.00     0.253 C
HETATM   27  O3  UNL     1      18.940 -35.927  15.865  1.00  0.00    -0.270 OA
HETATM   28  N5  UNL     1      19.732 -35.371  18.006  1.00  0.00    -0.275 N
ATOM     29  H5  UNL     1      20.508 -35.030  18.573  1.00  0.00     0.189 HD
BRANCH  28  30
HETATM   30  N6  UNL     1      18.507 -35.711  18.612  1.00  0.00    -0.343 N
ATOM     31  H62 UNL     1      17.936 -34.974  19.027  1.00  0.00     0.176 HD
ATOM     32  H61 UNL     1      18.206 -36.685  18.630  1.00  0.00     0.176 HD
ENDBRANCH  28  30
ENDBRANCH  25  26
ENDBRANCH  23  25
ENDBRANCH  20  21
ENDBRANCH  19  20
ENDBRANCH   3  19
TORSDOF 8
ENDMDL