MODEL 2
REMARK VINA RESULT: -7.401862840      1.088      1.624
REMARK  7 active torsions:
REMARK  status: ('A' for Active; 'I' for Inactive)
REMARK    1  A    between atoms: N1_1  and  C1_5
REMARK    2  A    between atoms: C1_5  and  C2_6
REMARK    3  A    between atoms: C2_6  and  N2_7
REMARK       I    between atoms: C3_9  and  N3_10
REMARK       I    between atoms: C3_9  and  N5_15
REMARK    4  A    between atoms: N3_10  and  N4_12
REMARK    5  A    between atoms: N5_15  and  N6_17
REMARK    6  A    between atoms: C7_25  and  C8_26
REMARK    7  A    between atoms: C8_26  and  C9_27
ROOT
HETATM    1  N6  UNL     1      19.854 -32.104  17.148  1.00  0.00    -0.274 N
ATOM      2  H6  UNL     1      20.607 -31.422  17.064  1.00  0.00     0.189 HD
HETATM    3  C4  UNL     1      20.119 -33.299  16.753  1.00  0.00     0.110 C
HETATM    4  C5  UNL     1      19.058 -34.327  16.857  1.00  0.00     0.200 C
HETATM    5  N7  UNL     1      19.170 -35.162  18.025  1.00  0.00    -0.352 N
ATOM      6  H7  UNL     1      18.519 -34.971  18.786  1.00  0.00     0.162 HD
HETATM    7  C6  UNL     1      20.086 -36.219  18.228  1.00  0.00     0.241 C
HETATM    8  O1  UNL     1      20.647 -36.318  19.381  1.00  0.00    -0.271 OA
HETATM    9  C7  UNL     1      20.463 -37.231  17.231  1.00  0.00     0.184 C
HETATM   10  N9  UNL     1      20.678 -36.728  15.901  1.00  0.00    -0.346 N
ATOM     11  H9  UNL     1      20.040 -37.038  15.169  1.00  0.00     0.163 HD
HETATM   12  C10 UNL     1      21.706 -35.838  15.536  1.00  0.00     0.235 C
HETATM   13  O3  UNL     1      22.258 -36.047  14.396  1.00  0.00    -0.272 OA
HETATM   14  C11 UNL     1      22.196 -34.704  16.339  1.00  0.00     0.223 C
HETATM   15  N10 UNL     1      21.420 -33.520  16.249  1.00  0.00    -0.368 N
ATOM     16  H10 UNL     1      21.853 -32.735  15.762  1.00  0.00     0.161 HD
ENDROOT
BRANCH   1  17
HETATM   17  N5  UNL     1      18.671 -31.640  17.672  1.00  0.00    -0.130 N
HETATM   18  C3  UNL     1      18.677 -31.131  19.017  1.00  0.00     0.706 C
HETATM   19  N2  UNL     1      19.496 -30.190  19.321  1.00  0.00    -0.222 N
HETATM   20  N3  UNL     1      17.815 -31.630  20.030  1.00  0.00    -0.138 N
ATOM     21  H2  UNL     1      20.117 -29.833  18.595  1.00  0.00     0.177 HD
ATOM     22  H3  UNL     1      18.173 -31.812  20.967  1.00  0.00     0.205 HD
ATOM     23  H5  UNL     1      17.812 -31.656  17.122  1.00  0.00     0.205 HD
BRANCH  19  24
HETATM   24  C2  UNL     1      19.579 -29.614  20.640  1.00  0.00     0.165 C
BRANCH  24  25
HETATM   25  C1  UNL     1      19.677 -28.108  20.617  1.00  0.00     0.249 C
BRANCH  25  26
HETATM   26  N1  UNL     1      20.764 -27.636  19.764  1.00  0.00    -0.078 N
ATOM     27  H13 UNL     1      21.578 -28.246  19.834  1.00  0.00     0.274 HD
ATOM     28  H12 UNL     1      20.543 -27.772  18.777  1.00  0.00     0.274 HD
ATOM     29  H11 UNL     1      21.013 -26.665  19.955  1.00  0.00     0.274 HD
ENDBRANCH  25  26
ENDBRANCH  24  25
ENDBRANCH  19  24
BRANCH  20  30
HETATM   30  N4  UNL     1      16.468 -31.870  19.725  1.00  0.00    -0.331 N
ATOM     31  H42 UNL     1      16.217 -32.690  19.174  1.00  0.00     0.177 HD
ATOM     32  H41 UNL     1      15.758 -31.218  20.059  1.00  0.00     0.177 HD
ENDBRANCH  20  30
ENDBRANCH   1  17
BRANCH   9  33
HETATM   33  C8  UNL     1      21.712 -37.981  17.664  1.00  0.00     0.134 C
BRANCH  33  34
HETATM   34  C9  UNL     1      21.929 -39.165  16.813  1.00  0.00     0.233 C
HETATM   35  N8  UNL     1      23.105 -39.934  16.942  1.00  0.00    -0.062 NA
HETATM   36  O2  UNL     1      21.069 -39.496  15.965  1.00  0.00    -0.277 OA
ENDBRANCH  33  34
ENDBRANCH   9  33
TORSDOF 7
ENDMDL