MODEL 4
REMARK VINA RESULT: -7.584851930      1.274      4.706
REMARK  7 active torsions:
REMARK  status: ('A' for Active; 'I' for Inactive)
REMARK    1  A    between atoms: C2_2  and  C3_3
REMARK    2  A    between atoms: C2_2  and  N1_10
REMARK    3  A    between atoms: C3_3  and  C4_4
REMARK    4  A    between atoms: N1_10  and  C10_12
REMARK    5  A    between atoms: C13_19  and  N4_20
REMARK    6  A    between atoms: N4_20  and  C14_22
REMARK    7  A    between atoms: N5_23  and  N6_25
ROOT
HETATM    1  C10 UNL     1      19.796 -19.764  43.064  1.00  0.00     0.131 A
HETATM    2  N2  UNL     1      20.808 -19.070  43.611  1.00  0.00    -0.337 N
ATOM      3  H2  UNL     1      21.725 -19.508  43.701  1.00  0.00     0.168 HD
HETATM    4  C11 UNL     1      20.635 -17.801  44.046  1.00  0.00     0.182 A
HETATM    5  N3  UNL     1      19.426 -17.223  43.929  1.00  0.00    -0.360 N
ATOM      6  H3  UNL     1      19.310 -16.265  44.260  1.00  0.00     0.166 HD
HETATM    7  C12 UNL     1      18.357 -17.853  43.392  1.00  0.00     0.122 A
HETATM    8  C13 UNL     1      18.564 -19.155  42.954  1.00  0.00     0.093 A
ENDROOT
BRANCH   1   9
HETATM    9  N1  UNL     1      19.914 -20.975  42.636  1.00  0.00    -0.370 N
ATOM     10  H1  UNL     1      19.559 -21.736  43.215  1.00  0.00     0.161 HD
BRANCH   9  11
HETATM   11  C2  UNL     1      20.531 -21.300  41.365  1.00  0.00     0.083 C
HETATM   12  C1  UNL     1      21.746 -22.160  41.526  1.00  0.00     0.032 C
BRANCH  11  13
HETATM   13  C3  UNL     1      20.775 -20.081  40.522  1.00  0.00     0.063 C
BRANCH  13  14
HETATM   14  C4  UNL     1      19.691 -19.786  39.583  1.00  0.00    -0.056 A
HETATM   15  C5  UNL     1      19.588 -18.567  38.958  1.00  0.00     0.007 A
HETATM   16  C6  UNL     1      18.571 -18.279  38.073  1.00  0.00     0.001 A
HETATM   17  C7  UNL     1      17.615 -19.213  37.781  1.00  0.00     0.000 A
HETATM   18  C8  UNL     1      17.691 -20.445  38.393  1.00  0.00     0.001 A
HETATM   19  C9  UNL     1      18.729 -20.726  39.291  1.00  0.00     0.007 A
ENDBRANCH  13  14
ENDBRANCH  11  13
ENDBRANCH   9  11
ENDBRANCH   1   9
BRANCH   8  20
HETATM   20  N4  UNL     1      17.487 -19.878  42.377  1.00  0.00    -0.347 N
ATOM     21  H4  UNL     1      17.640 -20.842  42.078  1.00  0.00     0.167 HD
BRANCH  20  22
HETATM   22  C14 UNL     1      16.203 -19.297  42.206  1.00  0.00     0.199 C
HETATM   23  N5  UNL     1      15.829 -18.816  41.075  1.00  0.00    -0.282 N
ATOM     24  H5  UNL     1      16.483 -18.862  40.293  1.00  0.00     0.189 HD
BRANCH  23  25
HETATM   25  N6  UNL     1      14.592 -18.239  40.858  1.00  0.00    -0.248 N
HETATM   26  N7  UNL     1      14.057 -17.393  41.630  1.00  0.00    -0.331 N
ATOM     27  H72 UNL     1      14.585 -17.129  42.462  1.00  0.00     0.178 HD
ATOM     28  H71 UNL     1      13.144 -16.967  41.470  1.00  0.00     0.178 HD
ATOM     29  H6  UNL     1      14.078 -18.514  40.022  1.00  0.00     0.207 HD
ENDBRANCH  23  25
ENDBRANCH  20  22
ENDBRANCH   8  20
TORSDOF 7
ENDMDL