MODEL 2
REMARK VINA RESULT: -6.347053802      2.537      4.129
REMARK  9 active torsions:
REMARK  status: ('A' for Active; 'I' for Inactive)
REMARK    1  A    between atoms: C3_4  and  N2_5
REMARK    2  A    between atoms: N2_5  and  C4_7
REMARK    3  A    between atoms: C4_7  and  C5_8
REMARK    4  A    between atoms: C5_8  and  C6_9
REMARK    5  A    between atoms: C12_17  and  N4_18
REMARK    6  A    between atoms: N4_18  and  C13_20
REMARK    7  A    between atoms: C13_20  and  C14_21
REMARK    8  A    between atoms: C14_21  and  C15_22
REMARK    9  A    between atoms: C15_22  and  O1_23
ROOT
HETATM    1  C1  UNL     1      15.350 -21.023  44.051  1.00  0.00     0.177 C
HETATM    2  N1  UNL     1      15.976 -19.984  43.257  1.00  0.00    -0.290 N
HETATM    3  C2  UNL     1      15.523 -19.686  42.003  1.00  0.00     0.158 A
HETATM    4  C3  UNL     1      16.106 -18.703  41.238  1.00  0.00     0.134 A
HETATM    5  N3  UNL     1      17.163 -18.014  41.754  1.00  0.00    -0.174 N
ATOM      6  H3  UNL     1      17.617 -17.279  41.211  1.00  0.00     0.186 HD
HETATM    7  C12 UNL     1      17.595 -18.316  42.980  1.00  0.00     0.694 A
HETATM    8  N5  UNL     1      17.000 -19.282  43.694  1.00  0.00    -0.131 N
ATOM      9  H5  UNL     1      17.359 -19.483  44.627  1.00  0.00     0.205 HD
ENDROOT
BRANCH   4  10
HETATM   10  N2  UNL     1      15.657 -18.456  40.075  1.00  0.00    -0.374 N
ATOM     11  H2  UNL     1      14.645 -18.428  39.954  1.00  0.00     0.161 HD
BRANCH  10  12
HETATM   12  C4  UNL     1      16.474 -18.214  38.922  1.00  0.00     0.126 C
BRANCH  12  13
HETATM   13  C5  UNL     1      17.034 -19.530  38.369  1.00  0.00     0.058 C
BRANCH  13  14
HETATM   14  C6  UNL     1      18.349 -19.807  38.982  1.00  0.00    -0.057 A
HETATM   15  C7  UNL     1      19.300 -18.786  38.994  1.00  0.00     0.007 A
HETATM   16  C8  UNL     1      20.554 -19.021  39.569  1.00  0.00     0.001 A
HETATM   17  C9  UNL     1      20.843 -20.252  40.118  1.00  0.00     0.000 A
HETATM   18  C10 UNL     1      19.924 -21.271  40.118  1.00  0.00     0.001 A
HETATM   19  C11 UNL     1      18.681 -21.019  39.542  1.00  0.00     0.007 A
ENDBRANCH  13  14
ENDBRANCH  12  13
ENDBRANCH  10  12
ENDBRANCH   4  10
BRANCH   7  20
HETATM   20  N4  UNL     1      18.604 -17.630  43.424  1.00  0.00    -0.225 N
ATOM     21  H4  UNL     1      18.472 -16.770  43.957  1.00  0.00     0.177 HD
BRANCH  20  22
HETATM   22  C13 UNL     1      19.927 -18.143  43.125  1.00  0.00     0.140 C
BRANCH  22  23
HETATM   23  C14 UNL     1      20.539 -18.835  44.317  1.00  0.00     0.046 C
BRANCH  23  24
HETATM   24  C15 UNL     1      21.101 -20.162  43.807  1.00  0.00     0.165 C
BRANCH  24  25
HETATM   25  O1  UNL     1      22.485 -20.172  43.854  1.00  0.00    -0.401 OA
ATOM     26  H1  UNL     1      22.856 -19.667  43.140  1.00  0.00     0.209 HD
ENDBRANCH  24  25
ENDBRANCH  23  24
ENDBRANCH  22  23
ENDBRANCH  20  22
ENDBRANCH   7  20
TORSDOF 9
ENDMDL