MODEL 1
REMARK VINA RESULT: -6.485767775      0.000      0.000
REMARK  9 active torsions:
REMARK  status: ('A' for Active; 'I' for Inactive)
REMARK    1  A    between atoms: N1_2  and  C2_4
REMARK    2  A    between atoms: C5_9  and  N3_10
REMARK    3  A    between atoms: N3_10  and  C6_12
REMARK    4  A    between atoms: C6_12  and  C7_13
REMARK    5  A    between atoms: C7_13  and  C8_14
REMARK    6  A    between atoms: C8_14  and  C9_15
REMARK    7  A    between atoms: N4_19  and  C13_20
REMARK    8  A    between atoms: C13_20  and  C14_21
REMARK    9  A    between atoms: C14_21  and  O1_22
ROOT
HETATM    1  N3  UNL     1      16.559 -18.267  39.191  1.00  0.00    -0.376 N
ATOM      2  H3  UNL     1      15.665 -18.378  38.711  1.00  0.00     0.161 HD
ENDROOT
BRANCH   1   3
HETATM    3  C5  UNL     1      16.717 -18.858  40.325  1.00  0.00     0.118 A
HETATM    4  C4  UNL     1      16.614 -18.214  41.542  1.00  0.00     0.066 A
HETATM    5  C3  UNL     1      16.803 -18.948  42.686  1.00  0.00     0.110 A
HETATM    6  N2  UNL     1      17.081 -20.251  42.628  1.00  0.00    -0.202 N
HETATM    7  C2  UNL     1      17.185 -20.888  41.458  1.00  0.00     0.679 A
ATOM      8  H2  UNL     1      17.217 -20.772  43.495  1.00  0.00     0.183 HD
HETATM    9  N5  UNL     1      16.999 -20.170  40.331  1.00  0.00    -0.177 N
ATOM     10  H5  UNL     1      17.077 -20.651  39.435  1.00  0.00     0.185 HD
BRANCH   7  11
HETATM   11  N1  UNL     1      17.448 -22.128  41.363  1.00  0.00    -0.230 N
HETATM   12  C1  UNL     1      17.735 -22.981  42.483  1.00  0.00     0.165 C
ATOM     13  H1  UNL     1      17.455 -22.544  40.432  1.00  0.00     0.177 HD
ENDBRANCH   7  11
ENDBRANCH   1   3
BRANCH   1  14
HETATM   14  C6  UNL     1      17.579 -17.456  38.559  1.00  0.00     0.121 C
BRANCH  14  15
HETATM   15  C7  UNL     1      18.775 -18.292  38.148  1.00  0.00     0.024 C
BRANCH  15  16
HETATM   16  C8  UNL     1      19.983 -18.013  38.972  1.00  0.00     0.041 C
BRANCH  16  17
HETATM   17  C9  UNL     1      20.289 -19.025  39.984  1.00  0.00    -0.043 A
HETATM   18  C10 UNL     1      20.603 -20.302  39.557  1.00  0.00     0.010 A
HETATM   19  C11 UNL     1      20.904 -21.309  40.473  1.00  0.00     0.018 A
HETATM   20  C12 UNL     1      20.878 -20.982  41.833  1.00  0.00     0.090 A
HETATM   21  N4  UNL     1      20.575 -19.744  42.245  1.00  0.00    -0.364 N
HETATM   22  C15 UNL     1      20.288 -18.794  41.346  1.00  0.00     0.097 A
BRANCH  21  23
HETATM   23  C13 UNL     1      20.559 -19.452  43.655  1.00  0.00     0.153 C
BRANCH  23  24
HETATM   24  C14 UNL     1      20.158 -18.029  43.955  1.00  0.00     0.184 C
BRANCH  24  25
HETATM   25  O1  UNL     1      20.899 -17.464  44.983  1.00  0.00    -0.399 OA
ATOM     26  H1  UNL     1      21.464 -16.760  44.688  1.00  0.00     0.209 HD
ENDBRANCH  24  25
ENDBRANCH  23  24
ENDBRANCH  21  23
ENDBRANCH  16  17
ENDBRANCH  15  16
ENDBRANCH  14  15
ENDBRANCH   1  14
TORSDOF 9
ENDMDL