MODEL 2
REMARK VINA RESULT: -5.983513933      1.636      2.758
REMARK  8 active torsions:
REMARK  status: ('A' for Active; 'I' for Inactive)
REMARK    1  A    between atoms: N1_2  and  C2_4
REMARK    2  A    between atoms: C5_7  and  C6_8
REMARK    3  A    between atoms: N2_9  and  O1_10
REMARK    4  A    between atoms: N2_9  and  C7_12
REMARK    5  A    between atoms: C7_12  and  C8_13
REMARK    6  A    between atoms: C10_19  and  C11_20
REMARK    7  A    between atoms: C11_20  and  C12_21
REMARK    8  A    between atoms: C12_21  and  O2_22
ROOT
HETATM    1  C6  UNL     1      20.163 -21.293  40.556  1.00  0.00     0.130 C
HETATM    2  N2  UNL     1      18.953 -21.483  40.877  1.00  0.00    -0.266 N
ENDROOT
BRANCH   2   3
HETATM    3  O1  UNL     1      18.400 -21.834  42.054  1.00  0.00    -0.288 OA
ATOM      4  H1  UNL     1      18.718 -22.403  42.744  1.00  0.00     0.244 HD
ENDBRANCH   2   3
BRANCH   2   5
HETATM    5  C7  UNL     1      17.951 -21.294  39.788  1.00  0.00     0.214 C
BRANCH   5   6
HETATM    6  C8  UNL     1      17.181 -20.096  40.116  1.00  0.00     0.053 A
HETATM    7  N3  UNL     1      16.457 -19.905  41.231  1.00  0.00    -0.353 N
HETATM    8  C9  UNL     1      15.914 -18.700  41.157  1.00  0.00     0.181 A
ATOM      9  H3  UNL     1      16.346 -20.569  41.998  1.00  0.00     0.166 HD
HETATM   10  N4  UNL     1      16.282 -18.113  40.005  1.00  0.00    -0.354 N
HETATM   11  C10 UNL     1      17.078 -18.955  39.318  1.00  0.00     0.036 A
ATOM     12  H4  UNL     1      16.002 -17.181  39.699  1.00  0.00     0.166 HD
BRANCH  11  13
HETATM   13  C11 UNL     1      17.711 -18.745  38.017  1.00  0.00     0.085 C
BRANCH  13  14
HETATM   14  C12 UNL     1      19.119 -18.268  38.051  1.00  0.00     0.173 C
BRANCH  14  15
HETATM   15  O2  UNL     1      19.436 -17.563  39.211  1.00  0.00    -0.396 OA
HETATM   16  C13 UNL     1      20.789 -17.874  39.480  1.00  0.00     0.201 C
ENDBRANCH  14  15
ENDBRANCH  13  14
ENDBRANCH  11  13
ENDBRANCH   5   6
ENDBRANCH   2   5
BRANCH   1  17
HETATM   17  C5  UNL     1      21.305 -21.414  41.430  1.00  0.00    -0.003 A
HETATM   18  C4  UNL     1      22.056 -22.594  41.416  1.00  0.00     0.018 A
HETATM   19  C3  UNL     1      23.145 -22.768  42.218  1.00  0.00     0.049 A
HETATM   20  C2  UNL     1      23.504 -21.735  43.063  1.00  0.00     0.100 A
HETATM   21  N5  UNL     1      22.787 -20.593  43.084  1.00  0.00    -0.352 N
HETATM   22  C14 UNL     1      21.695 -20.433  42.273  1.00  0.00     0.102 A
ATOM     23  H5  UNL     1      23.062 -19.838  43.712  1.00  0.00     0.166 HD
BRANCH  20  24
HETATM   24  N1  UNL     1      24.522 -21.842  43.840  1.00  0.00    -0.381 N
HETATM   25  C1  UNL     1      24.282 -21.998  45.258  1.00  0.00     0.147 C
ATOM     26  H1  UNL     1      25.472 -21.817  43.468  1.00  0.00     0.160 HD
ENDBRANCH  20  24
ENDBRANCH   1  17
TORSDOF 8
ENDMDL