MODEL 1
REMARK VINA RESULT: -7.263498794      0.000      0.000
REMARK  6 active torsions:
REMARK  status: ('A' for Active; 'I' for Inactive)
REMARK    1  A    between atoms: N2_7  and  C3_8
REMARK    2  A    between atoms: C3_8  and  C4_9
REMARK    3  A    between atoms: C4_9  and  C5_10
REMARK    4  A    between atoms: C5_10  and  C6_11
REMARK    5  A    between atoms: C6_11  and  C7_12
REMARK    6  A    between atoms: C7_12  and  C8_13
ROOT
HETATM    1  O1  UNL     1      14.847 -18.378  41.192  1.00  0.00    -0.246 OA
HETATM    2  C1  UNL     1      15.894 -18.815  41.771  1.00  0.00     0.332 A
HETATM    3  N1  UNL     1      16.165 -20.115  41.767  1.00  0.00    -0.260 N
ATOM      4  H1  UNL     1      15.538 -20.772  41.300  1.00  0.00     0.175 HD
HETATM    5  C2  UNL     1      17.279 -20.557  42.388  1.00  0.00     0.334 A
HETATM    6  O2  UNL     1      17.492 -21.798  42.355  1.00  0.00    -0.246 OA
HETATM    7  N2  UNL     1      18.129 -19.730  43.014  1.00  0.00    -0.251 N
HETATM    8  C14 UNL     1      17.865 -18.416  43.025  1.00  0.00     0.334 A
HETATM    9  O3  UNL     1      18.612 -17.575  43.592  1.00  0.00    -0.246 OA
HETATM   10  N3  UNL     1      16.744 -17.974  42.402  1.00  0.00    -0.260 N
ATOM     11  H3  UNL     1      16.537 -16.975  42.408  1.00  0.00     0.175 HD
ENDROOT
BRANCH   7  12
HETATM   12  C3  UNL     1      19.300 -20.275  43.657  1.00  0.00     0.139 C
BRANCH  12  13
HETATM   13  C4  UNL     1      20.558 -20.030  42.905  1.00  0.00     0.020 C
BRANCH  13  14
HETATM   14  C5  UNL     1      20.964 -21.258  42.147  1.00  0.00     0.002 C
BRANCH  14  15
HETATM   15  C6  UNL     1      20.941 -21.046  40.657  1.00  0.00     0.005 C
BRANCH  15  16
HETATM   16  C7  UNL     1      20.733 -19.563  40.346  1.00  0.00     0.038 C
BRANCH  16  17
HETATM   17  C8  UNL     1      19.604 -19.393  39.415  1.00  0.00    -0.058 A
HETATM   18  C9  UNL     1      19.437 -18.213  38.722  1.00  0.00     0.007 A
HETATM   19  C10 UNL     1      18.387 -18.031  37.846  1.00  0.00     0.001 A
HETATM   20  C11 UNL     1      17.494 -19.050  37.664  1.00  0.00     0.000 A
HETATM   21  C12 UNL     1      17.625 -20.261  38.345  1.00  0.00     0.001 A
HETATM   22  C13 UNL     1      18.681 -20.414  39.213  1.00  0.00     0.007 A
ENDBRANCH  16  17
ENDBRANCH  15  16
ENDBRANCH  14  15
ENDBRANCH  13  14
ENDBRANCH  12  13
ENDBRANCH   7  12
TORSDOF 6
ENDMDL