MODEL 5
REMARK VINA RESULT: -6.429962053      1.491      1.762
REMARK  9 active torsions:
REMARK  status: ('A' for Active; 'I' for Inactive)
REMARK    1  A    between atoms: C2_2  and  C3_3
REMARK    2  A    between atoms: C3_3  and  C4_4
REMARK    3  A    between atoms: C4_4  and  N1_5
REMARK    4  A    between atoms: C4_4  and  C5_9
REMARK    5  A    between atoms: C4_4  and  C11_18
REMARK    6  A    between atoms: C5_9  and  C6_10
REMARK    7  A    between atoms: N2_14  and  O1_15
REMARK    8  A    between atoms: C11_18  and  N3_19
REMARK    9  A    between atoms: C14_22  and  N4_23
ROOT
HETATM    1  C4  UNL     1      20.553 -19.752  41.549  1.00  0.00     0.143 C
ENDROOT
BRANCH   1   2
HETATM    2  C3  UNL     1      20.570 -19.636  40.011  1.00  0.00     0.040 C
BRANCH   2   3
HETATM    3  C2  UNL     1      20.633 -18.211  39.539  1.00  0.00    -0.002 C
HETATM    4  C1  UNL     1      19.441 -18.001  38.589  1.00  0.00     0.005 C
ENDBRANCH   2   3
ENDBRANCH   1   2
BRANCH   1   5
HETATM    5  N1  UNL     1      20.415 -18.328  42.052  1.00  0.00    -0.069 N
ATOM      6  H13 UNL     1      20.272 -17.641  41.311  1.00  0.00     0.275 HD
ATOM      7  H12 UNL     1      19.542 -18.149  42.550  1.00  0.00     0.275 HD
ATOM      8  H11 UNL     1      21.250 -18.161  42.613  1.00  0.00     0.275 HD
ENDBRANCH   1   5
BRANCH   1   9
HETATM    9  C5  UNL     1      21.859 -20.202  42.019  1.00  0.00     0.080 C
BRANCH   9  10
HETATM   10  C6  UNL     1      22.014 -21.614  42.422  1.00  0.00    -0.038 A
HETATM   11  C7  UNL     1      22.098 -22.705  41.600  1.00  0.00     0.010 A
HETATM   12  C8  UNL     1      22.228 -23.998  42.071  1.00  0.00     0.020 A
HETATM   13  C9  UNL     1      22.274 -24.186  43.442  1.00  0.00     0.122 A
HETATM   14  N2  UNL     1      22.192 -23.120  44.271  1.00  0.00    -0.247 N
HETATM   15  C10 UNL     1      22.067 -21.868  43.811  1.00  0.00     0.129 A
BRANCH  14  16
HETATM   16  O1  UNL     1      22.245 -23.382  45.636  1.00  0.00    -0.284 OA
ATOM     17  H1  UNL     1      22.898 -24.007  45.928  1.00  0.00     0.245 HD
ENDBRANCH  14  16
ENDBRANCH   9  10
ENDBRANCH   1   9
BRANCH   1  18
HETATM   18  C11 UNL     1      19.288 -20.392  41.937  1.00  0.00     0.168 C
BRANCH  18  19
HETATM   19  N3  UNL     1      18.058 -19.693  41.748  1.00  0.00    -0.350 N
HETATM   20  C12 UNL     1      17.317 -19.681  40.648  1.00  0.00     0.095 A
HETATM   21  C13 UNL     1      16.116 -18.965  40.518  1.00  0.00     0.065 A
HETATM   22  C14 UNL     1      15.679 -18.237  41.587  1.00  0.00     0.100 A
HETATM   23  N5  UNL     1      16.423 -18.247  42.705  1.00  0.00    -0.339 N
HETATM   24  C15 UNL     1      17.576 -18.954  42.782  1.00  0.00     0.184 A
ATOM     25  H5  UNL     1      16.112 -17.711  43.514  1.00  0.00     0.168 HD
BRANCH  22  26
HETATM   26  N4  UNL     1      14.572 -17.564  41.501  1.00  0.00    -0.385 N
ATOM     27  H42 UNL     1      14.387 -16.922  40.731  1.00  0.00     0.157 HD
ATOM     28  H41 UNL     1      13.856 -17.670  42.220  1.00  0.00     0.157 HD
ENDBRANCH  22  26
ENDBRANCH  18  19
ENDBRANCH   1  18
TORSDOF 9
ENDMDL