MODEL 5
REMARK VINA RESULT: -6.275291792      1.860      3.985
REMARK  6 active torsions:
REMARK  status: ('A' for Active; 'I' for Inactive)
REMARK       I    between atoms: C1_4  and  N3_6
REMARK    1  A    between atoms: N3_6  and  N4_8
REMARK    2  A    between atoms: C2_10  and  C3_11
REMARK    3  A    between atoms: N5_14  and  C6_15
REMARK    4  A    between atoms: C6_15  and  C7_16
REMARK    5  A    between atoms: C7_16  and  C8_17
REMARK    6  A    between atoms: C8_17  and  N6_18
ROOT
HETATM    1  C3  UNL     1      20.956 -21.319  44.323  1.00  0.00    -0.017 A
HETATM    2  C4  UNL     1      20.633 -20.044  43.912  1.00  0.00     0.030 A
HETATM    3  C5  UNL     1      19.326 -19.704  43.644  1.00  0.00     0.091 A
HETATM    4  N5  UNL     1      18.320 -20.577  43.766  1.00  0.00    -0.366 N
HETATM    5  C14 UNL     1      18.623 -21.828  44.168  1.00  0.00     0.091 A
HETATM    6  C15 UNL     1      19.915 -22.213  44.446  1.00  0.00     0.030 A
ENDROOT
BRANCH   1   7
HETATM    7  C2  UNL     1      22.335 -21.695  44.610  1.00  0.00     0.118 C
HETATM    8  N4  UNL     1      22.681 -22.051  45.797  1.00  0.00    -0.309 N
ATOM      9  H4  UNL     1      21.973 -22.065  46.531  1.00  0.00     0.186 HD
BRANCH   8  10
HETATM   10  N3  UNL     1      23.985 -22.417  46.113  1.00  0.00    -0.274 N
HETATM   11  C1  UNL     1      25.138 -21.731  45.645  1.00  0.00     0.200 C
HETATM   12  N1  UNL     1      25.907 -22.356  44.811  1.00  0.00    -0.372 N
HETATM   13  N2  UNL     1      25.464 -20.418  46.053  1.00  0.00    -0.062 NA
ATOM     14  H12 UNL     1      26.735 -21.864  44.475  1.00  0.00     0.158 HD
ATOM     15  H11 UNL     1      25.671 -23.304  44.517  1.00  0.00     0.158 HD
ATOM     16  H3  UNL     1      24.123 -23.226  46.718  1.00  0.00     0.189 HD
ENDBRANCH   8  10
ENDBRANCH   1   7
BRANCH   4  17
HETATM   17  C6  UNL     1      16.934 -20.202  43.478  1.00  0.00     0.129 C
BRANCH  17  18
HETATM   18  C7  UNL     1      16.976 -19.087  42.473  1.00  0.00     0.040 C
BRANCH  18  19
HETATM   19  C8  UNL     1      16.532 -19.516  41.103  1.00  0.00     0.129 C
BRANCH  19  20
HETATM   20  N6  UNL     1      17.395 -19.089  40.048  1.00  0.00    -0.365 N
HETATM   21  C9  UNL     1      16.920 -19.164  38.775  1.00  0.00     0.090 A
HETATM   22  C10 UNL     1      17.672 -18.776  37.685  1.00  0.00     0.019 A
HETATM   23  C11 UNL     1      18.946 -18.298  37.891  1.00  0.00     0.029 A
HETATM   24  C12 UNL     1      19.418 -18.227  39.192  1.00  0.00     0.061 A
HETATM   25  N7  UNL     1      20.743 -17.729  39.403  1.00  0.00    -0.101 NA
HETATM   26  C13 UNL     1      18.640 -18.621  40.252  1.00  0.00     0.116 A
ENDBRANCH  19  20
ENDBRANCH  18  19
ENDBRANCH  17  18
ENDBRANCH   4  17
TORSDOF 6
ENDMDL