MODEL 2
REMARK VINA RESULT: -6.355142437      2.709      4.854
REMARK  8 active torsions:
REMARK  status: ('A' for Active; 'I' for Inactive)
REMARK    1  A    between atoms: N1_1  and  C1_5
REMARK    2  A    between atoms: C1_5  and  C2_6
REMARK    3  A    between atoms: C2_6  and  C3_7
REMARK    4  A    between atoms: C3_7  and  C4_8
REMARK    5  A    between atoms: C3_7  and  N2_15
REMARK    6  A    between atoms: C4_8  and  C5_9
REMARK    7  A    between atoms: C13_19  and  C14_20
REMARK    8  A    between atoms: N3_22  and  N4_23
ROOT
HETATM    1  C3  UNL     1      19.843 -20.335  42.170  1.00  0.00     0.088 C
ENDROOT
BRANCH   1   2
HETATM    2  C2  UNL     1      20.747 -19.628  43.184  1.00  0.00     0.052 C
BRANCH   2   3
HETATM    3  C1  UNL     1      20.010 -18.439  43.771  1.00  0.00     0.231 C
BRANCH   3   4
HETATM    4  N1  UNL     1      20.844 -17.604  44.569  1.00  0.00    -0.079 N
ATOM      5  H13 UNL     1      21.116 -18.078  45.429  1.00  0.00     0.274 HD
ATOM      6  H12 UNL     1      21.764 -17.494  44.142  1.00  0.00     0.274 HD
ATOM      7  H11 UNL     1      20.425 -16.696  44.769  1.00  0.00     0.274 HD
ENDBRANCH   3   4
ENDBRANCH   2   3
ENDBRANCH   1   2
BRANCH   1   8
HETATM    8  C4  UNL     1      20.443 -20.323  40.798  1.00  0.00     0.063 C
BRANCH   8   9
HETATM    9  C5  UNL     1      19.547 -19.800  39.759  1.00  0.00    -0.056 A
HETATM   10  C6  UNL     1      18.452 -20.521  39.335  1.00  0.00     0.007 A
HETATM   11  C7  UNL     1      17.581 -20.100  38.380  1.00  0.00     0.001 A
HETATM   12  C8  UNL     1      17.789 -18.878  37.783  1.00  0.00     0.000 A
HETATM   13  C9  UNL     1      18.874 -18.123  38.177  1.00  0.00     0.001 A
HETATM   14  C10 UNL     1      19.753 -18.573  39.158  1.00  0.00     0.007 A
ENDBRANCH   8   9
ENDBRANCH   1   8
BRANCH   1  15
HETATM   15  N2  UNL     1      19.443 -21.626  42.634  1.00  0.00    -0.371 N
HETATM   16  C11 UNL     1      18.291 -21.941  43.083  1.00  0.00     0.104 A
HETATM   17  C12 UNL     1      17.224 -21.078  43.199  1.00  0.00     0.083 A
HETATM   18  N5  UNL     1      18.079 -23.211  43.480  1.00  0.00    -0.337 N
HETATM   19  C13 UNL     1      16.008 -21.495  43.695  1.00  0.00     0.098 A
HETATM   20  N3  UNL     1      15.842 -22.781  44.084  1.00  0.00    -0.255 N
HETATM   21  C15 UNL     1      16.901 -23.598  43.957  1.00  0.00     0.208 A
ATOM     22  H5  UNL     1      18.839 -23.888  43.413  1.00  0.00     0.168 HD
ATOM     23  H2  UNL     1      20.144 -22.365  42.603  1.00  0.00     0.161 HD
BRANCH  19  24
HETATM   24  C14 UNL     1      14.877 -20.587  43.821  1.00  0.00     0.290 C
HETATM   25  O1  UNL     1      14.291 -20.412  44.905  1.00  0.00    -0.300 OA
ENDBRANCH  19  24
BRANCH  20  26
HETATM   26  N4  UNL     1      14.619 -23.232  44.592  1.00  0.00    -0.337 N
ATOM     27  H42 UNL     1      13.932 -22.592  44.989  1.00  0.00     0.177 HD
ATOM     28  H41 UNL     1      14.375 -24.223  44.581  1.00  0.00     0.177 HD
ENDBRANCH  20  26
ENDBRANCH   1  15
TORSDOF 8
ENDMDL