MODEL 4
REMARK VINA RESULT: -6.261504689      2.067      3.265
REMARK  9 active torsions:
REMARK  status: ('A' for Active; 'I' for Inactive)
REMARK    1  A    between atoms: N1_1  and  C1_4
REMARK    2  A    between atoms: C4_9  and  N3_10
REMARK    3  A    between atoms: N3_10  and  C5_12
REMARK    4  A    between atoms: C5_12  and  C6_13
REMARK    5  A    between atoms: C6_13  and  C7_14
REMARK    6  A    between atoms: C7_14  and  N4_15
REMARK    7  A    between atoms: C11_19  and  C12_20
REMARK    8  A    between atoms: C12_20  and  C13_21
REMARK    9  A    between atoms: C13_21  and  O1_22
ROOT
HETATM    1  N3  UNL     1      21.752 -20.639  44.151  1.00  0.00    -0.376 N
ATOM      2  H3  UNL     1      22.549 -20.338  44.713  1.00  0.00     0.161 HD
ENDROOT
BRANCH   1   3
HETATM    3  C4  UNL     1      20.718 -19.901  44.189  1.00  0.00     0.100 C
HETATM    4  N2  UNL     1      20.868 -18.589  44.475  1.00  0.00    -0.353 N
HETATM    5  C3  UNL     1      20.160 -17.536  44.038  1.00  0.00     0.092 C
ATOM      6  H2  UNL     1      21.630 -18.366  45.116  1.00  0.00     0.166 HD
HETATM    7  C2  UNL     1      18.890 -17.553  43.453  1.00  0.00     0.046 C
HETATM    8  C1  UNL     1      18.093 -18.641  43.162  1.00  0.00     0.027 C
HETATM    9  C16 UNL     1      18.327 -19.956  43.514  1.00  0.00     0.033 C
HETATM   10  C15 UNL     1      19.519 -20.566  43.923  1.00  0.00     0.050 C
BRANCH   8  11
HETATM   11  N1  UNL     1      17.044 -18.358  42.498  1.00  0.00    -0.399 N
ATOM     12  H12 UNL     1      16.132 -18.506  42.931  1.00  0.00     0.156 HD
ATOM     13  H11 UNL     1      17.225 -18.000  41.560  1.00  0.00     0.156 HD
ENDBRANCH   8  11
ENDBRANCH   1   3
BRANCH   1  14
HETATM   14  C5  UNL     1      21.917 -21.843  43.405  1.00  0.00     0.123 C
BRANCH  14  15
HETATM   15  C6  UNL     1      22.241 -21.628  41.960  1.00  0.00     0.040 C
BRANCH  15  16
HETATM   16  C7  UNL     1      21.118 -22.019  41.036  1.00  0.00     0.129 C
BRANCH  16  17
HETATM   17  N4  UNL     1      20.497 -20.832  40.481  1.00  0.00    -0.366 N
HETATM   18  C8  UNL     1      21.120 -19.626  40.530  1.00  0.00     0.090 A
HETATM   19  C9  UNL     1      20.541 -18.500  40.007  1.00  0.00     0.018 A
HETATM   20  C10 UNL     1      19.304 -18.582  39.419  1.00  0.00     0.010 A
HETATM   21  C11 UNL     1      18.649 -19.793  39.355  1.00  0.00    -0.041 A
HETATM   22  C14 UNL     1      19.273 -20.895  39.895  1.00  0.00     0.097 A
BRANCH  21  23
HETATM   23  C12 UNL     1      17.317 -19.822  38.709  1.00  0.00     0.066 C
BRANCH  23  24
HETATM   24  C13 UNL     1      16.612 -18.483  38.824  1.00  0.00     0.168 C
BRANCH  24  25
HETATM   25  O1  UNL     1      15.619 -18.581  39.794  1.00  0.00    -0.401 OA
ATOM     26  H1  UNL     1      15.279 -17.713  39.973  1.00  0.00     0.209 HD
ENDBRANCH  24  25
ENDBRANCH  23  24
ENDBRANCH  21  23
ENDBRANCH  16  17
ENDBRANCH  15  16
ENDBRANCH  14  15
ENDBRANCH   1  14
TORSDOF 9
ENDMDL