MODEL 1
REMARK VINA RESULT: -6.805775081      0.000      0.000
REMARK  6 active torsions:
REMARK  status: ('A' for Active; 'I' for Inactive)
REMARK    1  A    between atoms: N3_4  and  C2_6
REMARK    2  A    between atoms: C2_6  and  C3_7
REMARK    3  A    between atoms: C3_7  and  C4_8
REMARK    4  A    between atoms: C4_8  and  C5_9
REMARK    5  A    between atoms: C5_9  and  C6_10
REMARK    6  A    between atoms: C6_10  and  N4_11
ROOT
HETATM    1  N4  UNL     1      18.930 -19.975  39.690  1.00  0.00    -0.373 N
HETATM    2  C7  UNL     1      19.647 -19.053  38.923  1.00  0.00     0.063 C
HETATM    3  C8  UNL     1      20.590 -18.247  39.777  1.00  0.00     0.046 C
HETATM    4  C9  UNL     1      20.885 -18.781  41.108  1.00  0.00     0.018 C
HETATM    5  C10 UNL     1      20.464 -20.150  41.454  1.00  0.00     0.001 C
HETATM    6  C11 UNL     1      19.552 -20.183  42.676  1.00  0.00     0.134 C
HETATM    7  N5  UNL     1      20.463 -20.004  43.757  1.00  0.00    -0.360 N
ATOM      8  H5  UNL     1      20.233 -19.596  44.664  1.00  0.00     0.162 HD
HETATM    9  C12 UNL     1      21.739 -20.483  43.371  1.00  0.00     0.218 C
HETATM   10  O1  UNL     1      22.791 -20.500  44.060  1.00  0.00    -0.274 OA
HETATM   11  C13 UNL     1      21.647 -20.983  41.969  1.00  0.00     0.115 C
HETATM   12  C14 UNL     1      19.745 -20.914  40.371  1.00  0.00     0.138 C
ENDROOT
BRANCH   1  13
HETATM   13  C6  UNL     1      17.575 -20.145  39.632  1.00  0.00     0.063 C
BRANCH  13  14
HETATM   14  C5  UNL     1      16.638 -18.992  39.780  1.00  0.00     0.044 C
BRANCH  14  15
HETATM   15  C4  UNL     1      16.463 -18.527  41.180  1.00  0.00     0.007 C
BRANCH  15  16
HETATM   16  C3  UNL     1      15.004 -18.521  41.602  1.00  0.00     0.020 C
BRANCH  16  17
HETATM   17  C2  UNL     1      14.684 -19.745  42.424  1.00  0.00     0.122 C
BRANCH  17  18
HETATM   18  N3  UNL     1      15.807 -20.083  43.283  1.00  0.00    -0.367 N
HETATM   19  C1  UNL     1      15.554 -20.435  44.481  1.00  0.00     0.196 C
HETATM   20  N1  UNL     1      16.623 -20.772  45.347  1.00  0.00    -0.067 NA
HETATM   21  N2  UNL     1      14.230 -20.505  44.945  1.00  0.00    -0.067 NA
ATOM     22  H3  UNL     1      16.767 -20.040  42.937  1.00  0.00     0.161 HD
ENDBRANCH  17  18
ENDBRANCH  16  17
ENDBRANCH  15  16
ENDBRANCH  14  15
ENDBRANCH  13  14
ENDBRANCH   1  13
TORSDOF 6
ENDMDL