MODEL 4
REMARK VINA RESULT: -8.137602616      6.251     11.388
REMARK  14 active torsions:
REMARK  status: ('A' for Active; 'I' for Inactive)
REMARK    1  A    between atoms: C2_2  and  N1_3
REMARK    2  A    between atoms: C4_5  and  C5_6
REMARK    3  A    between atoms: C5_6  and  O1_7
REMARK    4  A    between atoms: C5_6  and  N2_9
REMARK    5  A    between atoms: N2_9  and  C6_11
REMARK    6  A    between atoms: C7_12  and  C8_13
REMARK    7  A    between atoms: C8_13  and  O2_14
REMARK    8  A    between atoms: C8_13  and  C9_16
REMARK    9  A    between atoms: C9_16  and  O3_17
REMARK   10  A    between atoms: C9_16  and  O4_19
REMARK   11  A    between atoms: C11_29  and  C12_30
REMARK   12  A    between atoms: C14_32  and  N7_33
REMARK   13  A    between atoms: N7_33  and  C15_35
REMARK   14  A    between atoms: C18_44  and  N11_45
ROOT
HETATM    1  N1  UNL     1     -17.663  35.143 -11.240  1.00  0.00    -0.316 N
HETATM    2  C3  UNL     1     -17.806  34.017 -10.437  1.00  0.00     0.127 A
HETATM    3  C4  UNL     1     -17.435  34.345  -9.170  1.00  0.00     0.075 A
HETATM    4  N6  UNL     1     -17.079  35.628  -9.204  1.00  0.00    -0.339 N
ATOM      5  H6  UNL     1     -16.751  36.164  -8.401  1.00  0.00     0.167 HD
HETATM    6  C11 UNL     1     -17.217  36.127 -10.485  1.00  0.00     0.139 A
ENDROOT
BRANCH   3   7
HETATM    7  C5  UNL     1     -17.418  33.431  -7.988  1.00  0.00     0.271 C
BRANCH   7   8
HETATM    8  O1  UNL     1     -17.308  32.116  -8.385  1.00  0.00    -0.371 OA
ATOM      9  H1  UNL     1     -17.431  32.034  -9.323  1.00  0.00     0.212 HD
ENDBRANCH   7   8
BRANCH   7  10
HETATM   10  N2  UNL     1     -18.517  33.690  -7.093  1.00  0.00    -0.354 N
ATOM     11  H2  UNL     1     -19.378  33.156  -7.217  1.00  0.00     0.162 HD
BRANCH  10  12
HETATM   12  C6  UNL     1     -18.464  34.646  -6.051  1.00  0.00     0.100 A
HETATM   13  C7  UNL     1     -17.921  34.557  -4.797  1.00  0.00     0.089 A
HETATM   14  N3  UNL     1     -18.105  35.764  -4.170  1.00  0.00    -0.298 N
HETATM   15  N4  UNL     1     -18.733  36.586  -4.977  1.00  0.00    -0.286 N
ATOM     16  H3  UNL     1     -17.801  35.988  -3.222  1.00  0.00     0.186 HD
HETATM   17  C10 UNL     1     -18.973  35.951  -6.133  1.00  0.00     0.159 A
ATOM     18  H4  UNL     1     -18.995  37.548  -4.761  1.00  0.00     0.188 HD
HETATM   19  N5  UNL     1     -19.625  36.440  -7.295  1.00  0.00    -0.079 NA
BRANCH  13  20
HETATM   20  C8  UNL     1     -17.264  33.397  -4.170  1.00  0.00     0.226 C
BRANCH  20  21
HETATM   21  O2  UNL     1     -17.497  32.241  -4.876  1.00  0.00    -0.384 OA
ATOM     22  H2  UNL     1     -16.740  31.987  -5.389  1.00  0.00     0.210 HD
ENDBRANCH  20  21
BRANCH  20  23
HETATM   23  C9  UNL     1     -15.752  33.606  -4.180  1.00  0.00     0.288 C
BRANCH  23  24
HETATM   24  O3  UNL     1     -15.432  34.751  -4.915  1.00  0.00    -0.368 OA
ATOM     25  H3  UNL     1     -15.554  34.587  -5.843  1.00  0.00     0.212 HD
ENDBRANCH  23  24
BRANCH  23  26
HETATM   26  O4  UNL     1     -15.088  32.529  -4.757  1.00  0.00    -0.368 OA
ATOM     27  H4  UNL     1     -15.529  31.708  -4.577  1.00  0.00     0.212 HD
ENDBRANCH  23  26
ENDBRANCH  20  23
ENDBRANCH  13  20
ENDBRANCH  10  12
ENDBRANCH   7  10
ENDBRANCH   3   7
BRANCH   1  28
HETATM   28  C2  UNL     1     -17.982  35.099 -12.615  1.00  0.00     0.088 C
HETATM   29  C1  UNL     1     -17.635  33.983 -13.284  1.00  0.00     0.030 C
ENDBRANCH   1  28
BRANCH   6  30
HETATM   30  C12 UNL     1     -16.890  37.509 -10.818  1.00  0.00     0.097 A
HETATM   31  C13 UNL     1     -17.963  38.386 -11.045  1.00  0.00     0.083 A
HETATM   32  C14 UNL     1     -17.760  39.703 -11.390  1.00  0.00     0.125 A
HETATM   33  N10 UNL     1     -16.492  40.130 -11.505  1.00  0.00    -0.177 N
HETATM   34  C18 UNL     1     -15.439  39.333 -11.298  1.00  0.00     0.678 A
ATOM     35  H10 UNL     1     -16.325  41.104 -11.759  1.00  0.00     0.185 HD
HETATM   36  N12 UNL     1     -15.688  38.036 -10.959  1.00  0.00    -0.188 N
ATOM     37  H12 UNL     1     -14.885  37.428 -10.801  1.00  0.00     0.184 HD
BRANCH  32  38
HETATM   38  N7  UNL     1     -18.753  40.501 -11.596  1.00  0.00    -0.314 N
ATOM     39  H7  UNL     1     -18.680  41.239 -12.296  1.00  0.00     0.170 HD
BRANCH  38  40
HETATM   40  C15 UNL     1     -19.949  40.347 -10.843  1.00  0.00     0.176 C
HETATM   41  N8  UNL     1     -20.031  40.731  -9.613  1.00  0.00    -0.361 N
HETATM   42  C16 UNL     1     -21.326  40.472  -9.070  1.00  0.00     0.142 C
ATOM     43  H8  UNL     1     -19.268  41.165  -9.094  1.00  0.00     0.162 HD
HETATM   44  C17 UNL     1     -22.169  40.169 -10.288  1.00  0.00     0.142 C
HETATM   45  N9  UNL     1     -21.180  39.783 -11.271  1.00  0.00    -0.361 N
ATOM     46  H9  UNL     1     -21.336  39.218 -12.105  1.00  0.00     0.162 HD
ENDBRANCH  38  40
ENDBRANCH  32  38
BRANCH  34  47
HETATM   47  N11 UNL     1     -14.237  39.772 -11.416  1.00  0.00    -0.234 N
ATOM     48 2H11 UNL     1     -14.051  40.730 -11.711  1.00  0.00     0.174 HD
ATOM     49 1H11 UNL     1     -13.434  39.175 -11.217  1.00  0.00     0.174 HD
ENDBRANCH  34  47
ENDBRANCH   6  30
TORSDOF 14
ENDMDL