MODEL 5
REMARK VINA RESULT: -6.107835785      1.576      2.457
REMARK  14 active torsions:
REMARK  status: ('A' for Active; 'I' for Inactive)
REMARK       I    between atoms: C2_2  and  N1_4
REMARK    1  A    between atoms: N1_4  and  C3_6
REMARK    2  A    between atoms: C4_7  and  O2_8
REMARK    3  A    between atoms: C5_10  and  N2_11
REMARK    4  A    between atoms: N2_11  and  C6_12
REMARK    5  A    between atoms: N2_11  and  C7_14
REMARK       I    between atoms: N3_15  and  C8_17
REMARK       I    between atoms: C8_17  and  N4_18
REMARK       I    between atoms: C8_17  and  N5_22
REMARK    6  A    between atoms: C10_27  and  O4_28
REMARK    7  A    between atoms: C11_30  and  N6_31
REMARK       I    between atoms: N6_31  and  C12_33
REMARK    8  A    between atoms: N7_36  and  C14_37
REMARK    9  A    between atoms: C14_37  and  O6_38
REMARK   10  A    between atoms: C14_37  and  C15_40
REMARK   11  A    between atoms: C15_40  and  N8_41
REMARK   12  A    between atoms: C15_40  and  C16_45
REMARK   13  A    between atoms: C16_45  and  O7_46
REMARK   14  A    between atoms: C18_49  and  O8_50
ROOT
HETATM    1  C3  UNL     1     -17.206  33.113  -6.483  1.00  0.00     0.106 A
HETATM    2  C4  UNL     1     -17.552  32.664  -7.718  1.00  0.00     0.124 A
HETATM    3  C5  UNL     1     -18.426  33.372  -8.539  1.00  0.00     0.093 A
HETATM    4  C9  UNL     1     -18.966  34.557  -8.111  1.00  0.00     0.061 A
HETATM    5  C10 UNL     1     -19.835  35.469  -8.679  1.00  0.00     0.125 A
HETATM    6  C11 UNL     1     -20.035  36.511  -7.774  1.00  0.00     0.147 A
HETATM    7  N7  UNL     1     -19.299  36.231  -6.682  1.00  0.00    -0.298 N
HETATM    8  C17 UNL     1     -18.635  35.064  -6.836  1.00  0.00     0.089 A
HETATM    9  C18 UNL     1     -17.769  34.325  -6.068  1.00  0.00     0.123 A
ENDROOT
BRANCH   3  10
HETATM   10  N2  UNL     1     -18.746  32.840  -9.823  1.00  0.00    -0.282 N
BRANCH  10  11
HETATM   11  C6  UNL     1     -19.880  32.025  -9.900  1.00  0.00     0.361 C
HETATM   12  O3  UNL     1     -21.052  32.481 -10.132  1.00  0.00    -0.283 OA
ENDBRANCH  10  11
BRANCH  10  13
HETATM   13  C7  UNL     1     -17.934  33.083 -10.955  1.00  0.00     0.189 C
HETATM   14  N3  UNL     1     -17.005  33.857 -11.102  1.00  0.00    -0.337 N
HETATM   15  C8  UNL     1     -16.193  34.823 -10.568  1.00  0.00     0.481 C
ATOM     16  H3  UNL     1     -16.686  33.727 -12.062  1.00  0.00     0.164 HD
HETATM   17  N4  UNL     1     -16.751  36.174 -10.536  1.00  0.00    -0.033 N
HETATM   18  N5  UNL     1     -14.990  34.957 -11.434  1.00  0.00    -0.033 N
ATOM     19  H43 UNL     1     -17.051  36.449 -11.472  1.00  0.00     0.278 HD
ATOM     20  H42 UNL     1     -17.650  36.168 -10.052  1.00  0.00     0.278 HD
ATOM     21  H41 UNL     1     -16.147  36.893 -10.139  1.00  0.00     0.278 HD
ATOM     22  H53 UNL     1     -14.506  34.071 -11.573  1.00  0.00     0.278 HD
ATOM     23  H52 UNL     1     -15.228  35.140 -12.408  1.00  0.00     0.278 HD
ATOM     24  H51 UNL     1     -14.386  35.677 -11.036  1.00  0.00     0.278 HD
ENDBRANCH  10  13
ENDBRANCH   3  10
BRANCH   2  25
HETATM   25  O2  UNL     1     -17.054  31.477  -8.227  1.00  0.00    -0.356 OA
ATOM     26  H2  UNL     1     -17.227  30.641  -7.808  1.00  0.00     0.218 HD
ENDBRANCH   2  25
BRANCH   1  27
HETATM   27  N1  UNL     1     -16.308  32.400  -5.625  1.00  0.00    -0.323 N
HETATM   28  C2  UNL     1     -14.931  32.308  -5.864  1.00  0.00     0.218 C
HETATM   29  C1  UNL     1     -14.059  31.551  -4.932  1.00  0.00     0.117 C
HETATM   30  O1  UNL     1     -14.390  32.852  -6.856  1.00  0.00    -0.274 OA
ATOM     31  H1  UNL     1     -16.690  31.936  -4.801  1.00  0.00     0.169 HD
ENDBRANCH   1  27
BRANCH   5  32
HETATM   32  O4  UNL     1     -20.393  35.381  -9.879  1.00  0.00    -0.356 OA
ATOM     33  H4  UNL     1     -21.285  35.619 -10.104  1.00  0.00     0.218 HD
ENDBRANCH   5  32
BRANCH   9  34
HETATM   34  O8  UNL     1     -17.398  34.762  -4.806  1.00  0.00    -0.356 OA
ATOM     35  H8  UNL     1     -17.649  35.652  -4.587  1.00  0.00     0.218 HD
ENDBRANCH   9  34
BRANCH   6  36
HETATM   36  N6  UNL     1     -20.834  37.674  -7.894  1.00  0.00    -0.311 N
HETATM   37  C12 UNL     1     -20.913  38.597  -8.931  1.00  0.00     0.219 C
HETATM   38  C13 UNL     1     -21.855  39.776  -8.791  1.00  0.00     0.117 C
HETATM   39  O5  UNL     1     -20.289  38.569  -9.983  1.00  0.00    -0.274 OA
ATOM     40  H6  UNL     1     -21.443  37.864  -7.098  1.00  0.00     0.170 HD
ENDBRANCH   6  36
BRANCH   7  41
HETATM   41  C14 UNL     1     -19.194  37.008  -5.483  1.00  0.00     0.259 C
BRANCH  41  42
HETATM   42  O6  UNL     1     -19.205  38.380  -5.832  1.00  0.00    -0.374 OA
ATOM     43  H6  UNL     1     -18.312  38.703  -5.821  1.00  0.00     0.212 HD
ENDBRANCH  41  42
BRANCH  41  44
HETATM   44  C15 UNL     1     -20.328  36.754  -4.526  1.00  0.00     0.255 C
BRANCH  44  45
HETATM   45  N8  UNL     1     -21.331  37.809  -4.595  1.00  0.00    -0.069 N
ATOM     46  H83 UNL     1     -21.195  38.401  -5.415  1.00  0.00     0.275 HD
ATOM     47  H82 UNL     1     -22.252  37.434  -4.822  1.00  0.00     0.275 HD
ATOM     48  H81 UNL     1     -21.353  38.360  -3.737  1.00  0.00     0.275 HD
ENDBRANCH  44  45
BRANCH  44  49
HETATM   49  C16 UNL     1     -19.886  36.644  -3.080  1.00  0.00     0.201 C
BRANCH  49  50
HETATM   50  O7  UNL     1     -18.528  36.394  -2.984  1.00  0.00    -0.399 OA
ATOM     51  H7  UNL     1     -18.305  35.546  -3.351  1.00  0.00     0.209 HD
ENDBRANCH  49  50
ENDBRANCH  44  49
ENDBRANCH  41  44
ENDBRANCH   7  41
TORSDOF 14
ENDMDL