MODEL 2
REMARK VINA RESULT: -7.564117559      2.352      4.023
REMARK  16 active torsions:
REMARK  status: ('A' for Active; 'I' for Inactive)
REMARK    1  A    between atoms: N1_1  and  C1_4
REMARK    2  A    between atoms: C2_7  and  C3_8
REMARK    3  A    between atoms: C3_8  and  O1_9
REMARK    4  A    between atoms: C3_8  and  N3_11
REMARK    5  A    between atoms: N3_11  and  N4_12
REMARK    6  A    between atoms: C4_15  and  N5_16
REMARK    7  A    between atoms: C5_18  and  C6_19
REMARK    8  A    between atoms: C6_19  and  O2_20
REMARK    9  A    between atoms: C6_19  and  N6_22
REMARK   10  A    between atoms: N6_22  and  C7_24
REMARK   11  A    between atoms: C11_29  and  C12_30
REMARK   12  A    between atoms: C12_30  and  O4_31
REMARK   13  A    between atoms: C12_30  and  O5_33
REMARK   14  A    between atoms: C13_35  and  C14_36
REMARK   15  A    between atoms: C14_36  and  O6_37
REMARK   16  A    between atoms: C14_36  and  C15_39
ROOT
HETATM    1  N6  UNL     1     -14.448  33.999  -4.153  1.00  0.00    -0.345 N
ATOM      2  H6  UNL     1     -14.517  34.951  -3.794  1.00  0.00     0.164 HD
ENDROOT
BRANCH   1   3
HETATM    3  C6  UNL     1     -15.400  33.541  -5.152  1.00  0.00     0.259 C
BRANCH   3   4
HETATM    4  C5  UNL     1     -16.575  32.980  -4.466  1.00  0.00     0.114 C
HETATM    5  N5  UNL     1     -17.809  33.252  -4.766  1.00  0.00    -0.358 N
ATOM      6  H5  UNL     1     -18.574  32.821  -4.247  1.00  0.00     0.165 HD
BRANCH   5   7
HETATM    7  C4  UNL     1     -18.087  34.176  -5.846  1.00  0.00     0.110 A
HETATM    8  C2  UNL     1     -18.584  35.435  -5.832  1.00  0.00     0.136 A
HETATM    9  N2  UNL     1     -18.773  36.040  -6.971  1.00  0.00    -0.330 N
HETATM   10  C1  UNL     1     -18.468  35.395  -8.113  1.00  0.00     0.144 A
ATOM     11  H2  UNL     1     -19.147  36.988  -6.996  1.00  0.00     0.168 HD
HETATM   12  S1  UNL     1     -17.898  33.887  -7.535  1.00  0.00    -0.034 SA
BRANCH   8  13
HETATM   13  C3  UNL     1     -18.929  36.070  -4.474  1.00  0.00     0.267 C
BRANCH  13  14
HETATM   14  O1  UNL     1     -18.023  35.782  -3.578  1.00  0.00    -0.332 OA
ATOM     15  H1  UNL     1     -17.533  36.556  -3.327  1.00  0.00     0.220 HD
ENDBRANCH  13  14
BRANCH  13  16
HETATM   16  N3  UNL     1     -19.998  36.792  -4.280  1.00  0.00    -0.304 NA
BRANCH  16  17
HETATM   17  N4  UNL     1     -21.118  37.520  -4.056  1.00  0.00    -0.278 N
ATOM     18  H42 UNL     1     -21.031  36.600  -4.489  1.00  0.00     0.191 HD
ATOM     19  H41 UNL     1     -21.948  38.086  -3.876  1.00  0.00     0.191 HD
ENDBRANCH  16  17
ENDBRANCH  13  16
ENDBRANCH   8  13
BRANCH  10  20
HETATM   20  N1  UNL     1     -18.576  35.823  -9.325  1.00  0.00    -0.380 N
ATOM     21  H12 UNL     1     -17.962  35.672 -10.125  1.00  0.00     0.158 HD
ATOM     22  H11 UNL     1     -19.307  36.413  -9.723  1.00  0.00     0.158 HD
ENDBRANCH  10  20
ENDBRANCH   5   7
ENDBRANCH   3   4
BRANCH   3  23
HETATM   23  O2  UNL     1     -14.823  32.631  -6.040  1.00  0.00    -0.372 OA
ATOM     24  H2  UNL     1     -14.467  33.058  -6.810  1.00  0.00     0.212 HD
ENDBRANCH   3  23
ENDBRANCH   1   3
BRANCH   1  25
HETATM   25  C7  UNL     1     -13.422  33.141  -3.669  1.00  0.00     0.117 A
HETATM   26  C8  UNL     1     -12.603  33.696  -2.791  1.00  0.00     0.052 A
HETATM   27  C9  UNL     1     -11.459  33.110  -2.109  1.00  0.00     0.043 A
HETATM   28  C10 UNL     1     -10.991  31.866  -2.241  1.00  0.00     0.104 A
HETATM   29  O3  UNL     1      -9.954  31.399  -1.600  1.00  0.00    -0.307 OA
HETATM   30  C16 UNL     1     -11.472  30.851  -3.045  1.00  0.00     0.094 A
HETATM   31  C11 UNL     1      -9.729  30.124  -1.945  1.00  0.00     0.119 A
HETATM   32  C13 UNL     1     -10.655  29.720  -2.854  1.00  0.00     0.046 A
HETATM   33  N7  UNL     1     -12.456  30.796  -3.852  1.00  0.00    -0.296 N
HETATM   34  N8  UNL     1     -13.378  31.814  -4.168  1.00  0.00    -0.285 N
ATOM     35  H7  UNL     1     -12.594  29.905  -4.329  1.00  0.00     0.187 HD
ATOM     36  H8  UNL     1     -14.104  31.566  -4.840  1.00  0.00     0.188 HD
BRANCH  31  37
HETATM   37  C12 UNL     1      -8.596  29.355  -1.355  1.00  0.00     0.313 C
BRANCH  37  38
HETATM   38  O4  UNL     1      -8.002  30.071  -0.303  1.00  0.00    -0.365 OA
ATOM     39  H4  UNL     1      -7.405  30.730  -0.637  1.00  0.00     0.213 HD
ENDBRANCH  37  38
BRANCH  37  40
HETATM   40  O5  UNL     1      -7.636  29.246  -2.379  1.00  0.00    -0.365 OA
ATOM     41  H5  UNL     1      -6.800  29.428  -1.968  1.00  0.00     0.213 HD
ENDBRANCH  37  40
ENDBRANCH  31  37
BRANCH  32  42
HETATM   42  C14 UNL     1     -10.850  28.414  -3.529  1.00  0.00     0.257 C
BRANCH  42  43
HETATM   43  O6  UNL     1      -9.617  27.777  -3.779  1.00  0.00    -0.380 OA
ATOM     44  H6  UNL     1      -9.299  27.323  -3.007  1.00  0.00     0.211 HD
ENDBRANCH  42  43
BRANCH  42  45
HETATM   45  C15 UNL     1     -11.790  27.509  -2.857  1.00  0.00     0.207 C
HETATM   46  O7  UNL     1     -11.411  26.660  -2.029  1.00  0.00    -0.646 OA
HETATM   47  O8  UNL     1     -13.140  27.597  -3.143  1.00  0.00    -0.646 OA
ENDBRANCH  42  45
ENDBRANCH  32  42
ENDBRANCH   1  25
TORSDOF 16
ENDMDL