MODEL 5
REMARK VINA RESULT: -6.631116243      2.889      3.704
REMARK  15 active torsions:
REMARK  status: ('A' for Active; 'I' for Inactive)
REMARK    1  A    between atoms: N1_1  and  C1_4
REMARK    2  A    between atoms: C3_9  and  N4_10
REMARK    3  A    between atoms: C4_15  and  N6_16
REMARK    4  A    between atoms: C7_21  and  N8_22
REMARK    5  A    between atoms: C8_27  and  N10_28
REMARK    6  A    between atoms: C10_35  and  N12_36
REMARK    7  A    between atoms: N12_36  and  C11_38
REMARK    8  A    between atoms: C11_38  and  C12_39
REMARK    9  A    between atoms: C12_39  and  C13_40
REMARK   10  A    between atoms: C13_40  and  C14_41
REMARK   11  A    between atoms: C14_41  and  C15_42
REMARK   12  A    between atoms: C15_42  and  C16_43
REMARK   13  A    between atoms: C16_43  and  O1_44
REMARK   14  A    between atoms: N13_46  and  N14_48
REMARK   15  A    between atoms: N14_48  and  N15_50
ROOT
HETATM    1  C1  UNL     1     -17.079  34.155  -6.076  1.00  0.00     0.691 A
HETATM    2  N2  UNL     1     -17.394  34.296  -7.376  1.00  0.00    -0.176 N
ATOM      3  H2  UNL     1     -16.771  33.889  -8.073  1.00  0.00     0.185 HD
HETATM    4  C2  UNL     1     -18.510  34.960  -7.809  1.00  0.00     0.151 A
HETATM    5  N3  UNL     1     -19.327  35.494  -6.965  1.00  0.00    -0.137 N
HETATM    6  C3  UNL     1     -19.019  35.359  -5.619  1.00  0.00     0.696 A
HETATM    7  N5  UNL     1     -17.947  34.722  -5.176  1.00  0.00    -0.022 N
ATOM      8  H5  UNL     1     -17.767  34.652  -4.174  1.00  0.00     0.203 HD
HETATM    9  C4  UNL     1     -20.495  36.177  -7.479  1.00  0.00     0.284 C
HETATM   10  S1  UNL     1     -19.943  36.535  -9.175  1.00  0.00    -0.088 SA
HETATM   11  C10 UNL     1     -18.835  35.099  -9.268  1.00  0.00     0.218 C
ENDROOT
BRANCH   9  12
HETATM   12  N6  UNL     1     -20.858  37.367  -6.774  1.00  0.00    -0.294 N
HETATM   13  C5  UNL     1     -20.208  38.507  -6.541  1.00  0.00     0.188 A
HETATM   14  N7  UNL     1     -20.960  39.368  -5.825  1.00  0.00    -0.346 N
HETATM   15  C6  UNL     1     -22.134  38.768  -5.587  1.00  0.00     0.123 A
ATOM     16  H7  UNL     1     -20.686  40.303  -5.522  1.00  0.00     0.167 HD
HETATM   17  C7  UNL     1     -23.260  39.184  -4.910  1.00  0.00     0.145 A
HETATM   18  C9  UNL     1     -22.076  37.527  -6.173  1.00  0.00     0.157 A
HETATM   19  N9  UNL     1     -24.317  38.358  -4.824  1.00  0.00    -0.175 N
HETATM   20  C8  UNL     1     -24.270  37.144  -5.392  1.00  0.00     0.679 A
ATOM     21  H9  UNL     1     -25.156  38.655  -4.326  1.00  0.00     0.186 HD
HETATM   22  N11 UNL     1     -23.155  36.732  -6.062  1.00  0.00    -0.174 N
ATOM     23  H11 UNL     1     -23.140  35.805  -6.487  1.00  0.00     0.186 HD
BRANCH  17  24
HETATM   24  N8  UNL     1     -23.312  40.372  -4.351  1.00  0.00    -0.383 N
ATOM     25  H82 UNL     1     -22.473  40.771  -3.929  1.00  0.00     0.157 HD
ATOM     26  H81 UNL     1     -24.182  40.905  -4.332  1.00  0.00     0.157 HD
ENDBRANCH  17  24
BRANCH  20  27
HETATM   27  N10 UNL     1     -25.273  36.344  -5.317  1.00  0.00    -0.234 N
ATOM     28 2H10 UNL     1     -26.163  36.638  -5.719  1.00  0.00     0.174 HD
ATOM     29 1H10 UNL     1     -25.180  35.434  -4.866  1.00  0.00     0.174 HD
ENDBRANCH  20  27
ENDBRANCH   9  12
BRANCH   6  30
HETATM   30  N4  UNL     1     -19.807  35.865  -4.737  1.00  0.00    -0.234 N
ATOM     31  H42 UNL     1     -20.659  35.347  -4.521  1.00  0.00     0.174 HD
ATOM     32  H41 UNL     1     -19.563  36.752  -4.297  1.00  0.00     0.174 HD
ENDBRANCH   6  30
BRANCH  11  33
HETATM   33  N12 UNL     1     -17.667  35.346 -10.053  1.00  0.00    -0.358 N
ATOM     34  H12 UNL     1     -17.108  34.534 -10.316  1.00  0.00     0.162 HD
BRANCH  33  35
HETATM   35  C11 UNL     1     -17.216  36.593 -10.495  1.00  0.00     0.094 C
HETATM   36  N13 UNL     1     -15.980  36.873 -10.735  1.00  0.00    -0.275 N
ATOM     37  H13 UNL     1     -15.760  37.817 -11.053  1.00  0.00     0.189 HD
BRANCH  35  38
HETATM   38  C12 UNL     1     -18.222  37.669 -10.702  1.00  0.00     0.077 C
BRANCH  38  39
HETATM   39  C13 UNL     1     -17.699  38.724 -11.694  1.00  0.00     0.007 C
BRANCH  39  40
HETATM   40  C14 UNL     1     -17.682  40.018 -10.914  1.00  0.00     0.002 C
BRANCH  40  41
HETATM   41  C15 UNL     1     -16.358  40.713 -10.996  1.00  0.00     0.026 C
BRANCH  41  42
HETATM   42  C16 UNL     1     -15.402  39.864 -11.794  1.00  0.00     0.164 C
BRANCH  42  43
HETATM   43  O1  UNL     1     -14.437  39.350 -10.928  1.00  0.00    -0.401 OA
ATOM     44  H1  UNL     1     -14.875  39.007 -10.158  1.00  0.00     0.209 HD
ENDBRANCH  42  43
ENDBRANCH  41  42
ENDBRANCH  40  41
ENDBRANCH  39  40
ENDBRANCH  38  39
ENDBRANCH  35  38
BRANCH  36  45
HETATM   45  N14 UNL     1     -14.929  35.979 -10.590  1.00  0.00    -0.248 N
ATOM     46  H14 UNL     1     -15.161  35.018 -10.336  1.00  0.00     0.207 HD
BRANCH  45  47
HETATM   47  N15 UNL     1     -13.589  36.286 -10.763  1.00  0.00    -0.331 N
ATOM     48 2H15 UNL     1     -13.291  36.490 -11.718  1.00  0.00     0.178 HD
ATOM     49 1H15 UNL     1     -12.893  36.322 -10.019  1.00  0.00     0.178 HD
ENDBRANCH  45  47
ENDBRANCH  36  45
ENDBRANCH  33  35
ENDBRANCH  11  33
BRANCH   1  50
HETATM   50  N1  UNL     1     -16.089  33.567  -5.682  1.00  0.00    -0.234 N
ATOM     51  H12 UNL     1     -15.220  33.615  -6.214  1.00  0.00     0.174 HD
ATOM     52  H11 UNL     1     -16.065  33.010  -4.827  1.00  0.00     0.174 HD
ENDBRANCH   1  50
TORSDOF 15
ENDMDL