MODEL 1
REMARK VINA RESULT: -8.097751615      0.000      0.000
REMARK  12 active torsions:
REMARK  status: ('A' for Active; 'I' for Inactive)
REMARK    1  A    between atoms: C4_9  and  N3_10
REMARK    2  A    between atoms: N3_10  and  C5_12
REMARK    3  A    between atoms: C5_12  and  C6_13
REMARK    4  A    between atoms: C5_12  and  C7_16
REMARK    5  A    between atoms: C6_13  and  O1_14
REMARK    6  A    between atoms: N9_31  and  C11_32
REMARK    7  A    between atoms: C11_32  and  C12_33
REMARK    8  A    between atoms: C12_33  and  O2_34
REMARK    9  A    between atoms: C12_33  and  C13_36
REMARK   10  A    between atoms: C13_36  and  O3_37
REMARK   11  A    between atoms: C14_39  and  N10_40
REMARK   12  A    between atoms: N10_40  and  C15_42
ROOT
HETATM    1  C5  UNL     1     -19.664  36.702  -8.803  1.00  0.00     0.158 C
ENDROOT
BRANCH   1   2
HETATM    2  N3  UNL     1     -19.300  38.041  -9.081  1.00  0.00    -0.372 N
ATOM      3  H3  UNL     1     -19.657  38.705  -8.394  1.00  0.00     0.160 HD
BRANCH   2   4
HETATM    4  C4  UNL     1     -18.557  38.646 -10.094  1.00  0.00     0.117 A
HETATM    5  C3  UNL     1     -18.829  39.975 -10.434  1.00  0.00     0.131 A
HETATM    6  N1  UNL     1     -18.154  40.607 -11.437  1.00  0.00    -0.331 N
HETATM    7  N2  UNL     1     -19.678  40.712  -9.813  1.00  0.00    -0.383 N
HETATM    8  C2  UNL     1     -17.198  40.000 -12.146  1.00  0.00     0.080 A
ATOM      9  H1  UNL     1     -18.386  41.577 -11.652  1.00  0.00     0.168 HD
HETATM   10  C1  UNL     1     -16.477  40.733 -13.251  1.00  0.00     0.089 C
HETATM   11  N13 UNL     1     -16.913  38.741 -11.847  1.00  0.00    -0.330 N
HETATM   12  C14 UNL     1     -17.568  38.061 -10.844  1.00  0.00     0.139 A
ATOM     13  H13 UNL     1     -16.186  38.261 -12.376  1.00  0.00     0.168 HD
ATOM     14  H22 UNL     1     -19.876  41.682 -10.061  1.00  0.00     0.157 HD
ATOM     15  H21 UNL     1     -20.183  40.240  -9.063  1.00  0.00     0.157 HD
BRANCH  12  16
HETATM   16  N10 UNL     1     -17.154  36.726 -10.589  1.00  0.00    -0.327 N
ATOM     17  H10 UNL     1     -16.694  36.484  -9.712  1.00  0.00     0.169 HD
BRANCH  16  18
HETATM   18  C15 UNL     1     -17.370  35.829 -11.483  1.00  0.00     0.108 A
HETATM   19  C16 UNL     1     -16.704  34.601 -11.391  1.00  0.00     0.075 A
HETATM   20  C17 UNL     1     -16.887  33.596 -12.309  1.00  0.00     0.051 A
HETATM   21  N11 UNL     1     -16.195  32.339 -12.207  1.00  0.00    -0.102 NA
HETATM   22  C18 UNL     1     -17.766  33.814 -13.363  1.00  0.00     0.043 A
HETATM   23  C19 UNL     1     -18.405  35.031 -13.427  1.00  0.00     0.091 A
HETATM   24  N12 UNL     1     -18.210  36.004 -12.514  1.00  0.00    -0.352 N
ATOM     25  H12 UNL     1     -18.709  36.889 -12.609  1.00  0.00     0.166 HD
ENDBRANCH  16  18
ENDBRANCH  12  16
ENDBRANCH   2   4
ENDBRANCH   1   2
BRANCH   1  26
HETATM   26  C6  UNL     1     -21.172  36.464  -8.880  1.00  0.00     0.195 C
BRANCH  26  27
HETATM   27  O1  UNL     1     -21.776  37.451  -8.098  1.00  0.00    -0.398 OA
ATOM     28  H1  UNL     1     -22.590  37.682  -8.530  1.00  0.00     0.209 HD
ENDBRANCH  26  27
ENDBRANCH   1  26
BRANCH   1  29
HETATM   29  C7  UNL     1     -19.220  36.072  -7.567  1.00  0.00     0.083 A
HETATM   30  N4  UNL     1     -19.420  36.660  -6.363  1.00  0.00    -0.191 N
HETATM   31  C8  UNL     1     -18.955  36.103  -5.203  1.00  0.00     0.677 A
ATOM     32  H4  UNL     1     -19.931  37.541  -6.320  1.00  0.00     0.184 HD
HETATM   33  N5  UNL     1     -19.157  36.681  -4.067  1.00  0.00    -0.234 N
HETATM   34  N6  UNL     1     -18.278  34.949  -5.185  1.00  0.00    -0.173 N
ATOM     35  H52 UNL     1     -19.673  37.561  -4.080  1.00  0.00     0.174 HD
ATOM     36  H51 UNL     1     -18.810  36.265  -3.202  1.00  0.00     0.174 HD
HETATM   37  C9  UNL     1     -18.056  34.329  -6.350  1.00  0.00     0.169 A
ATOM     38  H6  UNL     1     -17.941  34.553  -4.308  1.00  0.00     0.186 HD
HETATM   39  C10 UNL     1     -18.522  34.887  -7.515  1.00  0.00     0.120 A
HETATM   40  N9  UNL     1     -17.419  33.144  -6.597  1.00  0.00    -0.257 N
HETATM   41  N7  UNL     1     -18.146  34.001  -8.468  1.00  0.00    -0.281 N
HETATM   42  N8  UNL     1     -17.492  32.977  -7.889  1.00  0.00    -0.238 N
ATOM     43  H7  UNL     1     -18.330  34.095  -9.468  1.00  0.00     0.188 HD
ATOM     44  H8  UNL     1     -17.105  32.178  -8.392  1.00  0.00     0.208 HD
BRANCH  40  45
HETATM   45  C11 UNL     1     -16.792  32.287  -5.650  1.00  0.00     0.186 C
BRANCH  45  46
HETATM   46  C12 UNL     1     -15.320  32.447  -5.506  1.00  0.00     0.161 C
BRANCH  46  47
HETATM   47  O2  UNL     1     -14.679  32.785  -6.689  1.00  0.00    -0.392 OA
ATOM     48  H2  UNL     1     -13.772  33.038  -6.572  1.00  0.00     0.210 HD
ENDBRANCH  46  47
BRANCH  46  49
HETATM   49  C13 UNL     1     -14.891  33.358  -4.387  1.00  0.00     0.197 C
BRANCH  49  50
HETATM   50  O3  UNL     1     -15.188  34.689  -4.584  1.00  0.00    -0.398 OA
ATOM     51  H3  UNL     1     -14.567  35.295  -4.197  1.00  0.00     0.209 HD
ENDBRANCH  49  50
ENDBRANCH  46  49
ENDBRANCH  45  46
ENDBRANCH  40  45
ENDBRANCH   1  29
TORSDOF 12
ENDMDL