MODEL 5
REMARK VINA RESULT: -6.642071682      3.105      6.967
REMARK  16 active torsions:
REMARK  status: ('A' for Active; 'I' for Inactive)
REMARK    1  A    between atoms: N1_2  and  C3_5
REMARK    2  A    between atoms: C4_6  and  O1_7
REMARK    3  A    between atoms: C5_9  and  C6_10
REMARK    4  A    between atoms: C6_10  and  O2_11
REMARK    5  A    between atoms: C6_10  and  O3_13
REMARK    6  A    between atoms: C7_17  and  N4_18
REMARK    7  A    between atoms: N4_18  and  C8_19
REMARK    8  A    between atoms: N4_18  and  C15_40
REMARK    9  A    between atoms: C8_19  and  C9_20
REMARK   10  A    between atoms: C12_27  and  N7_28
REMARK   11  A    between atoms: C13_33  and  N9_34
REMARK   12  A    between atoms: C15_40  and  C16_41
REMARK   13  A    between atoms: C16_41  and  O4_42
REMARK   14  A    between atoms: C16_41  and  C17_44
REMARK   15  A    between atoms: C17_44  and  O5_45
REMARK   16  A    between atoms: C18_47  and  O6_48
ROOT
HETATM    1  C1  UNL     1     -16.274  35.172 -10.311  1.00  0.00     0.169 C
HETATM    2  N1  UNL     1     -17.341  34.378  -9.710  1.00  0.00    -0.284 N
HETATM    3  C2  UNL     1     -17.826  33.281 -10.435  1.00  0.00     0.184 C
HETATM    4  N2  UNL     1     -18.225  32.361 -11.023  1.00  0.00    -0.172 NA
ENDROOT
BRANCH   2   5
HETATM    5  C3  UNL     1     -17.876  34.711  -8.413  1.00  0.00     0.116 A
HETATM    6  C4  UNL     1     -17.295  34.212  -7.281  1.00  0.00     0.124 A
HETATM    7  C5  UNL     1     -17.849  34.566  -6.068  1.00  0.00     0.102 A
HETATM    8  N3  UNL     1     -18.914  35.364  -5.992  1.00  0.00    -0.337 N
HETATM    9  C7  UNL     1     -19.542  35.895  -7.091  1.00  0.00     0.140 A
ATOM     10  H3  UNL     1     -19.282  35.592  -5.069  1.00  0.00     0.167 HD
HETATM   11  C18 UNL     1     -18.980  35.537  -8.295  1.00  0.00     0.140 A
BRANCH   6  12
HETATM   12  O1  UNL     1     -16.187  33.383  -7.378  1.00  0.00    -0.356 OA
ATOM     13  H1  UNL     1     -15.788  33.030  -6.591  1.00  0.00     0.218 HD
ENDBRANCH   6  12
BRANCH   7  14
HETATM   14  C6  UNL     1     -17.220  34.026  -4.810  1.00  0.00     0.308 C
BRANCH  14  15
HETATM   15  O2  UNL     1     -15.915  34.525  -4.747  1.00  0.00    -0.366 OA
ATOM     16  H2  UNL     1     -15.575  34.323  -3.883  1.00  0.00     0.213 HD
ENDBRANCH  14  15
BRANCH  14  17
HETATM   17  O3  UNL     1     -17.215  32.630  -4.866  1.00  0.00    -0.366 OA
ATOM     18  H3  UNL     1     -17.690  32.287  -4.118  1.00  0.00     0.213 HD
ENDBRANCH  14  17
ENDBRANCH   7  14
BRANCH   9  19
HETATM   19  N4  UNL     1     -20.678  36.706  -6.908  1.00  0.00    -0.357 N
BRANCH  19  20
HETATM   20  C8  UNL     1     -22.031  36.303  -6.813  1.00  0.00     0.183 C
BRANCH  20  21
HETATM   21  C9  UNL     1     -22.448  35.062  -7.452  1.00  0.00     0.043 A
HETATM   22  C10 UNL     1     -23.366  34.211  -6.849  1.00  0.00     0.116 A
HETATM   23  N5  UNL     1     -23.796  33.072  -7.390  1.00  0.00    -0.348 N
HETATM   24  C11 UNL     1     -23.324  32.708  -8.591  1.00  0.00     0.151 A
ATOM     25  H5  UNL     1     -24.472  32.486  -6.899  1.00  0.00     0.167 HD
HETATM   26  N6  UNL     1     -23.747  31.558  -9.158  1.00  0.00    -0.174 N
HETATM   27  C14 UNL     1     -22.411  33.526  -9.223  1.00  0.00     0.122 A
HETATM   28  C12 UNL     1     -23.286  31.181 -10.359  1.00  0.00     0.679 A
ATOM     29  H6  UNL     1     -24.423  30.971  -8.668  1.00  0.00     0.186 HD
HETATM   30  N8  UNL     1     -22.384  31.952 -11.024  1.00  0.00    -0.175 N
HETATM   31  C13 UNL     1     -21.962  33.095 -10.462  1.00  0.00     0.145 A
ATOM     32  H8  UNL     1     -22.033  31.664 -11.937  1.00  0.00     0.186 HD
HETATM   33  N10 UNL     1     -21.985  34.672  -8.666  1.00  0.00    -0.351 N
ATOM     34  H10 UNL     1     -21.308  35.254  -9.159  1.00  0.00     0.166 HD
BRANCH  28  35
HETATM   35  N7  UNL     1     -23.681  30.090 -10.907  1.00  0.00    -0.234 N
ATOM     36  H72 UNL     1     -23.523  29.961 -11.907  1.00  0.00     0.174 HD
ATOM     37  H71 UNL     1     -24.145  29.364 -10.360  1.00  0.00     0.174 HD
ENDBRANCH  28  35
BRANCH  31  38
HETATM   38  N9  UNL     1     -21.113  33.821 -11.089  1.00  0.00    -0.383 N
ATOM     39  H92 UNL     1     -20.348  33.358 -11.580  1.00  0.00     0.157 HD
ATOM     40  H91 UNL     1     -21.225  34.835 -11.081  1.00  0.00     0.157 HD
ENDBRANCH  31  38
ENDBRANCH  20  21
ENDBRANCH  19  20
BRANCH  19  41
HETATM   41  C15 UNL     1     -20.407  38.152  -6.808  1.00  0.00     0.158 C
BRANCH  41  42
HETATM   42  C16 UNL     1     -21.410  38.846  -5.935  1.00  0.00     0.159 C
BRANCH  42  43
HETATM   43  O4  UNL     1     -21.201  38.650  -4.585  1.00  0.00    -0.392 OA
ATOM     44  H4  UNL     1     -21.584  39.325  -4.038  1.00  0.00     0.210 HD
ENDBRANCH  42  43
BRANCH  42  45
HETATM   45  C17 UNL     1     -21.319  40.332  -6.241  1.00  0.00     0.197 C
BRANCH  45  46
HETATM   46  O5  UNL     1     -20.110  40.794  -5.727  1.00  0.00    -0.398 OA
ATOM     47  H5  UNL     1     -19.811  41.501  -6.287  1.00  0.00     0.209 HD
ENDBRANCH  45  46
ENDBRANCH  42  45
ENDBRANCH  41  42
ENDBRANCH  19  41
ENDBRANCH   9  19
BRANCH  11  48
HETATM   48  O6  UNL     1     -19.530  36.020  -9.452  1.00  0.00    -0.355 OA
ATOM     49  H6  UNL     1     -20.402  36.394  -9.398  1.00  0.00     0.218 HD
ENDBRANCH  11  48
ENDBRANCH   2   5
TORSDOF 16
ENDMDL