MODEL 5
REMARK VINA RESULT: -9.592841908      1.817      2.376
REMARK  14 active torsions:
REMARK  status: ('A' for Active; 'I' for Inactive)
REMARK    1  A    between atoms: C2_2  and  N1_4
REMARK    2  A    between atoms: N1_4  and  O1_5
REMARK    3  A    between atoms: N1_4  and  C4_7
REMARK    4  A    between atoms: C4_7  and  O2_8
REMARK    5  A    between atoms: C4_7  and  C5_10
REMARK    6  A    between atoms: C8_15  and  N3_16
REMARK    7  A    between atoms: N3_16  and  C9_18
REMARK    8  A    between atoms: C9_18  and  O3_19
REMARK    9  A    between atoms: C9_18  and  N4_21
REMARK       I    between atoms: N4_21  and  C10_23
REMARK       I    between atoms: C10_23  and  N5_25
REMARK   10  A    between atoms: N5_25  and  S1_27
REMARK   11  A    between atoms: S1_27  and  O7_30
REMARK   12  A    between atoms: O7_30  and  C11_31
REMARK   13  A    between atoms: C12_34  and  N7_35
REMARK   14  A    between atoms: C13_40  and  N9_41
ROOT
HETATM    1  N4  UNL     1     -14.927  32.880  -5.361  1.00  0.00    -0.299 N
ATOM      2  H4  UNL     1     -14.526  33.262  -6.218  1.00  0.00     0.168 HD
HETATM    3  C10 UNL     1     -16.170  33.366  -4.885  1.00  0.00     0.334 C
HETATM    4  O4  UNL     1     -16.652  32.889  -3.836  1.00  0.00    -0.246 OA
HETATM    5  N5  UNL     1     -16.847  34.381  -5.604  1.00  0.00    -0.213 N
ATOM      6  H5  UNL     1     -16.448  34.762  -6.462  1.00  0.00     0.185 HD
ENDROOT
BRANCH   1   7
HETATM    7  C9  UNL     1     -14.214  31.831  -4.629  1.00  0.00     0.330 C
BRANCH   7   8
HETATM    8  N3  UNL     1     -12.797  32.074  -4.685  1.00  0.00    -0.346 N
ATOM      9  H3  UNL     1     -12.413  32.498  -5.530  1.00  0.00     0.164 HD
BRANCH   8  10
HETATM   10  C8  UNL     1     -11.902  31.753  -3.625  1.00  0.00     0.047 A
HETATM   11  C7  UNL     1     -11.825  32.561  -2.505  1.00  0.00     0.116 A
HETATM   12  N2  UNL     1     -11.001  32.323  -1.466  1.00  0.00    -0.372 N
HETATM   13  C6  UNL     1     -10.192  31.250  -1.481  1.00  0.00     0.099 A
ATOM     14  H2  UNL     1     -10.992  32.956  -0.668  1.00  0.00     0.164 HD
HETATM   15  C5  UNL     1     -10.240  30.421  -2.582  1.00  0.00     0.009 A
HETATM   16  C14 UNL     1     -11.074  30.643  -3.658  1.00  0.00     0.043 A
BRANCH  15  17
HETATM   17  C4  UNL     1      -9.356  29.202  -2.637  1.00  0.00     0.277 C
BRANCH  17  18
HETATM   18  N1  UNL     1      -7.998  29.451  -2.332  1.00  0.00    -0.259 N
BRANCH  18  19
HETATM   19  C2  UNL     1      -7.052  29.514  -3.369  1.00  0.00     0.103 C
HETATM   20  C1  UNL     1      -6.082  28.318  -3.350  1.00  0.00     0.034 C
HETATM   21  C3  UNL     1      -7.518  29.676  -4.766  1.00  0.00     0.034 C
ENDBRANCH  18  19
BRANCH  18  22
HETATM   22  O1  UNL     1      -7.566  28.801  -1.236  1.00  0.00    -0.289 OA
ATOM     23  H1  UNL     1      -6.876  29.252  -0.766  1.00  0.00     0.244 HD
ENDBRANCH  18  22
ENDBRANCH  17  18
BRANCH  17  24
HETATM   24  O2  UNL     1      -9.847  28.425  -1.537  1.00  0.00    -0.371 OA
ATOM     25  H2  UNL     1     -10.793  28.496  -1.590  1.00  0.00     0.212 HD
ENDBRANCH  17  24
ENDBRANCH  15  17
ENDBRANCH   8  10
ENDBRANCH   7   8
BRANCH   7  26
HETATM   26  O3  UNL     1     -14.499  30.640  -5.330  1.00  0.00    -0.359 OA
ATOM     27  H3  UNL     1     -15.194  30.177  -4.878  1.00  0.00     0.214 HD
ENDBRANCH   7  26
ENDBRANCH   1   7
BRANCH   5  28
HETATM   28  S1  UNL     1     -18.372  34.970  -5.003  1.00  0.00     0.373 S
HETATM   29  O5  UNL     1     -18.024  35.699  -3.702  1.00  0.00    -0.175 OA
HETATM   30  O6  UNL     1     -19.155  33.777  -4.611  1.00  0.00    -0.175 OA
BRANCH  28  31
HETATM   31  O7  UNL     1     -19.084  36.055  -6.012  1.00  0.00    -0.180 OA
BRANCH  31  32
HETATM   32  C11 UNL     1     -19.875  37.142  -5.828  1.00  0.00     0.270 A
HETATM   33  N6  UNL     1     -19.498  38.370  -6.291  1.00  0.00    -0.153 N
HETATM   34  C12 UNL     1     -20.308  39.407  -6.086  1.00  0.00     0.693 A
ATOM     35  H6  UNL     1     -18.614  38.491  -6.783  1.00  0.00     0.188 HD
HETATM   36  N8  UNL     1     -21.483  39.328  -5.449  1.00  0.00    -0.023 N
HETATM   37  C13 UNL     1     -21.834  38.113  -5.002  1.00  0.00     0.693 A
ATOM     38  H8  UNL     1     -22.078  40.146  -5.311  1.00  0.00     0.203 HD
HETATM   39  N10 UNL     1     -21.047  37.044  -5.188  1.00  0.00    -0.153 N
ATOM     40  H10 UNL     1     -21.347  36.135  -4.833  1.00  0.00     0.188 HD
BRANCH  34  41
HETATM   41  N7  UNL     1     -19.963  40.578  -6.519  1.00  0.00    -0.234 N
ATOM     42  H72 UNL     1     -20.134  41.364  -5.893  1.00  0.00     0.174 HD
ATOM     43  H71 UNL     1     -19.542  40.664  -7.445  1.00  0.00     0.174 HD
ENDBRANCH  34  41
BRANCH  37  44
HETATM   44  N9  UNL     1     -22.949  37.961  -4.380  1.00  0.00    -0.234 N
ATOM     45  H92 UNL     1     -23.277  38.709  -3.768  1.00  0.00     0.174 HD
ATOM     46  H91 UNL     1     -23.485  37.102  -4.508  1.00  0.00     0.174 HD
ENDBRANCH  37  44
ENDBRANCH  31  32
ENDBRANCH  28  31
ENDBRANCH   5  28
TORSDOF 14
ENDMDL