MODEL 4
REMARK VINA RESULT: -6.821329153      1.484      1.763
REMARK  19 active torsions:
REMARK  status: ('A' for Active; 'I' for Inactive)
REMARK    1  A    between atoms: S1_2  and  C2_3
REMARK    2  A    between atoms: C2_3  and  N4_12
REMARK    3  A    between atoms: N1_4  and  N2_6
REMARK    4  A    between atoms: N2_6  and  C3_8
REMARK    5  A    between atoms: C3_8  and  N3_9
REMARK    6  A    between atoms: N4_12  and  C4_13
REMARK    7  A    between atoms: C5_15  and  C6_16
REMARK    8  A    between atoms: C6_16  and  O2_17
REMARK    9  A    between atoms: C6_16  and  N5_19
REMARK   10  A    between atoms: N5_19  and  C7_21
REMARK   11  A    between atoms: C7_21  and  C8_22
REMARK   12  A    between atoms: C7_21  and  C10_29
REMARK   13  A    between atoms: C8_22  and  S2_23
REMARK   14  A    between atoms: S2_23  and  C9_24
REMARK   15  A    between atoms: C10_29  and  O3_30
REMARK   16  A    between atoms: C10_29  and  O4_32
REMARK   17  A    between atoms: C12_41  and  C13_42
REMARK   18  A    between atoms: C13_42  and  O5_43
REMARK   19  A    between atoms: C13_42  and  O6_45
ROOT
HETATM    1  C4  UNL     1     -18.968  35.955  -7.286  1.00  0.00     0.242 A
HETATM    2  O1  UNL     1     -18.194  34.853  -7.504  1.00  0.00    -0.264 OA
HETATM    3  C5  UNL     1     -17.795  34.111  -6.537  1.00  0.00     0.177 A
HETATM    4  N8  UNL     1     -18.125  34.390  -5.268  1.00  0.00    -0.321 N
ATOM      5  H8  UNL     1     -17.788  33.774  -4.527  1.00  0.00     0.169 HD
HETATM    6  C11 UNL     1     -18.876  35.439  -4.937  1.00  0.00     0.139 A
HETATM    7  N9  UNL     1     -19.372  35.963  -3.809  1.00  0.00    -0.284 N
ATOM      8  H9  UNL     1     -19.222  35.582  -2.875  1.00  0.00     0.188 HD
HETATM    9  N10 UNL     1     -20.079  37.034  -4.076  1.00  0.00    -0.297 N
ATOM     10  H10 UNL     1     -20.558  37.606  -3.381  1.00  0.00     0.187 HD
HETATM   11  C12 UNL     1     -20.081  37.273  -5.429  1.00  0.00     0.099 A
HETATM   12  C14 UNL     1     -19.321  36.263  -5.966  1.00  0.00     0.104 A
ENDROOT
BRANCH   3  13
HETATM   13  C6  UNL     1     -16.921  32.874  -6.815  1.00  0.00     0.290 C
BRANCH  13  14
HETATM   14  O2  UNL     1     -15.919  33.298  -7.655  1.00  0.00    -0.369 OA
ATOM     15  H2  UNL     1     -15.215  33.600  -7.093  1.00  0.00     0.212 HD
ENDBRANCH  13  14
BRANCH  13  16
HETATM   16  N5  UNL     1     -16.386  32.461  -5.548  1.00  0.00    -0.381 N
ATOM     17  H5  UNL     1     -16.989  32.046  -4.838  1.00  0.00     0.156 HD
BRANCH  16  18
HETATM   18  C7  UNL     1     -15.015  32.643  -5.310  1.00  0.00     0.144 C
BRANCH  18  19
HETATM   19  C8  UNL     1     -14.586  33.042  -3.958  1.00  0.00     0.111 C
BRANCH  19  20
HETATM   20  S2  UNL     1     -12.885  33.244  -3.583  1.00  0.00    -0.096 SA
BRANCH  20  21
HETATM   21  C9  UNL     1     -12.209  32.050  -2.438  1.00  0.00     0.147 C
HETATM   22  N6  UNL     1     -12.196  30.812  -2.790  1.00  0.00    -0.382 N
ATOM     23  H62 UNL     1     -12.565  30.522  -3.695  1.00  0.00     0.157 HD
ATOM     24  H61 UNL     1     -11.810  30.130  -2.137  1.00  0.00     0.157 HD
HETATM   25  N7  UNL     1     -11.697  32.451  -1.185  1.00  0.00    -0.075 NA
ENDBRANCH  20  21
ENDBRANCH  19  20
ENDBRANCH  18  19
BRANCH  18  26
HETATM   26  C10 UNL     1     -14.194  31.390  -5.671  1.00  0.00     0.276 C
BRANCH  26  27
HETATM   27  O3  UNL     1     -14.435  30.996  -6.975  1.00  0.00    -0.369 OA
ATOM     28  H3  UNL     1     -14.609  30.063  -7.024  1.00  0.00     0.212 HD
ENDBRANCH  26  27
BRANCH  26  29
HETATM   29  O4  UNL     1     -14.580  30.334  -4.819  1.00  0.00    -0.369 OA
ATOM     30  H4  UNL     1     -15.515  30.191  -4.914  1.00  0.00     0.212 HD
ENDBRANCH  26  29
ENDBRANCH  18  26
ENDBRANCH  16  18
ENDBRANCH  13  16
ENDBRANCH   3  13
BRANCH   1  31
HETATM   31  N4  UNL     1     -19.332  36.623  -8.203  1.00  0.00    -0.353 NA
BRANCH  31  32
HETATM   32  C2  UNL     1     -19.718  37.376  -9.231  1.00  0.00     0.235 C
HETATM   33  N1  UNL     1     -19.332  38.616  -9.428  1.00  0.00    -0.260 N
ATOM     34  H1  UNL     1     -18.688  38.998  -8.736  1.00  0.00     0.191 HD
BRANCH  32  35
HETATM   35  S1  UNL     1     -20.853  36.691 -10.454  1.00  0.00    -0.082 SA
HETATM   36  C1  UNL     1     -20.209  35.266 -11.321  1.00  0.00     0.100 C
ENDBRANCH  32  35
BRANCH  33  37
HETATM   37  N2  UNL     1     -19.680  39.445 -10.428  1.00  0.00    -0.248 N
ATOM     38  H2  UNL     1     -20.666  39.523 -10.676  1.00  0.00     0.198 HD
BRANCH  37  39
HETATM   39  C3  UNL     1     -18.826  40.140 -11.085  1.00  0.00     0.061 C
BRANCH  39  40
HETATM   40  N3  UNL     1     -17.758  40.784 -11.389  1.00  0.00    -0.350 N
ATOM     41  H32 UNL     1     -18.221  41.496 -11.953  1.00  0.00     0.167 HD
ATOM     42  H31 UNL     1     -16.776  41.057 -11.444  1.00  0.00     0.167 HD
ENDBRANCH  39  40
ENDBRANCH  37  39
ENDBRANCH  33  37
ENDBRANCH  31  32
ENDBRANCH   1  31
BRANCH  11  43
HETATM   43  C13 UNL     1     -20.772  38.421  -5.976  1.00  0.00     0.307 C
BRANCH  43  44
HETATM   44  O5  UNL     1     -19.745  39.316  -6.443  1.00  0.00    -0.366 OA
ATOM     45  H5  UNL     1     -18.931  38.998  -6.069  1.00  0.00     0.213 HD
ENDBRANCH  43  44
BRANCH  43  46
HETATM   46  O6  UNL     1     -21.381  39.108  -4.901  1.00  0.00    -0.366 OA
ATOM     47  H6  UNL     1     -22.305  38.886  -4.904  1.00  0.00     0.213 HD
ENDBRANCH  43  46
ENDBRANCH  11  43
TORSDOF 19
ENDMDL