MODEL 5
REMARK VINA RESULT: -8.142664435      1.639      2.146
REMARK  16 active torsions:
REMARK  status: ('A' for Active; 'I' for Inactive)
REMARK    1  A    between atoms: C2_2  and  N1_3
REMARK    2  A    between atoms: C2_2  and  C14_34
REMARK    3  A    between atoms: C6_12  and  O1_13
REMARK    4  A    between atoms: C7_15  and  C8_16
REMARK    5  A    between atoms: C8_16  and  O2_17
REMARK    6  A    between atoms: C8_16  and  N5_19
REMARK    7  A    between atoms: N5_19  and  C9_21
REMARK    8  A    between atoms: C9_21  and  O3_22
REMARK    9  A    between atoms: C9_21  and  C10_24
REMARK   10  A    between atoms: C12_26  and  C13_27
REMARK       I    between atoms: C14_34  and  N8_36
REMARK   11  A    between atoms: N8_36  and  C15_38
REMARK   12  A    between atoms: C15_38  and  O6_39
REMARK   13  A    between atoms: C15_38  and  C16_41
REMARK   14  A    between atoms: C16_41  and  O7_42
REMARK   15  A    between atoms: C16_41  and  C17_44
REMARK   16  A    between atoms: C17_44  and  O8_46
ROOT
HETATM    1  N1  UNL     1     -18.081  33.949  -7.767  1.00  0.00    -0.362 N
ATOM      2  H1  UNL     1     -18.846  34.579  -7.523  1.00  0.00     0.162 HD
HETATM    3  C3  UNL     1     -17.343  33.646  -6.791  1.00  0.00     0.120 A
HETATM    4  N2  UNL     1     -16.284  32.835  -6.889  1.00  0.00    -0.329 N
ATOM      5  H2  UNL     1     -16.072  32.445  -7.807  1.00  0.00     0.168 HD
HETATM    6  C4  UNL     1     -15.477  32.495  -5.866  1.00  0.00     0.145 A
HETATM    7  N3  UNL     1     -14.371  31.622  -6.075  1.00  0.00    -0.081 NA
HETATM    8  C5  UNL     1     -15.777  33.029  -4.639  1.00  0.00     0.121 A
HETATM    9  N4  UNL     1     -14.963  32.708  -3.520  1.00  0.00    -0.096 NA
HETATM   10  C6  UNL     1     -16.882  33.889  -4.484  1.00  0.00     0.111 A
HETATM   11  C7  UNL     1     -17.688  34.220  -5.542  1.00  0.00     0.093 A
ENDROOT
BRANCH   1  12
HETATM   12  C2  UNL     1     -18.055  33.587  -9.128  1.00  0.00     0.171 C
HETATM   13  C1  UNL     1     -19.364  33.278  -9.773  1.00  0.00     0.042 C
BRANCH  12  14
HETATM   14  C14 UNL     1     -17.289  34.571  -9.999  1.00  0.00     0.246 C
HETATM   15  O5  UNL     1     -16.367  34.142 -10.705  1.00  0.00    -0.271 OA
HETATM   16  N8  UNL     1     -17.690  35.892  -9.932  1.00  0.00    -0.304 N
ATOM     17  H8  UNL     1     -18.465  36.073  -9.295  1.00  0.00     0.171 HD
BRANCH  16  18
HETATM   18  C15 UNL     1     -17.210  37.004 -10.590  1.00  0.00     0.180 C
BRANCH  18  19
HETATM   19  O6  UNL     1     -15.899  37.063 -10.720  1.00  0.00    -0.344 OA
ATOM     20  H6  UNL     1     -15.508  36.363 -11.230  1.00  0.00     0.219 HD
ENDBRANCH  18  19
BRANCH  18  21
HETATM   21  C16 UNL     1     -17.889  38.114 -11.160  1.00  0.00     0.165 C
BRANCH  21  22
HETATM   22  O7  UNL     1     -19.234  38.167 -11.437  1.00  0.00    -0.354 OA
ATOM     23  H7  UNL     1     -19.633  38.683 -12.127  1.00  0.00     0.218 HD
ENDBRANCH  21  22
BRANCH  21  24
HETATM   24  C17 UNL     1     -17.193  39.226 -11.469  1.00  0.00     0.187 C
HETATM   25  N9  UNL     1     -17.390  40.417 -10.719  1.00  0.00    -0.072 NA
BRANCH  24  26
HETATM   26  O8  UNL     1     -16.272  39.285 -12.501  1.00  0.00    -0.346 OA
ATOM     27  H8  UNL     1     -15.332  39.312 -12.361  1.00  0.00     0.219 HD
ENDBRANCH  24  26
ENDBRANCH  21  24
ENDBRANCH  18  21
ENDBRANCH  16  18
ENDBRANCH  12  14
ENDBRANCH   1  12
BRANCH  11  28
HETATM   28  C8  UNL     1     -18.842  35.100  -5.464  1.00  0.00     0.155 C
BRANCH  28  29
HETATM   29  O2  UNL     1     -19.820  34.734  -4.680  1.00  0.00    -0.345 OA
ATOM     30  H2  UNL     1     -20.542  35.342  -4.575  1.00  0.00     0.219 HD
ENDBRANCH  28  29
BRANCH  28  31
HETATM   31  N5  UNL     1     -18.981  36.301  -6.163  1.00  0.00    -0.339 N
ATOM     32  H5  UNL     1     -18.182  36.911  -6.337  1.00  0.00     0.164 HD
BRANCH  31  33
HETATM   33  C9  UNL     1     -20.345  36.655  -6.643  1.00  0.00     0.272 C
BRANCH  33  34
HETATM   34  O3  UNL     1     -20.730  35.724  -7.615  1.00  0.00    -0.371 OA
ATOM     35  H3  UNL     1     -21.654  35.845  -7.800  1.00  0.00     0.212 HD
ENDBRANCH  33  34
BRANCH  33  36
HETATM   36  C10 UNL     1     -20.321  38.032  -7.195  1.00  0.00     0.083 A
HETATM   37  C11 UNL     1     -20.909  38.531  -8.337  1.00  0.00     0.072 A
HETATM   38  C12 UNL     1     -20.590  39.874  -8.415  1.00  0.00     0.115 A
HETATM   39  O4  UNL     1     -19.855  40.141  -7.374  1.00  0.00    -0.236 OA
HETATM   40  N7  UNL     1     -19.676  39.073  -6.631  1.00  0.00    -0.260 N
ATOM     41  H7  UNL     1     -19.137  39.036  -5.766  1.00  0.00     0.194 HD
BRANCH  38  42
HETATM   42  C13 UNL     1     -21.009  40.795  -9.474  1.00  0.00     0.120 C
HETATM   43  N6  UNL     1     -20.360  40.758 -10.588  1.00  0.00    -0.406 N
ATOM     44  H62 UNL     1     -19.585  40.106 -10.712  1.00  0.00     0.155 HD
ATOM     45  H61 UNL     1     -20.652  41.399 -11.326  1.00  0.00     0.155 HD
ENDBRANCH  38  42
ENDBRANCH  33  36
ENDBRANCH  31  33
ENDBRANCH  28  31
ENDBRANCH  11  28
BRANCH  10  46
HETATM   46  O1  UNL     1     -17.115  34.383  -3.221  1.00  0.00    -0.358 OA
ATOM     47  H1  UNL     1     -17.987  34.715  -3.043  1.00  0.00     0.217 HD
ENDBRANCH  10  46
TORSDOF 16
ENDMDL