MODEL 1
REMARK VINA RESULT: -7.365320906      0.000      0.000
REMARK  16 active torsions:
REMARK  status: ('A' for Active; 'I' for Inactive)
REMARK    1  A    between atoms: C2_2  and  C3_3
REMARK    2  A    between atoms: C2_2  and  C4_6
REMARK    3  A    between atoms: C2_2  and  O3_9
REMARK    4  A    between atoms: C3_3  and  O1_4
REMARK    5  A    between atoms: C4_6  and  O2_7
REMARK    6  A    between atoms: O3_9  and  C5_10
REMARK    7  A    between atoms: C5_10  and  N1_11
REMARK    8  A    between atoms: C6_16  and  C7_17
REMARK    9  A    between atoms: C7_17  and  N4_18
REMARK   10  A    between atoms: C7_17  and  C8_21
REMARK   11  A    between atoms: C9_24  and  N6_25
REMARK   12  A    between atoms: C11_36  and  N10_37
REMARK   13  A    between atoms: N10_37  and  C12_39
REMARK   14  A    between atoms: C12_39  and  C13_40
REMARK   15  A    between atoms: C13_40  and  N12_44
REMARK   16  A    between atoms: C17_48  and  O5_49
ROOT
HETATM    1  N4  UNL     1     -18.931  35.798  -4.865  1.00  0.00    -0.277 NA
HETATM    2  O4  UNL     1     -18.188  35.488  -3.944  1.00  0.00    -0.218 OA
ATOM      3  H4  UNL     1     -17.612  35.249  -3.227  1.00  0.00     0.261 HD
ENDROOT
BRANCH   1   4
HETATM    4  C7  UNL     1     -19.678  36.108  -5.794  1.00  0.00     0.216 C
BRANCH   4   5
HETATM    5  C6  UNL     1     -19.880  35.216  -6.951  1.00  0.00     0.142 A
HETATM    6  N3  UNL     1     -20.939  34.923  -7.675  1.00  0.00    -0.279 N
HETATM    7  N2  UNL     1     -20.664  34.103  -8.643  1.00  0.00    -0.236 N
ATOM      8  H3  UNL     1     -21.870  35.298  -7.495  1.00  0.00     0.189 HD
HETATM    9  N1  UNL     1     -19.352  33.819  -8.580  1.00  0.00    -0.236 N
ATOM     10  H2  UNL     1     -21.325  33.740  -9.329  1.00  0.00     0.208 HD
HETATM   11  C11 UNL     1     -18.819  34.479  -7.551  1.00  0.00     0.154 A
BRANCH   9  12
HETATM   12  C5  UNL     1     -18.726  32.925  -9.559  1.00  0.00     0.321 C
BRANCH  12  13
HETATM   13  O3  UNL     1     -17.536  33.514  -9.984  1.00  0.00    -0.355 OA
BRANCH  13  14
HETATM   14  C2  UNL     1     -17.644  34.051 -11.238  1.00  0.00     0.101 C
HETATM   15  C1  UNL     1     -18.980  33.721 -11.893  1.00  0.00     0.051 C
BRANCH  14  16
HETATM   16  C3  UNL     1     -16.556  33.681 -12.196  1.00  0.00     0.204 C
BRANCH  16  17
HETATM   17  O1  UNL     1     -15.354  34.190 -11.674  1.00  0.00    -0.398 OA
ATOM     18  H1  UNL     1     -14.855  34.537 -12.404  1.00  0.00     0.209 HD
ENDBRANCH  16  17
ENDBRANCH  14  16
BRANCH  14  19
HETATM   19  C4  UNL     1     -17.592  35.577 -11.058  1.00  0.00     0.204 C
BRANCH  19  20
HETATM   20  O2  UNL     1     -16.809  35.873  -9.948  1.00  0.00    -0.398 OA
ATOM     21  H2  UNL     1     -16.103  36.450 -10.214  1.00  0.00     0.209 HD
ENDBRANCH  19  20
ENDBRANCH  14  19
ENDBRANCH  13  14
ENDBRANCH  12  13
ENDBRANCH   9  12
BRANCH  11  22
HETATM   22  N10 UNL     1     -17.633  34.501  -7.115  1.00  0.00    -0.366 N
ATOM     23  H10 UNL     1     -17.328  35.412  -6.772  1.00  0.00     0.161 HD
BRANCH  22  24
HETATM   24  C12 UNL     1     -16.653  33.480  -7.019  1.00  0.00     0.197 C
BRANCH  24  25
HETATM   25  C13 UNL     1     -16.452  33.073  -5.601  1.00  0.00     0.101 C
HETATM   26  N11 UNL     1     -17.446  32.923  -4.807  1.00  0.00    -0.387 N
ATOM     27 2H11 UNL     1     -18.394  33.084  -5.148  1.00  0.00     0.157 HD
ATOM     28 1H11 UNL     1     -17.308  32.644  -3.835  1.00  0.00     0.157 HD
BRANCH  25  29
HETATM   29  N12 UNL     1     -15.136  32.850  -5.128  1.00  0.00    -0.291 N
HETATM   30  C14 UNL     1     -14.502  33.570  -4.157  1.00  0.00     0.101 A
HETATM   31  C15 UNL     1     -13.245  33.103  -3.928  1.00  0.00     0.022 A
HETATM   32  C16 UNL     1     -13.067  32.037  -4.789  1.00  0.00     0.058 A
HETATM   33  C17 UNL     1     -14.234  31.917  -5.497  1.00  0.00     0.147 A
BRANCH  33  34
HETATM   34  O5  UNL     1     -14.513  30.966  -6.492  1.00  0.00    -0.346 OA
ATOM     35  H5  UNL     1     -13.887  30.753  -7.175  1.00  0.00     0.219 HD
ENDBRANCH  33  34
ENDBRANCH  25  29
ENDBRANCH  24  25
ENDBRANCH  22  24
ENDBRANCH  11  22
ENDBRANCH   4   5
BRANCH   4  36
HETATM   36  C8  UNL     1     -20.351  37.393  -5.704  1.00  0.00     0.182 A
HETATM   37  N5  UNL     1     -21.589  37.434  -5.093  1.00  0.00    -0.172 N
HETATM   38  C9  UNL     1     -22.308  38.550  -4.963  1.00  0.00     0.692 A
ATOM     39  H5  UNL     1     -21.973  36.566  -4.721  1.00  0.00     0.186 HD
HETATM   40  N7  UNL     1     -21.769  39.671  -5.464  1.00  0.00    -0.023 N
HETATM   41  C10 UNL     1     -20.562  39.660  -6.065  1.00  0.00     0.692 A
ATOM     42  H7  UNL     1     -22.282  40.549  -5.389  1.00  0.00     0.203 HD
HETATM   43  N8  UNL     1     -20.055  40.749  -6.545  1.00  0.00    -0.234 N
HETATM   44  N9  UNL     1     -19.833  38.503  -6.192  1.00  0.00    -0.172 N
ATOM     45  H82 UNL     1     -20.596  41.608  -6.450  1.00  0.00     0.174 HD
ATOM     46  H81 UNL     1     -19.142  40.741  -6.999  1.00  0.00     0.174 HD
ATOM     47  H9  UNL     1     -18.921  38.503  -6.649  1.00  0.00     0.186 HD
BRANCH  38  48
HETATM   48  N6  UNL     1     -23.466  38.577  -4.388  1.00  0.00    -0.234 N
ATOM     49  H62 UNL     1     -24.040  37.735  -4.336  1.00  0.00     0.174 HD
ATOM     50  H61 UNL     1     -23.857  39.420  -3.968  1.00  0.00     0.174 HD
ENDBRANCH  38  48
ENDBRANCH   4  36
ENDBRANCH   1   4
TORSDOF 16
ENDMDL