MODEL 2
REMARK VINA RESULT: -7.761445233      3.537      7.633
REMARK  8 active torsions:
REMARK  status: ('A' for Active; 'I' for Inactive)
REMARK    1  A    between atoms: C2_2  and  C3_6
REMARK    2  A    between atoms: C3_6  and  O1_7
REMARK    3  A    between atoms: C3_6  and  N2_9
REMARK    4  A    between atoms: N2_9  and  C4_10
REMARK    5  A    between atoms: C4_10  and  C5_11
REMARK    6  A    between atoms: C4_10  and  C6_14
REMARK    7  A    between atoms: C7_19  and  S1_20
REMARK    8  A    between atoms: S1_20  and  C8_21
ROOT
HETATM    1  C6  UNL     1     -17.323  35.956 -10.366  1.00  0.00     0.135 A
HETATM    2  N4  UNL     1     -16.218  36.596 -10.925  1.00  0.00    -0.292 N
ATOM      3  H4  UNL     1     -15.287  36.272 -10.662  1.00  0.00     0.187 HD
HETATM    4  N5  UNL     1     -16.311  37.567 -11.750  1.00  0.00    -0.279 N
ATOM      5  H5  UNL     1     -15.460  37.990 -12.122  1.00  0.00     0.189 HD
HETATM    6  C7  UNL     1     -17.489  38.037 -12.134  1.00  0.00     0.167 A
HETATM    7  N8  UNL     1     -18.585  37.489 -11.652  1.00  0.00    -0.322 N
ATOM      8  H8  UNL     1     -19.497  37.843 -11.942  1.00  0.00     0.169 HD
HETATM    9  C9  UNL     1     -18.510  36.435 -10.757  1.00  0.00     0.150 A
HETATM   10  N9  UNL     1     -19.751  35.950 -10.315  1.00  0.00    -0.080 NA
ENDROOT
BRANCH   1  11
HETATM   11  C4  UNL     1     -16.978  34.880  -9.485  1.00  0.00     0.206 C
BRANCH  11  12
HETATM   12  N2  UNL     1     -17.454  34.948  -8.319  1.00  0.00    -0.371 NA
BRANCH  12  13
HETATM   13  C3  UNL     1     -17.817  34.765  -7.114  1.00  0.00     0.237 C
BRANCH  13  14
HETATM   14  C2  UNL     1     -16.900  34.708  -5.943  1.00  0.00     0.065 C
HETATM   15  C1  UNL     1     -15.486  35.101  -5.980  1.00  0.00     0.073 C
HETATM   16  N1  UNL     1     -17.414  34.288  -4.846  1.00  0.00    -0.398 N
ATOM     17  H12 UNL     1     -16.786  34.248  -4.044  1.00  0.00     0.156 HD
ATOM     18  H11 UNL     1     -18.397  34.014  -4.821  1.00  0.00     0.156 HD
ENDBRANCH  13  14
BRANCH  13  19
HETATM   19  O1  UNL     1     -19.056  34.603  -6.754  1.00  0.00    -0.334 OA
ATOM     20  H1  UNL     1     -19.470  33.903  -7.245  1.00  0.00     0.220 HD
ENDBRANCH  13  19
ENDBRANCH  12  13
ENDBRANCH  11  12
BRANCH  11  21
HETATM   21  C5  UNL     1     -16.154  33.728  -9.702  1.00  0.00     0.298 C
HETATM   22  N3  UNL     1     -15.016  33.838 -10.622  1.00  0.00    -0.055 NA
HETATM   23  O2  UNL     1     -16.276  32.622  -9.204  1.00  0.00    -0.268 OA
ENDBRANCH  11  21
ENDBRANCH   1  11
BRANCH   6  24
HETATM   24  S1  UNL     1     -17.499  39.392 -13.309  1.00  0.00    -0.020 SA
BRANCH  24  25
HETATM   25  C8  UNL     1     -16.527  40.741 -12.717  1.00  0.00     0.155 C
HETATM   26  N6  UNL     1     -16.690  41.960 -13.095  1.00  0.00    -0.382 N
ATOM     27  H62 UNL     1     -17.425  42.133 -13.782  1.00  0.00     0.157 HD
ATOM     28  H61 UNL     1     -16.128  42.739 -12.753  1.00  0.00     0.157 HD
HETATM   29  N7  UNL     1     -15.505  40.499 -11.760  1.00  0.00    -0.075 NA
ENDBRANCH  24  25
ENDBRANCH   6  24
TORSDOF 8
ENDMDL