MODEL 5
REMARK VINA RESULT: -7.993392589      1.715      2.434
REMARK  6 active torsions:
REMARK  status: ('A' for Active; 'I' for Inactive)
REMARK    1  A    between atoms: N1_1  and  C1_4
REMARK    2  A    between atoms: C3_8  and  N3_9
REMARK    3  A    between atoms: C5_13  and  C6_14
REMARK       I    between atoms: C6_14  and  N4_16
REMARK    4  A    between atoms: N4_16  and  N5_18
REMARK    5  A    between atoms: C7_20  and  C8_21
REMARK       I    between atoms: C8_21  and  N6_23
REMARK    6  A    between atoms: N6_23  and  C9_25
ROOT
HETATM    1  C6  UNL     1     -16.162  36.913 -11.200  1.00  0.00     0.273 C
HETATM    2  O3  UNL     1     -15.480  36.171 -11.941  1.00  0.00    -0.266 OA
HETATM    3  N4  UNL     1     -16.111  38.311 -11.373  1.00  0.00    -0.266 N
ATOM      4  H4  UNL     1     -16.662  38.921 -10.768  1.00  0.00     0.190 HD
ENDROOT
BRANCH   3   5
HETATM    5  N5  UNL     1     -15.312  38.858 -12.366  1.00  0.00    -0.304 N
HETATM    6  C7  UNL     1     -15.731  39.836 -13.082  1.00  0.00     0.182 C
ATOM      7  H5  UNL     1     -14.381  38.477 -12.530  1.00  0.00     0.186 HD
BRANCH   6   8
HETATM    8  C8  UNL     1     -17.037  40.427 -12.908  1.00  0.00     0.276 C
HETATM    9  O4  UNL     1     -17.919  39.932 -12.182  1.00  0.00    -0.266 OA
HETATM   10  N6  UNL     1     -17.337  41.652 -13.610  1.00  0.00    -0.152 N
ATOM     11  H6  UNL     1     -18.145  41.726 -14.228  1.00  0.00     0.187 HD
BRANCH  10  12
HETATM   12  C9  UNL     1     -16.541  42.650 -13.425  1.00  0.00     0.716 A
HETATM   13  N7  UNL     1     -15.826  42.945 -12.303  1.00  0.00    -0.115 N
HETATM   14  N8  UNL     1     -15.143  44.049 -12.532  1.00  0.00    -0.213 N
ATOM     15  H7  UNL     1     -15.821  42.405 -11.437  1.00  0.00     0.207 HD
HETATM   16  N9  UNL     1     -15.416  44.439 -13.755  1.00  0.00    -0.213 N
ATOM     17  H8  UNL     1     -14.516  44.516 -11.877  1.00  0.00     0.210 HD
HETATM   18  N10 UNL     1     -16.259  43.608 -14.314  1.00  0.00    -0.115 N
ATOM     19  H9  UNL     1     -15.028  45.269 -14.204  1.00  0.00     0.210 HD
ATOM     20  H10 UNL     1     -16.635  43.678 -15.260  1.00  0.00     0.207 HD
ENDBRANCH  10  12
ENDBRANCH   6   8
ENDBRANCH   3   5
BRANCH   1  21
HETATM   21  C5  UNL     1     -17.002  36.348 -10.171  1.00  0.00     0.079 A
HETATM   22  C1  UNL     1     -18.379  36.367 -10.278  1.00  0.00     0.114 A
HETATM   23  N2  UNL     1     -19.149  35.838  -9.304  1.00  0.00    -0.349 N
HETATM   24  C2  UNL     1     -18.620  35.277  -8.202  1.00  0.00     0.125 A
ATOM     25  H2  UNL     1     -20.164  35.866  -9.406  1.00  0.00     0.166 HD
HETATM   26  C3  UNL     1     -17.252  35.229  -8.042  1.00  0.00     0.119 A
HETATM   27  C4  UNL     1     -16.474  35.772  -9.042  1.00  0.00     0.058 A
BRANCH  22  28
HETATM   28  N1  UNL     1     -18.921  36.902 -11.330  1.00  0.00    -0.385 N
ATOM     29  H12 UNL     1     -19.937  36.968 -11.383  1.00  0.00     0.157 HD
ATOM     30  H11 UNL     1     -18.340  37.251 -12.092  1.00  0.00     0.157 HD
ENDBRANCH  22  28
BRANCH  26  31
HETATM   31  N3  UNL     1     -16.635  34.656  -6.913  1.00  0.00    -0.114 N
HETATM   32  O1  UNL     1     -17.208  33.780  -6.258  1.00  0.00    -0.532 OA
HETATM   33  O2  UNL     1     -15.390  35.079  -6.548  1.00  0.00    -0.532 OA
ENDBRANCH  26  31
ENDBRANCH   1  21
TORSDOF 6
ENDMDL