MODEL 5
REMARK VINA RESULT: -6.852226019      1.602      1.702
REMARK  6 active torsions:
REMARK  status: ('A' for Active; 'I' for Inactive)
REMARK    1  A    between atoms: N1_2  and  C3_4
REMARK    2  A    between atoms: C4_7  and  N3_8
REMARK    3  A    between atoms: N3_8  and  C5_10
REMARK    4  A    between atoms: C7_22  and  C8_23
REMARK    5  A    between atoms: C8_23  and  C9_24
REMARK       I    between atoms: C9_24  and  N8_26
REMARK    6  A    between atoms: N8_26  and  N9_28
ROOT
HETATM    1  C3  UNL     1     -15.969  33.970  -9.905  1.00  0.00     0.695 A
HETATM    2  N2  UNL     1     -15.895  35.288 -10.204  1.00  0.00    -0.022 N
ATOM      3  H2  UNL     1     -15.240  35.609 -10.916  1.00  0.00     0.203 HD
HETATM    4  C4  UNL     1     -16.678  36.178  -9.572  1.00  0.00     0.700 A
HETATM    5  N7  UNL     1     -17.539  35.744  -8.636  1.00  0.00    -0.179 N
ATOM      6  H7  UNL     1     -18.134  36.421  -8.158  1.00  0.00     0.185 HD
HETATM    7  C7  UNL     1     -17.640  34.431  -8.309  1.00  0.00     0.122 A
HETATM    8  N10 UNL     1     -16.832  33.587  -8.973  1.00  0.00    -0.179 N
ATOM      9  H10 UNL     1     -16.885  32.593  -8.748  1.00  0.00     0.185 HD
ENDROOT
BRANCH   4  10
HETATM   10  N3  UNL     1     -16.570  37.419  -9.895  1.00  0.00    -0.168 N
ATOM     11  H3  UNL     1     -16.153  38.072  -9.230  1.00  0.00     0.186 HD
BRANCH  10  12
HETATM   12  C5  UNL     1     -17.021  37.908 -11.170  1.00  0.00     0.181 A
HETATM   13  N4  UNL     1     -18.257  38.025 -11.634  1.00  0.00    -0.277 N
HETATM   14  N5  UNL     1     -18.469  38.482 -12.796  1.00  0.00    -0.278 N
ATOM     15  H4  UNL     1     -19.044  37.746 -11.049  1.00  0.00     0.189 HD
HETATM   16  C6  UNL     1     -17.427  38.847 -13.546  1.00  0.00     0.160 A
ATOM     17  H5  UNL     1     -19.420  38.569 -13.153  1.00  0.00     0.189 HD
HETATM   18  N6  UNL     1     -17.409  39.338 -14.761  1.00  0.00    -0.379 N
HETATM   19  S1  UNL     1     -16.115  38.500 -12.504  1.00  0.00    -0.015 SA
ATOM     20  H62 UNL     1     -18.191  39.544 -15.382  1.00  0.00     0.158 HD
ATOM     21  H61 UNL     1     -16.613  39.617 -15.334  1.00  0.00     0.158 HD
ENDBRANCH  10  12
ENDBRANCH   4  10
BRANCH   1  22
HETATM   22  N1  UNL     1     -15.112  33.076 -10.609  1.00  0.00    -0.226 N
HETATM   23  C1  UNL     1     -14.908  31.713 -10.158  1.00  0.00     0.168 C
HETATM   24  C2  UNL     1     -14.410  33.488 -11.801  1.00  0.00     0.168 C
ENDBRANCH   1  22
BRANCH   7  25
HETATM   25  C8  UNL     1     -18.599  33.963  -7.268  1.00  0.00     0.182 C
BRANCH  25  26
HETATM   26  C9  UNL     1     -18.081  34.191  -5.903  1.00  0.00     0.242 C
HETATM   27  O1  UNL     1     -18.783  34.729  -5.012  1.00  0.00    -0.271 OA
HETATM   28  N8  UNL     1     -16.745  33.772  -5.634  1.00  0.00    -0.276 N
ATOM     29  H8  UNL     1     -16.182  33.334  -6.363  1.00  0.00     0.189 HD
BRANCH  28  30
HETATM   30  N9  UNL     1     -16.220  33.971  -4.354  1.00  0.00    -0.343 N
ATOM     31  H92 UNL     1     -16.776  33.720  -3.537  1.00  0.00     0.176 HD
ATOM     32  H91 UNL     1     -15.284  34.366  -4.262  1.00  0.00     0.176 HD
ENDBRANCH  28  30
ENDBRANCH  25  26
ENDBRANCH   7  25
TORSDOF 6
ENDMDL