MODEL 1
REMARK VINA RESULT: -9.033951225      0.000      0.000
REMARK  8 active torsions:
REMARK  status: ('A' for Active; 'I' for Inactive)
REMARK    1  A    between atoms: N1_1  and  N2_4
REMARK    2  A    between atoms: N2_4  and  C1_6
REMARK    3  A    between atoms: C4_13  and  N5_14
REMARK    4  A    between atoms: N5_14  and  C5_16
REMARK    5  A    between atoms: C5_16  and  C6_17
REMARK    6  A    between atoms: C5_16  and  N7_23
REMARK    7  A    between atoms: C6_17  and  O1_18
REMARK    8  A    between atoms: C6_17  and  N6_20
ROOT
HETATM    1  C1  UNL     1     -17.415  34.246  -8.756  1.00  0.00     0.150 A
HETATM    2  N3  UNL     1     -16.228  33.797  -9.191  1.00  0.00    -0.336 N
ATOM      3  H3  UNL     1     -15.818  32.985  -8.729  1.00  0.00     0.168 HD
HETATM    4  C2  UNL     1     -15.548  34.364 -10.210  1.00  0.00     0.182 A
HETATM    5  N4  UNL     1     -16.083  35.438 -10.824  1.00  0.00    -0.347 N
ATOM      6  H4  UNL     1     -15.574  35.871 -11.594  1.00  0.00     0.167 HD
HETATM    7  C3  UNL     1     -17.264  35.953 -10.454  1.00  0.00     0.108 A
HETATM    8  C4  UNL     1     -17.812  37.077 -11.107  1.00  0.00     0.133 A
HETATM    9  N8  UNL     1     -19.003  37.541 -10.682  1.00  0.00    -0.337 N
ATOM     10  H8  UNL     1     -19.424  38.353 -11.134  1.00  0.00     0.168 HD
HETATM   11  C7  UNL     1     -19.642  36.932  -9.656  1.00  0.00     0.182 A
HETATM   12  N9  UNL     1     -19.124  35.864  -9.033  1.00  0.00    -0.347 N
ATOM     13  H9  UNL     1     -19.633  35.429  -8.263  1.00  0.00     0.167 HD
HETATM   14  C8  UNL     1     -17.939  35.363  -9.419  1.00  0.00     0.110 A
ENDROOT
BRANCH   8  15
HETATM   15  N5  UNL     1     -17.117  37.539 -12.038  1.00  0.00    -0.344 N
ATOM     16  H5  UNL     1     -17.064  36.891 -12.824  1.00  0.00     0.163 HD
BRANCH  15  17
HETATM   17  C5  UNL     1     -16.391  38.709 -12.284  1.00  0.00     0.310 C
BRANCH  17  18
HETATM   18  C6  UNL     1     -17.187  39.721 -13.064  1.00  0.00     0.337 C
BRANCH  18  19
HETATM   19  O1  UNL     1     -18.345  40.001 -12.330  1.00  0.00    -0.368 OA
ATOM     20  H1  UNL     1     -18.403  40.945 -12.237  1.00  0.00     0.212 HD
ENDBRANCH  18  19
BRANCH  18  21
HETATM   21  N6  UNL     1     -17.590  39.224 -14.360  1.00  0.00    -0.120 N
HETATM   22  O2  UNL     1     -17.590  38.031 -14.665  1.00  0.00    -0.534 OA
HETATM   23  O3  UNL     1     -17.992  40.155 -15.289  1.00  0.00    -0.534 OA
ENDBRANCH  18  21
ENDBRANCH  17  18
BRANCH  17  24
HETATM   24  N7  UNL     1     -15.082  38.555 -12.865  1.00  0.00    -0.126 N
HETATM   25  O4  UNL     1     -14.509  37.460 -12.776  1.00  0.00    -0.535 OA
HETATM   26  O5  UNL     1     -14.444  39.586 -13.501  1.00  0.00    -0.535 OA
ENDBRANCH  17  24
ENDBRANCH  15  17
ENDBRANCH   8  15
BRANCH   1  27
HETATM   27  N2  UNL     1     -18.098  33.754  -7.807  1.00  0.00    -0.290 N
ATOM     28  H2  UNL     1     -19.113  33.792  -7.902  1.00  0.00     0.188 HD
BRANCH  27  29
HETATM   29  N1  UNL     1     -17.600  33.173  -6.661  1.00  0.00    -0.344 N
ATOM     30  H12 UNL     1     -17.676  33.733  -5.812  1.00  0.00     0.176 HD
ATOM     31  H11 UNL     1     -17.171  32.251  -6.590  1.00  0.00     0.176 HD
ENDBRANCH  27  29
ENDBRANCH   1  27
TORSDOF 8
ENDMDL