MODEL 3
REMARK VINA RESULT: -7.791834452      1.970      8.679
REMARK  8 active torsions:
REMARK  status: ('A' for Active; 'I' for Inactive)
REMARK    1  A    between atoms: O1_2  and  C2_3
REMARK    2  A    between atoms: C2_3  and  N2_7
REMARK    3  A    between atoms: N2_7  and  C3_9
REMARK    4  A    between atoms: C4_14  and  C5_15
REMARK       I    between atoms: C5_15  and  N5_17
REMARK    5  A    between atoms: N5_17  and  N6_19
REMARK    6  A    between atoms: C6_21  and  C7_22
REMARK    7  A    between atoms: C7_22  and  C8_24
REMARK    8  A    between atoms: C8_24  and  O4_26
ROOT
HETATM    1  C3  UNL     1     -16.765  41.443 -13.106  1.00  0.00     0.701 A
HETATM    2  N3  UNL     1     -16.188  41.211 -11.902  1.00  0.00    -0.131 N
ATOM      3  H3  UNL     1     -15.837  42.001 -11.361  1.00  0.00     0.205 HD
HETATM    4  N4  UNL     1     -16.066  39.979 -11.405  1.00  0.00    -0.278 N
ATOM      5  H4  UNL     1     -15.627  39.843 -10.495  1.00  0.00     0.188 HD
HETATM    6  C4  UNL     1     -16.517  38.917 -12.091  1.00  0.00     0.160 A
HETATM    7  C10 UNL     1     -17.103  39.153 -13.316  1.00  0.00     0.165 A
HETATM    8  N7  UNL     1     -17.588  38.080 -14.068  1.00  0.00    -0.079 NA
HETATM    9  N8  UNL     1     -17.222  40.415 -13.812  1.00  0.00    -0.175 N
ATOM     10  H8  UNL     1     -17.661  40.570 -14.720  1.00  0.00     0.185 HD
ENDROOT
BRANCH   6  11
HETATM   11  C5  UNL     1     -16.408  37.554 -11.593  1.00  0.00     0.291 C
HETATM   12  O2  UNL     1     -15.430  36.833 -11.826  1.00  0.00    -0.264 OA
HETATM   13  N5  UNL     1     -17.474  37.043 -10.807  1.00  0.00    -0.265 N
ATOM     14  H5  UNL     1     -18.280  37.636 -10.612  1.00  0.00     0.190 HD
BRANCH  13  15
HETATM   15  N6  UNL     1     -17.442  35.736 -10.291  1.00  0.00    -0.305 N
HETATM   16  C6  UNL     1     -17.521  35.514  -9.028  1.00  0.00     0.160 C
ATOM     17  H6  UNL     1     -17.353  34.949 -10.932  1.00  0.00     0.186 HD
BRANCH  16  18
HETATM   18  C7  UNL     1     -17.486  34.158  -8.534  1.00  0.00     0.194 C
HETATM   19  O3  UNL     1     -16.660  33.343  -9.057  1.00  0.00    -0.289 OA
BRANCH  18  20
HETATM   20  C8  UNL     1     -18.393  33.743  -7.451  1.00  0.00     0.189 C
HETATM   21  C9  UNL     1     -18.939  34.972  -6.743  1.00  0.00     0.048 C
BRANCH  20  22
HETATM   22  O4  UNL     1     -17.690  32.916  -6.577  1.00  0.00    -0.388 OA
ATOM     23  H4  UNL     1     -17.601  32.060  -6.979  1.00  0.00     0.210 HD
ENDBRANCH  20  22
ENDBRANCH  18  20
ENDBRANCH  16  18
ENDBRANCH  13  15
ENDBRANCH   6  11
BRANCH   1  24
HETATM   24  N2  UNL     1     -16.825  42.673 -13.480  1.00  0.00    -0.154 N
ATOM     25  H2  UNL     1     -17.729  43.021 -13.799  1.00  0.00     0.188 HD
BRANCH  24  26
HETATM   26  C2  UNL     1     -15.752  43.574 -13.484  1.00  0.00     0.231 C
HETATM   27  N1  UNL     1     -15.340  44.220 -14.528  1.00  0.00    -0.365 N
ATOM     28  H12 UNL     1     -14.560  44.876 -14.531  1.00  0.00     0.159 HD
ATOM     29  H11 UNL     1     -15.842  44.051 -15.399  1.00  0.00     0.159 HD
BRANCH  26  30
HETATM   30  O1  UNL     1     -15.069  43.804 -12.296  1.00  0.00    -0.327 OA
HETATM   31  C1  UNL     1     -15.148  45.024 -11.602  1.00  0.00     0.213 C
ENDBRANCH  26  30
ENDBRANCH  24  26
ENDBRANCH   1  24
TORSDOF 8
ENDMDL