MODEL 5
REMARK VINA RESULT: -8.823315916      1.410      1.699
REMARK  5 active torsions:
REMARK  status: ('A' for Active; 'I' for Inactive)
REMARK    1  A    between atoms: O1_2  and  C2_3
REMARK    2  A    between atoms: C2_3  and  C3_5
REMARK    3  A    between atoms: C3_5  and  C4_6
REMARK    4  A    between atoms: C6_8  and  C7_9
REMARK    5  A    between atoms: C8_14  and  C9_15
REMARK       I    between atoms: C9_15  and  N3_17
REMARK       I    between atoms: N3_17  and  C10_19
ROOT
HETATM    1  C7  UNL     1     -17.566  37.102 -10.643  1.00  0.00     0.150 A
HETATM    2  N1  UNL     1     -18.366  37.148 -11.720  1.00  0.00    -0.282 N
ATOM      3  H1  UNL     1     -19.112  36.478 -11.906  1.00  0.00     0.188 HD
HETATM    4  N2  UNL     1     -18.073  38.159 -12.505  1.00  0.00    -0.279 N
ATOM      5  H2  UNL     1     -18.535  38.405 -13.380  1.00  0.00     0.189 HD
HETATM    6  C8  UNL     1     -17.047  38.805 -11.930  1.00  0.00     0.191 A
HETATM    7  N6  UNL     1     -16.736  38.148 -10.777  1.00  0.00    -0.320 N
ATOM      8  H6  UNL     1     -15.995  38.407 -10.126  1.00  0.00     0.169 HD
ENDROOT
BRANCH   1   9
HETATM    9  C6  UNL     1     -17.590  36.129  -9.558  1.00  0.00     0.096 A
HETATM   10  C5  UNL     1     -16.511  35.946  -8.718  1.00  0.00     0.061 A
HETATM   11  C4  UNL     1     -16.538  35.017  -7.686  1.00  0.00     0.038 A
HETATM   12  N9  UNL     1     -17.650  34.294  -7.521  1.00  0.00    -0.290 N
HETATM   13  N8  UNL     1     -18.696  34.470  -8.335  1.00  0.00    -0.242 N
ATOM     14  H9  UNL     1     -17.700  33.604  -6.772  1.00  0.00     0.188 HD
HETATM   15  N7  UNL     1     -18.672  35.365  -9.331  1.00  0.00    -0.283 N
ATOM     16  H8  UNL     1     -19.535  33.909  -8.192  1.00  0.00     0.208 HD
ATOM     17  H7  UNL     1     -19.491  35.468  -9.930  1.00  0.00     0.188 HD
BRANCH  11  18
HETATM   18  C3  UNL     1     -15.409  34.788  -6.763  1.00  0.00     0.169 C
BRANCH  18  19
HETATM   19  C2  UNL     1     -15.855  34.527  -5.387  1.00  0.00     0.264 C
HETATM   20  O2  UNL     1     -17.040  34.741  -5.036  1.00  0.00    -0.265 OA
BRANCH  19  21
HETATM   21  O1  UNL     1     -14.911  34.035  -4.486  1.00  0.00    -0.326 OA
HETATM   22  C1  UNL     1     -15.134  32.845  -3.757  1.00  0.00     0.213 C
ENDBRANCH  19  21
ENDBRANCH  18  19
ENDBRANCH  11  18
ENDBRANCH   1   9
BRANCH   6  23
HETATM   23  C9  UNL     1     -16.407  39.990 -12.470  1.00  0.00     0.293 C
HETATM   24  O3  UNL     1     -15.157  40.027 -12.552  1.00  0.00    -0.264 OA
HETATM   25  N3  UNL     1     -17.230  41.076 -12.890  1.00  0.00    -0.295 N
HETATM   26  C10 UNL     1     -16.635  42.246 -13.421  1.00  0.00     0.188 C
ATOM     27  H3  UNL     1     -18.245  41.010 -12.809  1.00  0.00     0.171 HD
HETATM   28  N4  UNL     1     -17.382  43.243 -13.808  1.00  0.00    -0.373 N
HETATM   29  N5  UNL     1     -15.228  42.319 -13.527  1.00  0.00    -0.064 NA
ATOM     30  H42 UNL     1     -18.398  43.190 -13.731  1.00  0.00     0.158 HD
ATOM     31  H41 UNL     1     -16.954  44.086 -14.191  1.00  0.00     0.158 HD
ENDBRANCH   6  23
TORSDOF 5
ENDMDL