MODEL 5
REMARK VINA RESULT: -6.387814544      1.754      3.106
REMARK  10 active torsions:
REMARK  status: ('A' for Active; 'I' for Inactive)
REMARK    1  A    between atoms: O1_2  and  C2_3
REMARK    2  A    between atoms: C7_10  and  O4_11
REMARK    3  A    between atoms: C7_10  and  C8_13
REMARK    4  A    between atoms: C9_14  and  C10_15
REMARK    5  A    between atoms: C10_15  and  C12_18
REMARK    6  A    between atoms: C10_15  and  N2_21
REMARK    7  A    between atoms: C12_18  and  O5_19
REMARK    8  A    between atoms: N2_21  and  O6_22
REMARK    9  A    between atoms: O6_22  and  C13_23
REMARK   10  A    between atoms: C13_23  and  O7_24
ROOT
HETATM    1  C10 UNL     1     -15.854  39.623 -12.644  1.00  0.00     0.228 C
HETATM    2  C11 UNL     1     -14.592  39.701 -13.356  1.00  0.00     0.105 C
HETATM    3  N1  UNL     1     -13.601  39.765 -13.913  1.00  0.00    -0.194 NA
ENDROOT
BRANCH   1   4
HETATM    4  C9  UNL     1     -16.031  38.354 -11.936  1.00  0.00    -0.053 C
HETATM    5  C8  UNL     1     -16.180  37.303 -11.372  1.00  0.00    -0.028 C
BRANCH   5   6
HETATM    6  C7  UNL     1     -16.363  36.001 -10.702  1.00  0.00     0.286 C
HETATM    7  C3  UNL     1     -17.757  35.845 -10.215  1.00  0.00     0.147 C
HETATM    8  C2  UNL     1     -18.843  36.296 -10.814  1.00  0.00     0.173 C
HETATM    9  O2  UNL     1     -17.648  35.141  -9.024  1.00  0.00    -0.310 OA
HETATM   10  C4  UNL     1     -16.244  34.979  -8.778  1.00  0.00     0.168 C
HETATM   11  C5  UNL     1     -16.024  35.163  -7.307  1.00  0.00     0.079 C
HETATM   12  C6  UNL     1     -15.756  33.646  -9.266  1.00  0.00     0.079 C
HETATM   13  O3  UNL     1     -15.634  35.990  -9.535  1.00  0.00    -0.303 OA
BRANCH   8  14
HETATM   14  O1  UNL     1     -20.117  36.120 -10.312  1.00  0.00    -0.365 OA
HETATM   15  C1  UNL     1     -20.589  36.753  -9.153  1.00  0.00     0.209 C
ENDBRANCH   8  14
BRANCH   6  16
HETATM   16  O4  UNL     1     -16.078  34.941 -11.552  1.00  0.00    -0.350 OA
ATOM     17  H4  UNL     1     -15.381  35.208 -12.139  1.00  0.00     0.214 HD
ENDBRANCH   6  16
ENDBRANCH   5   6
ENDBRANCH   1   4
BRANCH   1  18
HETATM   18  C12 UNL     1     -15.917  40.797 -11.660  1.00  0.00     0.222 C
BRANCH  18  19
HETATM   19  O5  UNL     1     -15.673  41.981 -12.332  1.00  0.00    -0.397 OA
ATOM     20  H5  UNL     1     -14.830  42.332 -12.069  1.00  0.00     0.209 HD
ENDBRANCH  18  19
ENDBRANCH   1  18
BRANCH   1  21
HETATM   21  N2  UNL     1     -16.985  39.761 -13.542  1.00  0.00    -0.057 NA
BRANCH  21  22
HETATM   22  O6  UNL     1     -17.035  38.777 -14.442  1.00  0.00    -0.258 OA
BRANCH  22  23
HETATM   23  C13 UNL     1     -17.753  39.083 -15.582  1.00  0.00     0.361 C
BRANCH  23  24
HETATM   24  O7  UNL     1     -19.068  39.412 -15.338  1.00  0.00    -0.375 OA
ATOM     25  H7  UNL     1     -19.620  39.378 -16.110  1.00  0.00     0.212 HD
ENDBRANCH  23  24
ENDBRANCH  22  23
ENDBRANCH  21  22
ENDBRANCH   1  21
TORSDOF 10
ENDMDL