MODEL 3
REMARK VINA RESULT: -7.926970445      1.485      2.058
REMARK  7 active torsions:
REMARK  status: ('A' for Active; 'I' for Inactive)
REMARK    1  A    between atoms: C2_2  and  C3_3
REMARK    2  A    between atoms: C2_2  and  N2_9
REMARK    3  A    between atoms: C3_3  and  C4_4
REMARK    4  A    between atoms: C4_4  and  N1_5
REMARK    5  A    between atoms: N2_9  and  C5_11
REMARK    6  A    between atoms: C8_17  and  C9_18
REMARK    7  A    between atoms: C9_18  and  C10_19
ROOT
HETATM    1  C5  UNL     1     -17.357  37.854 -11.894  1.00  0.00     0.697 A
HETATM    2  N3  UNL     1     -16.388  36.910 -11.695  1.00  0.00    -0.153 N
ATOM      3  H3  UNL     1     -15.549  36.948 -12.274  1.00  0.00     0.187 HD
HETATM    4  C6  UNL     1     -16.484  35.941 -10.783  1.00  0.00     0.292 A
HETATM    5  O1  UNL     1     -15.577  35.070 -10.613  1.00  0.00    -0.265 OA
HETATM    6  C7  UNL     1     -17.620  35.898 -10.005  1.00  0.00     0.169 A
HETATM    7  C8  UNL     1     -18.000  35.031  -9.009  1.00  0.00     0.070 A
HETATM    8  N8  UNL     1     -19.233  35.495  -8.628  1.00  0.00    -0.286 N
ATOM      9  H8  UNL     1     -19.824  35.089  -7.902  1.00  0.00     0.188 HD
HETATM   10  N9  UNL     1     -19.523  36.541  -9.350  1.00  0.00    -0.220 N
ATOM     11  H9  UNL     1     -20.388  37.074  -9.262  1.00  0.00     0.210 HD
HETATM   12  N10 UNL     1     -18.565  36.827 -10.206  1.00  0.00    -0.160 N
HETATM   13  N11 UNL     1     -18.451  37.798 -11.134  1.00  0.00    -0.109 N
ATOM     14  H11 UNL     1     -19.196  38.485 -11.253  1.00  0.00     0.208 HD
ENDROOT
BRANCH   1  15
HETATM   15  N2  UNL     1     -17.173  38.714 -12.769  1.00  0.00    -0.220 N
ATOM     16  H2  UNL     1     -17.943  38.735 -13.439  1.00  0.00     0.178 HD
BRANCH  15  17
HETATM   17  C2  UNL     1     -16.196  39.662 -13.084  1.00  0.00     0.097 C
HETATM   18  C1  UNL     1     -14.766  39.186 -13.120  1.00  0.00     0.032 C
BRANCH  17  19
HETATM   19  C3  UNL     1     -16.276  40.951 -12.301  1.00  0.00     0.052 C
BRANCH  19  20
HETATM   20  C4  UNL     1     -15.937  42.151 -13.131  1.00  0.00     0.231 C
BRANCH  20  21
HETATM   21  N1  UNL     1     -17.135  42.883 -13.502  1.00  0.00    -0.079 N
ATOM     22  H13 UNL     1     -17.938  42.262 -13.607  1.00  0.00     0.274 HD
ATOM     23  H12 UNL     1     -17.481  43.455 -12.731  1.00  0.00     0.274 HD
ATOM     24  H11 UNL     1     -16.978  43.439 -14.343  1.00  0.00     0.274 HD
ENDBRANCH  20  21
ENDBRANCH  19  20
ENDBRANCH  17  19
ENDBRANCH  15  17
ENDBRANCH   1  15
BRANCH   7  25
HETATM   25  C9  UNL     1     -17.369  33.895  -8.354  1.00  0.00     0.140 C
BRANCH  25  26
HETATM   26  C10 UNL     1     -16.852  34.251  -7.022  1.00  0.00     0.118 A
HETATM   27  N4  UNL     1     -17.219  33.600  -5.908  1.00  0.00    -0.272 N
HETATM   28  N5  UNL     1     -16.584  34.136  -4.895  1.00  0.00    -0.227 N
ATOM     29  H4  UNL     1     -17.878  32.823  -5.858  1.00  0.00     0.190 HD
HETATM   30  N6  UNL     1     -15.820  35.114  -5.331  1.00  0.00    -0.227 N
ATOM     31  H5  UNL     1     -16.669  33.842  -3.922  1.00  0.00     0.210 HD
HETATM   32  N7  UNL     1     -15.987  35.182  -6.641  1.00  0.00    -0.272 N
ATOM     33  H6  UNL     1     -15.213  35.707  -4.766  1.00  0.00     0.210 HD
ATOM     34  H7  UNL     1     -15.523  35.846  -7.261  1.00  0.00     0.190 HD
ENDBRANCH  25  26
ENDBRANCH   7  25
TORSDOF 7
ENDMDL