MODEL 2
REMARK VINA RESULT: -5.156493379      3.003      5.973
REMARK  8 active torsions:
REMARK  status: ('A' for Active; 'I' for Inactive)
REMARK    1  A    between atoms: O1_2  and  C2_3
REMARK       I    between atoms: C2_3  and  N1_5
REMARK    2  A    between atoms: N1_5  and  C3_7
REMARK    3  A    between atoms: C4_11  and  O3_12
REMARK    4  A    between atoms: C4_11  and  C5_14
REMARK    5  A    between atoms: C5_14  and  O5_16
REMARK    6  A    between atoms: C7_18  and  O6_19
REMARK    7  A    between atoms: C7_18  and  O7_21
REMARK    8  A    between atoms: C10_25  and  N4_26
ROOT
HETATM    1  C3  UNL     1     -16.458  38.599 -11.317  1.00  0.00     0.343 C
HETATM    2  N2  UNL     1     -15.736  37.383 -11.366  1.00  0.00    -0.001 N
ATOM      3  H21 UNL     1     -14.965  37.399 -10.699  1.00  0.00     0.284 HD
ATOM      4  H22 UNL     1     -15.210  37.315 -12.238  1.00  0.00     0.284 HD
HETATM    5  C4  UNL     1     -16.553  36.196 -11.171  1.00  0.00     0.392 C
HETATM    6  C7  UNL     1     -17.469  36.290 -10.025  1.00  0.00     0.317 C
HETATM    7  N3  UNL     1     -18.083  37.571  -9.913  1.00  0.00    -0.334 N
ATOM      8  H3  UNL     1     -18.606  37.858  -9.085  1.00  0.00     0.160 HD
HETATM    9  C10 UNL     1     -17.914  38.411 -11.026  1.00  0.00     0.332 C
ENDROOT
BRANCH   1  10
HETATM   10  N1  UNL     1     -16.229  39.452 -12.474  1.00  0.00    -0.305 N
HETATM   11  C2  UNL     1     -15.800  40.802 -12.364  1.00  0.00     0.361 C
HETATM   12  O2  UNL     1     -15.616  41.262 -11.201  1.00  0.00    -0.238 OA
ATOM     13  H1  UNL     1     -16.382  39.063 -13.404  1.00  0.00     0.167 HD
BRANCH  11  14
HETATM   14  O1  UNL     1     -15.582  41.613 -13.461  1.00  0.00    -0.309 OA
HETATM   15  C1  UNL     1     -16.067  42.938 -13.420  1.00  0.00     0.215 C
ENDBRANCH  11  14
ENDBRANCH   1  10
BRANCH   9  16
HETATM   16  N4  UNL     1     -18.520  39.745 -10.729  1.00  0.00    -0.055 N
ATOM     17  H43 UNL     1     -17.851  40.393 -10.311  1.00  0.00     0.276 HD
ATOM     18  H42 UNL     1     -18.724  40.279 -11.574  1.00  0.00     0.276 HD
ATOM     19  H41 UNL     1     -19.345  39.607 -10.145  1.00  0.00     0.276 HD
ENDBRANCH   9  16
BRANCH   5  20
HETATM   20  O3  UNL     1     -17.342  36.144 -12.363  1.00  0.00    -0.351 OA
ATOM     21  H3  UNL     1     -18.175  36.506 -12.087  1.00  0.00     0.213 HD
ENDBRANCH   5  20
BRANCH   5  22
HETATM   22  C5  UNL     1     -15.653  35.044 -11.271  1.00  0.00     0.331 C
HETATM   23  O4  UNL     1     -14.777  34.808 -12.133  1.00  0.00    -0.259 OA
BRANCH  22  24
HETATM   24  O5  UNL     1     -15.738  34.021 -10.287  1.00  0.00    -0.322 OA
HETATM   25  C6  UNL     1     -14.934  32.871 -10.401  1.00  0.00     0.213 C
ENDBRANCH  22  24
ENDBRANCH   5  22
BRANCH   6  26
HETATM   26  O6  UNL     1     -16.898  36.060  -8.764  1.00  0.00    -0.339 OA
HETATM   27  C8  UNL     1     -17.527  35.201  -7.940  1.00  0.00     0.207 C
ENDBRANCH   6  26
BRANCH   6  28
HETATM   28  O7  UNL     1     -18.574  35.411 -10.178  1.00  0.00    -0.339 OA
HETATM   29  C9  UNL     1     -19.803  35.938 -10.190  1.00  0.00     0.207 C
ENDBRANCH   6  28
TORSDOF 8
ENDMDL