MODEL 5
REMARK VINA RESULT: -8.033089295      2.648      8.148
REMARK  6 active torsions:
REMARK  status: ('A' for Active; 'I' for Inactive)
REMARK    1  A    between atoms: C2_2  and  N1_3
REMARK       I    between atoms: N1_3  and  C3_5
REMARK    2  A    between atoms: C3_5  and  C4_7
REMARK    3  A    between atoms: C5_13  and  N5_14
REMARK    4  A    between atoms: N5_14  and  C6_16
REMARK    5  A    between atoms: C7_21  and  N8_22
REMARK    6  A    between atoms: C9_32  and  C10_33
ROOT
HETATM    1  C4  UNL     1     -17.001  37.104 -10.466  1.00  0.00     0.148 A
HETATM    2  N2  UNL     1     -16.120  37.998 -11.031  1.00  0.00    -0.257 N
ATOM      3  H2  UNL     1     -15.125  37.848 -10.869  1.00  0.00     0.190 HD
HETATM    4  N3  UNL     1     -16.469  39.024 -11.759  1.00  0.00    -0.004 N
HETATM    5  N4  UNL     1     -15.807  39.993 -12.390  1.00  0.00    -0.095 N
ATOM      6  H4  UNL     1     -14.792  40.097 -12.403  1.00  0.00     0.208 HD
HETATM    7  C5  UNL     1     -16.670  40.810 -13.004  1.00  0.00     0.728 A
HETATM    8  N10 UNL     1     -17.884  40.328 -12.743  1.00  0.00    -0.017 N
ATOM      9  H10 UNL     1     -18.761  40.731 -13.073  1.00  0.00     0.203 HD
HETATM   10  C8  UNL     1     -17.775  39.223 -11.973  1.00  0.00     0.734 A
HETATM   11  N11 UNL     1     -18.698  38.388 -11.449  1.00  0.00    -0.183 N
ATOM     12  H11 UNL     1     -19.689  38.557 -11.624  1.00  0.00     0.184 HD
HETATM   13  C9  UNL     1     -18.315  37.307 -10.678  1.00  0.00     0.120 A
ENDROOT
BRANCH   7  14
HETATM   14  N5  UNL     1     -16.398  41.972 -13.791  1.00  0.00    -0.018 N
ATOM     15  H5  UNL     1     -16.594  41.997 -14.792  1.00  0.00     0.203 HD
BRANCH  14  16
HETATM   16  C6  UNL     1     -15.887  42.999 -13.170  1.00  0.00     0.726 A
HETATM   17  N6  UNL     1     -15.794  43.198 -11.845  1.00  0.00    -0.117 N
HETATM   18  N7  UNL     1     -15.218  44.353 -11.569  1.00  0.00    -0.118 N
ATOM     19  H6  UNL     1     -16.126  42.539 -11.141  1.00  0.00     0.206 HD
HETATM   20  C7  UNL     1     -14.944  44.894 -12.769  1.00  0.00     0.705 A
ATOM     21  H7  UNL     1     -15.025  44.749 -10.648  1.00  0.00     0.206 HD
HETATM   22  N9  UNL     1     -15.349  44.074 -13.764  1.00  0.00    -0.019 N
ATOM     23  H9  UNL     1     -15.263  44.241 -14.766  1.00  0.00     0.203 HD
BRANCH  20  24
HETATM   24  N8  UNL     1     -14.377  46.028 -12.959  1.00  0.00    -0.233 N
ATOM     25  H82 UNL     1     -14.877  46.917 -13.000  1.00  0.00     0.174 HD
ATOM     26  H81 UNL     1     -13.377  46.173 -13.089  1.00  0.00     0.174 HD
ENDBRANCH  20  24
ENDBRANCH  14  16
ENDBRANCH   7  14
BRANCH   1  27
HETATM   27  C3  UNL     1     -16.447  36.045  -9.689  1.00  0.00     0.272 C
HETATM   28  N1  UNL     1     -16.464  35.858  -8.292  1.00  0.00    -0.356 N
ATOM     29  H1  UNL     1     -16.932  36.561  -7.720  1.00  0.00     0.162 HD
HETATM   30  O1  UNL     1     -15.848  35.108 -10.350  1.00  0.00    -0.266 OA
BRANCH  28  31
HETATM   31  C2  UNL     1     -15.857  34.729  -7.623  1.00  0.00     0.118 C
HETATM   32  C1  UNL     1     -15.495  35.033  -6.200  1.00  0.00     0.026 C
ENDBRANCH  28  31
ENDBRANCH   1  27
BRANCH  13  33
HETATM   33  C10 UNL     1     -19.346  36.488 -10.092  1.00  0.00     0.291 C
HETATM   34  O2  UNL     1     -20.198  35.787 -10.644  1.00  0.00    -0.300 OA
ENDBRANCH  13  33
TORSDOF 6
ENDMDL