MODEL 5
REMARK VINA RESULT: -6.904822686      2.610      6.576
REMARK  5 active torsions:
REMARK  status: ('A' for Active; 'I' for Inactive)
REMARK    1  A    between atoms: C2_2  and  C4_4
REMARK    2  A    between atoms: C2_2  and  N5_17
REMARK       I    between atoms: C4_4  and  N1_6
REMARK    3  A    between atoms: N1_6  and  C5_8
REMARK    4  A    between atoms: C5_8  and  C6_14
REMARK    5  A    between atoms: N2_9  and  N3_11
ROOT
HETATM    1  C4  UNL     1     -16.752  38.825 -12.629  1.00  0.00     0.251 C
HETATM    2  O1  UNL     1     -17.657  38.349 -13.342  1.00  0.00    -0.270 OA
HETATM    3  N1  UNL     1     -16.630  38.500 -11.279  1.00  0.00    -0.306 N
ATOM      4  H1  UNL     1     -15.849  38.956 -10.808  1.00  0.00     0.170 HD
ENDROOT
BRANCH   1   5
HETATM    5  C2  UNL     1     -15.776  39.782 -13.294  1.00  0.00     0.111 C
HETATM    6  C1  UNL     1     -14.423  39.704 -12.652  1.00  0.00     0.049 C
HETATM    7  C3  UNL     1     -15.626  39.353 -14.734  1.00  0.00     0.049 C
BRANCH   5   8
HETATM    8  N5  UNL     1     -16.321  41.127 -13.307  1.00  0.00    -0.334 N
HETATM    9  C7  UNL     1     -15.827  42.230 -12.726  1.00  0.00     0.110 A
HETATM   10  C8  UNL     1     -16.642  43.312 -12.974  1.00  0.00     0.106 A
HETATM   11  N6  UNL     1     -17.655  42.847 -13.722  1.00  0.00    -0.361 N
HETATM   12  C9  UNL     1     -17.463  41.531 -13.923  1.00  0.00     0.183 A
ATOM     13  H6  UNL     1     -18.436  43.397 -14.077  1.00  0.00     0.166 HD
ENDBRANCH   5   8
ENDBRANCH   1   5
BRANCH   3  14
HETATM   14  C5  UNL     1     -17.385  37.663 -10.456  1.00  0.00     0.188 C
HETATM   15  N2  UNL     1     -18.684  37.874 -10.524  1.00  0.00    -0.288 N
ATOM     16  H2  UNL     1     -18.977  38.614 -11.162  1.00  0.00     0.188 HD
BRANCH  15  17
HETATM   17  N3  UNL     1     -19.681  37.248  -9.866  1.00  0.00    -0.343 N
ATOM     18  H32 UNL     1     -20.614  37.447 -10.228  1.00  0.00     0.176 HD
ATOM     19  H31 UNL     1     -19.625  36.612  -9.070  1.00  0.00     0.176 HD
ENDBRANCH  15  17
BRANCH  14  20
HETATM   20  C6  UNL     1     -17.001  36.622  -9.558  1.00  0.00     0.300 C
HETATM   21  N4  UNL     1     -17.566  35.289  -9.614  1.00  0.00    -0.054 NA
HETATM   22  O2  UNL     1     -16.159  36.769  -8.660  1.00  0.00    -0.268 OA
ENDBRANCH  14  20
ENDBRANCH   3  14
TORSDOF 5
ENDMDL