MODEL 4
REMARK VINA RESULT: -6.838848794      2.840      7.502
REMARK  4 active torsions:
REMARK  status: ('A' for Active; 'I' for Inactive)
REMARK       I    between atoms: C2_2  and  N1_4
REMARK    1  A    between atoms: N2_7  and  C5_8
REMARK    2  A    between atoms: C6_9  and  C7_10
REMARK    3  A    between atoms: C7_10  and  O2_11
REMARK    4  A    between atoms: N3_13  and  N4_15
ROOT
HETATM    1  C1  UNL     1     -17.031  43.178 -13.704  1.00  0.00     0.117 C
HETATM    2  C2  UNL     1     -15.890  42.258 -13.530  1.00  0.00     0.222 C
HETATM    3  O1  UNL     1     -14.731  42.715 -13.585  1.00  0.00    -0.273 OA
HETATM    4  N1  UNL     1     -16.151  40.879 -13.305  1.00  0.00    -0.289 N
HETATM    5  C3  UNL     1     -17.513  40.399 -13.250  1.00  0.00     0.156 C
HETATM    6  C4  UNL     1     -17.588  38.926 -13.039  1.00  0.00     0.168 C
HETATM    7  N2  UNL     1     -16.506  38.573 -12.108  1.00  0.00    -0.299 N
HETATM    8  N5  UNL     1     -15.230  38.871 -12.544  1.00  0.00    -0.271 N
ATOM      9  H5  UNL     1     -14.466  38.212 -12.398  1.00  0.00     0.190 HD
HETATM   10  C8  UNL     1     -15.018  39.997 -13.137  1.00  0.00     0.212 C
HETATM   11  N6  UNL     1     -13.737  40.380 -13.615  1.00  0.00    -0.062 NA
ENDROOT
BRANCH   7  12
HETATM   12  C5  UNL     1     -16.853  37.977 -10.887  1.00  0.00     0.114 C
HETATM   13  C6  UNL     1     -16.707  36.679 -10.718  1.00  0.00     0.076 C
BRANCH  13  14
HETATM   14  C7  UNL     1     -17.048  36.004  -9.482  1.00  0.00     0.155 C
HETATM   15  N3  UNL     1     -16.181  35.916  -8.541  1.00  0.00    -0.287 N
ATOM     16  H3  UNL     1     -15.252  36.319  -8.662  1.00  0.00     0.188 HD
BRANCH  14  17
HETATM   17  O2  UNL     1     -18.301  35.460  -9.318  1.00  0.00    -0.345 OA
ATOM     18  H2  UNL     1     -18.529  35.029  -8.503  1.00  0.00     0.219 HD
ENDBRANCH  14  17
BRANCH  15  19
HETATM   19  N4  UNL     1     -16.511  35.266  -7.351  1.00  0.00    -0.343 N
ATOM     20  H42 UNL     1     -17.476  35.294  -7.021  1.00  0.00     0.176 HD
ATOM     21  H41 UNL     1     -15.790  34.772  -6.825  1.00  0.00     0.176 HD
ENDBRANCH  15  19
ENDBRANCH  13  14
ENDBRANCH   7  12
TORSDOF 4
ENDMDL