MODEL 3
REMARK VINA RESULT: -6.976625749      2.264      5.556
REMARK  4 active torsions:
REMARK  status: ('A' for Active; 'I' for Inactive)
REMARK    1  A    between atoms: C3_3  and  O1_4
REMARK    2  A    between atoms: C4_7  and  C5_8
REMARK    3  A    between atoms: C5_8  and  N1_10
REMARK    4  A    between atoms: C7_16  and  N2_17
REMARK       I    between atoms: N2_17  and  C8_19
ROOT
HETATM    1  C1  UNL     1     -19.854  37.150  -9.244  1.00  0.00     0.018 C
HETATM    2  C2  UNL     1     -19.069  37.278 -10.154  1.00  0.00    -0.045 C
HETATM    3  C3  UNL     1     -18.113  37.459 -11.263  1.00  0.00     0.280 C
HETATM    4  O2  UNL     1     -18.405  38.608 -11.997  1.00  0.00    -0.306 OA
HETATM    5  C4  UNL     1     -17.294  38.788 -12.821  1.00  0.00     0.331 C
HETATM    6  O3  UNL     1     -16.274  39.215 -12.014  1.00  0.00    -0.203 OA
HETATM    7  O4  UNL     1     -15.819  38.244 -11.320  1.00  0.00    -0.205 OA
HETATM    8  C7  UNL     1     -16.728  37.402 -10.745  1.00  0.00     0.338 C
ENDROOT
BRANCH   3   9
HETATM    9  O1  UNL     1     -18.345  36.378 -12.136  1.00  0.00    -0.352 OA
ATOM     10  H1  UNL     1     -17.627  36.399 -12.758  1.00  0.00     0.214 HD
ENDBRANCH   3   9
BRANCH   8  11
HETATM   11  N2  UNL     1     -16.222  36.038 -10.897  1.00  0.00    -0.327 N
HETATM   12  C8  UNL     1     -15.934  35.215  -9.777  1.00  0.00     0.215 C
HETATM   13  C9  UNL     1     -15.425  33.845  -9.930  1.00  0.00     0.117 C
HETATM   14  O5  UNL     1     -16.132  35.709  -8.633  1.00  0.00    -0.274 OA
ATOM     15  H2  UNL     1     -16.073  35.667 -11.836  1.00  0.00     0.165 HD
ENDBRANCH   8  11
BRANCH   5  16
HETATM   16  C5  UNL     1     -17.575  39.677 -13.995  1.00  0.00     0.237 C
HETATM   17  C6  UNL     1     -17.562  41.132 -13.659  1.00  0.00     0.045 C
BRANCH  16  18
HETATM   18  N1  UNL     1     -16.577  39.380 -15.009  1.00  0.00    -0.071 N
ATOM     19  H13 UNL     1     -15.911  40.140 -15.148  1.00  0.00     0.274 HD
ATOM     20  H12 UNL     1     -15.907  38.670 -14.715  1.00  0.00     0.274 HD
ATOM     21  H11 UNL     1     -17.078  39.129 -15.861  1.00  0.00     0.274 HD
ENDBRANCH  16  18
ENDBRANCH   5  16
TORSDOF 4
ENDMDL