MODEL 2
REMARK VINA RESULT: -6.823608864      2.902      3.856
REMARK  3 active torsions:
REMARK  status: ('A' for Active; 'I' for Inactive)
REMARK       I    between atoms: C1_2  and  N2_4
REMARK    1  A    between atoms: N2_4  and  C2_6
REMARK    2  A    between atoms: C3_11  and  S1_12
REMARK    3  A    between atoms: S1_12  and  N5_13
ROOT
HETATM    1  C2  UNL     1     -18.127  35.354  -8.042  1.00  0.00     0.169 A
HETATM    2  N3  UNL     1     -16.829  35.277  -8.336  1.00  0.00    -0.278 N
ATOM      3  H3  UNL     1     -16.200  34.710  -7.767  1.00  0.00     0.189 HD
HETATM    4  N4  UNL     1     -16.389  35.920  -9.336  1.00  0.00    -0.281 N
ATOM      5  H4  UNL     1     -15.398  35.870  -9.572  1.00  0.00     0.188 HD
HETATM    6  C3  UNL     1     -17.203  36.655 -10.077  1.00  0.00     0.208 A
HETATM    7  S2  UNL     1     -18.691  36.402  -9.281  1.00  0.00    -0.020 SA
ENDROOT
BRANCH   6   8
HETATM    8  S1  UNL     1     -16.774  37.605 -11.488  1.00  0.00     0.280 S
HETATM    9  O2  UNL     1     -17.779  37.383 -12.579  1.00  0.00    -0.199 OA
HETATM   10  O3  UNL     1     -15.432  37.161 -11.997  1.00  0.00    -0.199 OA
BRANCH   8  11
HETATM   11  N5  UNL     1     -16.710  39.277 -11.071  1.00  0.00    -0.323 N
ATOM     12  H52 UNL     1     -17.130  40.023 -11.625  1.00  0.00     0.169 HD
ATOM     13  H51 UNL     1     -16.193  39.397 -10.199  1.00  0.00     0.169 HD
ENDBRANCH   8  11
ENDBRANCH   6   8
BRANCH   1  14
HETATM   14  N2  UNL     1     -18.769  34.767  -7.056  1.00  0.00    -0.290 N
HETATM   15  C1  UNL     1     -18.305  34.920  -5.725  1.00  0.00     0.334 C
HETATM   16  N1  UNL     1     -16.933  35.086  -5.392  1.00  0.00    -0.040 NA
HETATM   17  O1  UNL     1     -19.171  34.905  -4.798  1.00  0.00    -0.251 OA
ATOM     18  H2  UNL     1     -19.599  34.205  -7.248  1.00  0.00     0.172 HD
ENDBRANCH   1  14
TORSDOF 3
ENDMDL