MODEL 1
REMARK VINA RESULT: -7.531965527      0.000      0.000
REMARK  4 active torsions:
REMARK  status: ('A' for Active; 'I' for Inactive)
REMARK    1  A    between atoms: N1_2  and  C2_4
REMARK    2  A    between atoms: C3_7  and  N3_8
REMARK       I    between atoms: N3_8  and  C4_10
REMARK    3  A    between atoms: C4_10  and  C5_12
REMARK    4  A    between atoms: C6_15  and  N5_16
ROOT
HETATM    1  C2  UNL     1     -18.344  37.364 -11.347  1.00  0.00     0.679 A
HETATM    2  N2  UNL     1     -18.442  38.430 -12.132  1.00  0.00    -0.174 N
ATOM      3  H2  UNL     1     -19.372  38.787 -12.352  1.00  0.00     0.186 HD
HETATM    4  C3  UNL     1     -17.378  39.061 -12.650  1.00  0.00     0.158 A
HETATM    5  C6  UNL     1     -16.131  38.613 -12.377  1.00  0.00     0.163 A
HETATM    6  C7  UNL     1     -16.042  37.482 -11.542  1.00  0.00     0.146 A
HETATM    7  N6  UNL     1     -17.112  36.870 -11.039  1.00  0.00    -0.199 N
ATOM      8  H6  UNL     1     -17.011  36.053 -10.437  1.00  0.00     0.183 HD
ENDROOT
BRANCH   4   9
HETATM    9  N3  UNL     1     -17.619  40.198 -13.439  1.00  0.00    -0.303 N
HETATM   10  C4  UNL     1     -17.827  40.085 -14.865  1.00  0.00     0.312 C
HETATM   11  O1  UNL     1     -17.782  38.966 -15.418  1.00  0.00    -0.262 OA
ATOM     12  H3  UNL     1     -17.647  41.118 -12.998  1.00  0.00     0.171 HD
BRANCH  10  13
HETATM   13  C5  UNL     1     -18.092  41.287 -15.659  1.00  0.00     0.322 C
HETATM   14  N4  UNL     1     -17.397  42.478 -15.358  1.00  0.00    -0.053 NA
HETATM   15  O2  UNL     1     -18.908  41.293 -16.588  1.00  0.00    -0.266 OA
ENDBRANCH  10  13
ENDBRANCH   4   9
BRANCH   5  16
HETATM   16  N5  UNL     1     -14.969  39.211 -12.869  1.00  0.00    -0.110 N
HETATM   17  O3  UNL     1     -14.190  39.891 -12.223  1.00  0.00    -0.532 OA
HETATM   18  O4  UNL     1     -14.704  39.039 -14.230  1.00  0.00    -0.532 OA
ENDBRANCH   5  16
BRANCH   1  19
HETATM   19  N1  UNL     1     -19.342  36.723 -10.826  1.00  0.00    -0.230 N
HETATM   20  C1  UNL     1     -19.521  36.753  -9.389  1.00  0.00     0.165 C
ATOM     21  H1  UNL     1     -19.991  36.206 -11.419  1.00  0.00     0.177 HD
ENDBRANCH   1  19
TORSDOF 4
ENDMDL