MODEL 2
REMARK VINA RESULT: -8.089357631      1.114      1.114
REMARK  4 active torsions:
REMARK  status: ('A' for Active; 'I' for Inactive)
REMARK       I    between atoms: C2_2  and  N1_4
REMARK    1  A    between atoms: N1_4  and  C3_6
REMARK    2  A    between atoms: C4_11  and  C5_12
REMARK    3  A    between atoms: C5_12  and  C6_14
REMARK       I    between atoms: C6_14  and  N4_16
REMARK    4  A    between atoms: N4_16  and  N5_18
ROOT
HETATM    1  C3  UNL     1     -18.152  36.337  -9.682  1.00  0.00     0.168 A
HETATM    2  N2  UNL     1     -17.052  35.770 -10.181  1.00  0.00    -0.278 N
ATOM      3  H2  UNL     1     -16.738  34.860  -9.843  1.00  0.00     0.189 HD
HETATM    4  N3  UNL     1     -16.403  36.384 -11.086  1.00  0.00    -0.288 N
ATOM      5  H3  UNL     1     -15.559  35.968 -11.480  1.00  0.00     0.188 HD
HETATM    6  C4  UNL     1     -16.820  37.562 -11.517  1.00  0.00     0.148 A
HETATM    7  S1  UNL     1     -18.220  37.796 -10.567  1.00  0.00    -0.029 SA
ENDROOT
BRANCH   6   8
HETATM    8  C5  UNL     1     -16.214  38.432 -12.551  1.00  0.00     0.275 C
HETATM    9  O2  UNL     1     -14.982  38.459 -12.643  1.00  0.00    -0.279 OA
BRANCH   8  10
HETATM   10  C6  UNL     1     -17.058  39.212 -13.414  1.00  0.00     0.312 C
HETATM   11  O3  UNL     1     -17.344  38.797 -14.553  1.00  0.00    -0.262 OA
HETATM   12  N4  UNL     1     -17.566  40.451 -12.977  1.00  0.00    -0.270 N
ATOM     13  H4  UNL     1     -17.319  40.773 -12.041  1.00  0.00     0.189 HD
BRANCH  12  14
HETATM   14  N5  UNL     1     -18.392  41.261 -13.762  1.00  0.00    -0.342 N
ATOM     15  H52 UNL     1     -17.949  42.019 -14.281  1.00  0.00     0.176 HD
ATOM     16  H51 UNL     1     -19.400  41.126 -13.835  1.00  0.00     0.176 HD
ENDBRANCH  12  14
ENDBRANCH   8  10
ENDBRANCH   6   8
BRANCH   1  17
HETATM   17  N1  UNL     1     -18.945  35.854  -8.749  1.00  0.00    -0.306 N
HETATM   18  C2  UNL     1     -18.453  34.791  -7.924  1.00  0.00     0.219 C
HETATM   19  C1  UNL     1     -18.353  34.958  -6.470  1.00  0.00     0.117 C
HETATM   20  O1  UNL     1     -18.107  33.709  -8.449  1.00  0.00    -0.274 OA
ATOM     21  H1  UNL     1     -19.885  36.227  -8.616  1.00  0.00     0.171 HD
ENDBRANCH   1  17
TORSDOF 4
ENDMDL