MODEL 5
REMARK VINA RESULT: -4.801288865      7.003      9.210
REMARK  3 active torsions:
REMARK  status: ('A' for Active; 'I' for Inactive)
REMARK    1  A    between atoms: N1_2  and  C3_4
REMARK    2  A    between atoms: C6_12  and  N5_13
REMARK    3  A    between atoms: N5_13  and  C8_15
ROOT
HETATM    1  C3  UNL     1     -16.356  41.605 -12.815  1.00  0.00     0.347 C
HETATM    2  N2  UNL     1     -15.045  41.071 -12.970  1.00  0.00    -0.333 N
ATOM      3  H2  UNL     1     -14.253  41.659 -13.230  1.00  0.00     0.164 HD
HETATM    4  C4  UNL     1     -14.901  39.682 -12.744  1.00  0.00     0.185 C
HETATM    5  N3  UNL     1     -13.638  39.054 -12.725  1.00  0.00    -0.064 NA
HETATM    6  N4  UNL     1     -15.955  38.929 -12.542  1.00  0.00    -0.363 N
ATOM      7  H4  UNL     1     -15.795  37.934 -12.385  1.00  0.00     0.162 HD
HETATM    8  C5  UNL     1     -17.306  39.388 -12.524  1.00  0.00     0.151 C
HETATM    9  C6  UNL     1     -17.435  40.671 -13.299  1.00  0.00     0.157 C
ENDROOT
BRANCH   9  10
HETATM   10  N5  UNL     1     -17.449  40.382 -14.684  1.00  0.00    -0.348 N
HETATM   11  C7  UNL     1     -16.474  39.501 -15.331  1.00  0.00     0.153 C
BRANCH  10  12
HETATM   12  C8  UNL     1     -18.390  40.984 -15.545  1.00  0.00     0.173 C
HETATM   13  N6  UNL     1     -19.604  40.645 -15.803  1.00  0.00    -0.361 N
HETATM   14  C9  UNL     1     -20.219  41.544 -16.752  1.00  0.00     0.142 C
ATOM     15  H6  UNL     1     -20.074  39.841 -15.388  1.00  0.00     0.162 HD
HETATM   16  C10 UNL     1     -19.125  42.473 -17.227  1.00  0.00     0.142 C
HETATM   17  N7  UNL     1     -18.059  42.152 -16.329  1.00  0.00    -0.361 N
ATOM     18  H7  UNL     1     -17.187  42.676 -16.252  1.00  0.00     0.162 HD
ENDBRANCH  10  12
ENDBRANCH   9  10
BRANCH   1  19
HETATM   19  N1  UNL     1     -16.525  42.947 -13.287  1.00  0.00     0.105 N
HETATM   20  C1  UNL     1     -16.550  43.891 -12.180  1.00  0.00     0.312 C
HETATM   21  C2  UNL     1     -15.568  43.392 -14.229  1.00  0.00     0.312 C
ENDBRANCH   1  19
TORSDOF 3
ENDMDL