MODEL 3
REMARK VINA RESULT: -6.796892634      2.077      2.888
REMARK  6 active torsions:
REMARK  status: ('A' for Active; 'I' for Inactive)
REMARK    1  A    between atoms: C3_3  and  N1_5
REMARK    2  A    between atoms: C3_3  and  O1_9
REMARK    3  A    between atoms: O1_9  and  C5_10
REMARK    4  A    between atoms: C5_10  and  O3_12
REMARK    5  A    between atoms: O3_12  and  C6_13
REMARK    6  A    between atoms: C6_13  and  S1_14
ROOT
HETATM    1  C1  UNL     1     -15.721  35.602  -6.384  1.00  0.00     0.017 C
HETATM    2  C2  UNL     1     -16.090  35.621  -7.539  1.00  0.00    -0.050 C
HETATM    3  C3  UNL     1     -16.520  35.661  -8.916  1.00  0.00     0.293 C
HETATM    4  C4  UNL     1     -15.743  34.724  -9.774  1.00  0.00     0.094 C
ENDROOT
BRANCH   3   5
HETATM    5  N1  UNL     1     -17.929  35.249  -8.988  1.00  0.00    -0.035 N
ATOM      6  H13 UNL     1     -18.109  34.389  -8.471  1.00  0.00     0.279 HD
ATOM      7  H12 UNL     1     -18.543  35.865  -8.456  1.00  0.00     0.279 HD
ATOM      8  H11 UNL     1     -18.203  35.178  -9.967  1.00  0.00     0.279 HD
ENDBRANCH   3   5
BRANCH   3   9
HETATM    9  O1  UNL     1     -16.507  36.999  -9.435  1.00  0.00    -0.247 OA
BRANCH   9  10
HETATM   10  C5  UNL     1     -16.825  37.150 -10.788  1.00  0.00     0.410 C
HETATM   11  O2  UNL     1     -17.968  36.807 -11.197  1.00  0.00    -0.229 OA
BRANCH  10  12
HETATM   12  O3  UNL     1     -15.928  37.666 -11.705  1.00  0.00    -0.280 OA
BRANCH  12  13
HETATM   13  C6  UNL     1     -16.204  38.927 -12.293  1.00  0.00     0.345 C
BRANCH  13  14
HETATM   14  S1  UNL     1     -14.878  39.523 -13.275  1.00  0.00     0.126 S
HETATM   15  O4  UNL     1     -14.901  41.043 -13.271  1.00  0.00    -0.593 OA
HETATM   16  O5  UNL     1     -13.550  39.008 -12.820  1.00  0.00    -0.593 OA
HETATM   17  O6  UNL     1     -15.156  39.051 -14.865  1.00  0.00    -0.593 OA
ENDBRANCH  13  14
ENDBRANCH  12  13
ENDBRANCH  10  12
ENDBRANCH   9  10
ENDBRANCH   3   9
TORSDOF 6
ENDMDL