MODEL 3
REMARK VINA RESULT: -7.259877657      2.832      3.770
REMARK  4 active torsions:
REMARK  status: ('A' for Active; 'I' for Inactive)
REMARK       I    between atoms: C2_2  and  N1_4
REMARK    1  A    between atoms: N1_4  and  C3_6
REMARK    2  A    between atoms: C4_11  and  S1_12
REMARK    3  A    between atoms: S1_12  and  N4_15
REMARK    4  A    between atoms: N4_15  and  N5_17
ROOT
HETATM    1  C3  UNL     1     -17.608  34.787  -8.498  1.00  0.00     0.168 A
HETATM    2  N2  UNL     1     -16.466  34.585  -9.161  1.00  0.00    -0.278 N
ATOM      3  H2  UNL     1     -15.865  33.794  -8.933  1.00  0.00     0.189 HD
HETATM    4  N3  UNL     1     -16.144  35.400 -10.083  1.00  0.00    -0.281 N
ATOM      5  H3  UNL     1     -15.276  35.264 -10.602  1.00  0.00     0.188 HD
HETATM    6  C4  UNL     1     -16.932  36.424 -10.372  1.00  0.00     0.210 A
HETATM    7  S2  UNL     1     -18.205  36.199  -9.252  1.00  0.00    -0.020 SA
ENDROOT
BRANCH   6   8
HETATM    8  S1  UNL     1     -16.712  37.683 -11.594  1.00  0.00     0.299 S
HETATM    9  O2  UNL     1     -17.762  37.441 -12.644  1.00  0.00    -0.197 OA
HETATM   10  O3  UNL     1     -15.353  37.544 -12.206  1.00  0.00    -0.197 OA
BRANCH   8  11
HETATM   11  N4  UNL     1     -16.892  39.197 -10.833  1.00  0.00    -0.228 N
ATOM     12  H4  UNL     1     -17.438  39.337  -9.982  1.00  0.00     0.199 HD
BRANCH  11  13
HETATM   13  N5  UNL     1     -16.217  40.227 -11.492  1.00  0.00    -0.336 N
ATOM     14  H52 UNL     1     -15.935  41.087 -11.023  1.00  0.00     0.177 HD
ATOM     15  H51 UNL     1     -16.043  40.025 -12.477  1.00  0.00     0.177 HD
ENDBRANCH  11  13
ENDBRANCH   8  11
ENDBRANCH   6   8
BRANCH   1  16
HETATM   16  N1  UNL     1     -18.111  34.064  -7.523  1.00  0.00    -0.306 N
HETATM   17  C2  UNL     1     -18.132  34.678  -6.244  1.00  0.00     0.219 C
HETATM   18  C1  UNL     1     -16.912  34.835  -5.416  1.00  0.00     0.117 C
HETATM   19  O1  UNL     1     -19.210  35.106  -5.787  1.00  0.00    -0.274 OA
ATOM     20  H1  UNL     1     -18.464  33.120  -7.676  1.00  0.00     0.171 HD
ENDBRANCH   1  16
TORSDOF 4
ENDMDL