MODEL 2
REMARK VINA RESULT: -6.102181371      2.313      3.402
REMARK  3 active torsions:
REMARK  status: ('A' for Active; 'I' for Inactive)
REMARK    1  A    between atoms: N1_2  and  C3_4
REMARK    2  A    between atoms: C5_8  and  C6_9
REMARK       I    between atoms: C6_9  and  N3_11
REMARK    3  A    between atoms: N3_11  and  N4_12
REMARK       I    between atoms: N3_11  and  C7_15
REMARK       I    between atoms: C7_15  and  N5_16
REMARK       I    between atoms: C7_15  and  N6_20
ROOT
HETATM    1  C6  UNL     1     -17.484  37.782 -11.706  1.00  0.00     0.260 C
HETATM    2  O1  UNL     1     -18.328  37.111 -12.360  1.00  0.00    -0.270 OA
HETATM    3  N3  UNL     1     -17.080  39.010 -12.283  1.00  0.00    -0.211 N
HETATM    4  C7  UNL     1     -17.592  39.490 -13.555  1.00  0.00     0.503 C
HETATM    5  N5  UNL     1     -18.247  40.776 -13.424  1.00  0.00    -0.031 N
ATOM      6  H51 UNL     1     -18.607  41.113 -14.317  1.00  0.00     0.279 HD
ATOM      7  H52 UNL     1     -17.630  41.463 -12.990  1.00  0.00     0.279 HD
ATOM      8  H53 UNL     1     -18.980  40.748 -12.716  1.00  0.00     0.279 HD
HETATM    9  N6  UNL     1     -16.516  39.628 -14.486  1.00  0.00    -0.031 N
ATOM     10  H61 UNL     1     -16.876  39.965 -15.379  1.00  0.00     0.279 HD
ATOM     11  H62 UNL     1     -15.983  38.764 -14.588  1.00  0.00     0.279 HD
ATOM     12  H63 UNL     1     -15.769  40.220 -14.124  1.00  0.00     0.279 HD
ENDROOT
BRANCH   3  13
HETATM   13  N4  UNL     1     -16.151  39.799 -11.609  1.00  0.00    -0.337 N
ATOM     14  H42 UNL     1     -15.184  39.789 -11.935  1.00  0.00     0.177 HD
ATOM     15  H41 UNL     1     -16.461  40.358 -10.815  1.00  0.00     0.177 HD
ENDBRANCH   3  13
BRANCH   1  16
HETATM   16  C5  UNL     1     -16.926  37.363 -10.428  1.00  0.00     0.187 C
HETATM   17  C4  UNL     1     -16.115  36.091 -10.467  1.00  0.00     0.088 C
HETATM   18  N2  UNL     1     -16.229  35.357  -9.279  1.00  0.00    -0.349 N
HETATM   19  C3  UNL     1     -17.225  35.521  -8.526  1.00  0.00     0.142 C
ATOM     20  H2  UNL     1     -15.503  34.689  -9.023  1.00  0.00     0.167 HD
HETATM   21  S1  UNL     1     -18.251  36.763  -9.285  1.00  0.00    -0.074 SA
BRANCH  19  22
HETATM   22  N1  UNL     1     -17.484  34.871  -7.319  1.00  0.00    -0.370 N
HETATM   23  C1  UNL     1     -18.705  34.149  -7.061  1.00  0.00     0.151 C
HETATM   24  C2  UNL     1     -16.495  34.899  -6.234  1.00  0.00     0.151 C
ENDBRANCH  19  22
ENDBRANCH   1  16
TORSDOF 3
ENDMDL