MODEL 5
REMARK VINA RESULT: -8.755973541      0.994      1.194
REMARK  12 active torsions:
REMARK  status: ('A' for Active; 'I' for Inactive)
REMARK    1  A    between atoms: C2_2  and  C4_4
REMARK    2  A    between atoms: C4_4  and  O1_5
REMARK    3  A    between atoms: C4_4  and  C5_7
REMARK    4  A    between atoms: C5_7  and  N1_8
REMARK    5  A    between atoms: N1_8  and  C6_10
REMARK    6  A    between atoms: C6_10  and  C7_11
REMARK    7  A    between atoms: C6_10  and  N4_33
REMARK    8  A    between atoms: C7_11  and  C8_12
REMARK    9  A    between atoms: C7_11  and  C18_26
REMARK   10  A    between atoms: C8_12  and  C9_13
REMARK       I    between atoms: C9_13  and  N2_15
REMARK   11  A    between atoms: N2_15  and  C10_17
REMARK   12  A    between atoms: C18_26  and  C19_27
ROOT
HETATM    1  C10 UNL     1      31.360  40.241  40.856  1.00  0.00     0.126 C
HETATM    2  C11 UNL     1      31.260  38.871  40.333  1.00  0.00     0.091 C
HETATM    3  N3  UNL     1      31.167  37.790  39.936  1.00  0.00    -0.195 NA
HETATM    4  C12 UNL     1      32.813  40.669  40.586  1.00  0.00     0.051 C
HETATM    5  C13 UNL     1      33.511  40.657  41.904  1.00  0.00    -0.011 C
HETATM    6  C14 UNL     1      33.085  41.904  42.647  1.00  0.00     0.005 C
HETATM    7  C15 UNL     1      31.586  41.675  42.819  1.00  0.00     0.009 C
HETATM    8  C16 UNL     1      31.320  40.265  42.348  1.00  0.00     0.029 C
HETATM    9  C17 UNL     1      32.677  39.616  42.673  1.00  0.00     0.012 C
ENDROOT
BRANCH   1  10
HETATM   10  N2  UNL     1      30.448  41.125  40.204  1.00  0.00    -0.335 N
HETATM   11  C9  UNL     1      30.541  41.356  38.777  1.00  0.00     0.243 C
HETATM   12  O2  UNL     1      31.455  40.758  38.115  1.00  0.00    -0.269 OA
ATOM     13  H2  UNL     1      29.725  41.597  40.747  1.00  0.00     0.164 HD
BRANCH  11  14
HETATM   14  C8  UNL     1      29.605  42.256  38.130  1.00  0.00     0.088 C
BRANCH  14  15
HETATM   15  C7  UNL     1      29.504  42.362  36.667  1.00  0.00     0.004 C
BRANCH  15  16
HETATM   16  C6  UNL     1      28.864  41.350  35.850  1.00  0.00     0.087 C
BRANCH  16  17
HETATM   17  N1  UNL     1      27.981  41.472  34.799  1.00  0.00    -0.378 N
ATOM     18  H1  UNL     1      27.002  41.590  35.061  1.00  0.00     0.160 HD
BRANCH  17  19
HETATM   19  C5  UNL     1      28.236  41.457  33.444  1.00  0.00     0.153 C
BRANCH  19  20
HETATM   20  C4  UNL     1      26.957  41.955  32.728  1.00  0.00     0.139 C
BRANCH  20  21
HETATM   21  C2  UNL     1      27.116  41.818  31.239  1.00  0.00     0.008 C
HETATM   22  C1  UNL     1      26.674  40.432  30.838  1.00  0.00     0.012 C
HETATM   23  C3  UNL     1      28.570  41.989  30.850  1.00  0.00     0.012 C
ENDBRANCH  20  21
BRANCH  20  24
HETATM   24  O1  UNL     1      26.839  43.300  33.044  1.00  0.00    -0.394 OA
ATOM     25  H1  UNL     1      27.486  43.518  33.704  1.00  0.00     0.210 HD
ENDBRANCH  20  24
ENDBRANCH  19  20
ENDBRANCH  17  19
ENDBRANCH  16  17
BRANCH  16  26
HETATM   26  N4  UNL     1      28.303  40.262  36.774  1.00  0.00    -0.277 NA
HETATM   27  C25 UNL     1      28.952  39.049  36.234  1.00  0.00     0.118 C
HETATM   28  C26 UNL     1      26.891  40.087  36.481  1.00  0.00     0.118 C
ENDBRANCH  16  26
ENDBRANCH  15  16
BRANCH  15  29
HETATM   29  C18 UNL     1      29.237  43.811  36.297  1.00  0.00    -0.007 C
BRANCH  29  30
HETATM   30  C19 UNL     1      30.178  44.678  35.641  1.00  0.00     0.009 C
HETATM   31  C20 UNL     1      30.174  46.138  35.657  1.00  0.00     0.008 C
HETATM   32  C21 UNL     1      31.466  46.640  34.968  1.00  0.00     0.001 C
HETATM   33  C22 UNL     1      32.143  45.595  34.167  1.00  0.00     0.000 C
HETATM   34  C23 UNL     1      31.208  44.731  33.359  1.00  0.00     0.001 C
HETATM   35  C24 UNL     1      30.002  44.311  34.112  1.00  0.00     0.008 C
ENDBRANCH  29  30
ENDBRANCH  15  29
ENDBRANCH  14  15
ENDBRANCH  11  14
ENDBRANCH   1  10
TORSDOF 12
ENDMDL