MODEL 3
REMARK VINA RESULT: -7.901638494      2.269      4.180
REMARK  14 active torsions:
REMARK  status: ('A' for Active; 'I' for Inactive)
REMARK    1  A    between atoms: C2_2  and  C3_3
REMARK    2  A    between atoms: C3_3  and  O1_4
REMARK    3  A    between atoms: O1_4  and  C4_5
REMARK       I    between atoms: C4_5  and  N1_7
REMARK    4  A    between atoms: N1_7  and  C5_9
REMARK    5  A    between atoms: C9_15  and  C10_16
REMARK    6  A    between atoms: C10_16  and  O3_17
REMARK    7  A    between atoms: C10_16  and  C11_19
REMARK    8  A    between atoms: C11_19  and  N3_20
REMARK    9  A    between atoms: N3_20  and  C12_21
REMARK   10  A    between atoms: N3_20  and  C18_28
REMARK   11  A    between atoms: C12_21  and  C13_22
REMARK   12  A    between atoms: C13_22  and  S1_23
REMARK   13  A    between atoms: S1_23  and  C14_24
REMARK   14  A    between atoms: C14_24  and  C15_25
ROOT
HETATM    1  C5  UNL     1      31.424  39.585  40.757  1.00  0.00     0.111 A
HETATM    2  C6  UNL     1      31.095  38.754  39.686  1.00  0.00     0.079 A
HETATM    3  C7  UNL     1      30.546  39.230  38.526  1.00  0.00     0.048 A
HETATM    4  N2  UNL     1      30.157  38.660  37.385  1.00  0.00    -0.364 N
ATOM      5  H2  UNL     1      30.214  37.662  37.184  1.00  0.00     0.165 HD
HETATM    6  C8  UNL     1      29.674  39.595  36.531  1.00  0.00     0.099 A
HETATM    7  C9  UNL     1      29.752  40.827  37.141  1.00  0.00     0.005 A
HETATM    8  C21 UNL     1      30.304  40.580  38.399  1.00  0.00     0.017 A
HETATM    9  C22 UNL     1      30.626  41.400  39.450  1.00  0.00     0.104 A
HETATM   10  N4  UNL     1      31.164  40.892  40.571  1.00  0.00    -0.351 N
ATOM     11  H4  UNL     1      31.390  41.538  41.328  1.00  0.00     0.166 HD
ENDROOT
BRANCH   7  12
HETATM   12  C10 UNL     1      29.344  42.176  36.630  1.00  0.00     0.192 C
BRANCH  12  13
HETATM   13  O3  UNL     1      28.579  42.734  37.643  1.00  0.00    -0.386 OA
ATOM     14  H3  UNL     1      27.911  42.088  37.837  1.00  0.00     0.210 HD
ENDBRANCH  12  13
BRANCH  12  15
HETATM   15  C11 UNL     1      30.545  42.947  36.222  1.00  0.00     0.100 C
BRANCH  15  16
HETATM   16  N3  UNL     1      30.488  43.881  35.215  1.00  0.00    -0.365 N
BRANCH  16  17
HETATM   17  C12 UNL     1      30.450  43.370  33.893  1.00  0.00     0.138 C
BRANCH  17  18
HETATM   18  C13 UNL     1      29.116  43.250  33.248  1.00  0.00     0.094 C
BRANCH  18  19
HETATM   19  S1  UNL     1      29.109  43.258  31.470  1.00  0.00    -0.167 SA
BRANCH  19  20
HETATM   20  C14 UNL     1      28.017  42.019  30.748  1.00  0.00     0.077 C
BRANCH  20  21
HETATM   21  C15 UNL     1      27.087  42.575  29.695  1.00  0.00    -0.013 C
HETATM   22  C16 UNL     1      26.206  41.438  29.227  1.00  0.00     0.010 C
HETATM   23  C17 UNL     1      27.872  43.071  28.504  1.00  0.00     0.010 C
ENDBRANCH  20  21
ENDBRANCH  19  20
ENDBRANCH  18  19
ENDBRANCH  17  18
ENDBRANCH  16  17
BRANCH  16  24
HETATM   24  C18 UNL     1      30.561  45.253  35.317  1.00  0.00    -0.019 C
HETATM   25  C19 UNL     1      31.632  45.822  34.368  1.00  0.00     0.063 C
HETATM   26  C20 UNL     1      29.329  46.083  35.376  1.00  0.00     0.063 C
ENDBRANCH  16  24
ENDBRANCH  15  16
ENDBRANCH  12  15
ENDBRANCH   7  12
BRANCH   1  27
HETATM   27  N1  UNL     1      31.945  39.101  41.836  1.00  0.00    -0.288 N
HETATM   28  C4  UNL     1      33.066  39.710  42.450  1.00  0.00     0.366 C
HETATM   29  O2  UNL     1      34.161  39.652  41.847  1.00  0.00    -0.238 OA
ATOM     30  H1  UNL     1      31.539  38.264  42.255  1.00  0.00     0.172 HD
BRANCH  28  31
HETATM   31  O1  UNL     1      33.002  40.350  43.663  1.00  0.00    -0.300 OA
BRANCH  31  32
HETATM   32  C3  UNL     1      31.774  40.578  44.308  1.00  0.00     0.207 C
BRANCH  32  33
HETATM   33  C2  UNL     1      31.309  41.951  43.990  1.00  0.00    -0.011 C
HETATM   34  C1  UNL     1      32.080  42.916  43.509  1.00  0.00     0.009 C
ENDBRANCH  32  33
ENDBRANCH  31  32
ENDBRANCH  28  31
ENDBRANCH   1  27
TORSDOF 14
ENDMDL