MODEL 2
REMARK VINA RESULT: -7.031207414      2.695      9.167
REMARK  15 active torsions:
REMARK  status: ('A' for Active; 'I' for Inactive)
REMARK    1  A    between atoms: C2_2  and  C3_3
REMARK    2  A    between atoms: C3_3  and  C4_4
REMARK    3  A    between atoms: C4_4  and  O1_5
REMARK    4  A    between atoms: O1_5  and  C5_6
REMARK    5  A    between atoms: C6_7  and  O2_8
REMARK    6  A    between atoms: C9_12  and  O3_13
REMARK    7  A    between atoms: C9_12  and  C10_15
REMARK    8  A    between atoms: C10_15  and  C11_16
REMARK    9  A    between atoms: C16_21  and  O4_22
REMARK   10  A    between atoms: O4_22  and  C17_23
REMARK   11  A    between atoms: C17_23  and  C18_25
REMARK   12  A    between atoms: C18_25  and  C19_26
REMARK   13  A    between atoms: C19_26  and  C20_27
REMARK   14  A    between atoms: C24_31  and  C25_32
REMARK   15  A    between atoms: C25_32  and  O6_33
ROOT
HETATM    1  C11 UNL     1      29.097  40.111  37.335  1.00  0.00    -0.011 C
HETATM    2  C12 UNL     1      29.293  40.974  36.069  1.00  0.00     0.005 C
HETATM    3  C13 UNL     1      28.255  40.411  35.081  1.00  0.00     0.006 C
HETATM    4  C14 UNL     1      28.151  38.965  35.236  1.00  0.00    -0.001 C
HETATM    5  C15 UNL     1      27.344  38.342  34.077  1.00  0.00     0.039 C
HETATM    6  C16 UNL     1      26.129  38.477  35.019  1.00  0.00     0.141 C
HETATM    7  C22 UNL     1      27.118  38.366  36.122  1.00  0.00    -0.008 C
HETATM    8  C23 UNL     1      27.462  36.860  36.258  1.00  0.00     0.019 C
HETATM    9  C24 UNL     1      26.902  38.979  37.433  1.00  0.00     0.021 C
HETATM   10  C26 UNL     1      27.627  40.296  37.639  1.00  0.00     0.012 C
ENDROOT
BRANCH   1  11
HETATM   11  C10 UNL     1      30.032  40.605  38.380  1.00  0.00     0.045 C
BRANCH  11  12
HETATM   12  C9  UNL     1      30.369  39.668  39.479  1.00  0.00     0.087 C
HETATM   13  C5  UNL     1      31.816  39.957  39.921  1.00  0.00     0.184 C
HETATM   14  C6  UNL     1      32.610  39.550  38.726  1.00  0.00     0.150 C
HETATM   15  C7  UNL     1      31.871  38.397  38.111  1.00  0.00     0.037 C
HETATM   16  C8  UNL     1      30.599  38.240  38.922  1.00  0.00     0.043 C
BRANCH  13  17
HETATM   17  O1  UNL     1      32.060  39.190  41.069  1.00  0.00    -0.380 OA
BRANCH  17  18
HETATM   18  C4  UNL     1      32.633  40.013  42.015  1.00  0.00     0.168 C
BRANCH  18  19
HETATM   19  C3  UNL     1      32.336  41.455  41.729  1.00  0.00     0.026 C
BRANCH  19  20
HETATM   20  C2  UNL     1      32.213  42.263  42.964  1.00  0.00    -0.002 C
HETATM   21  C1  UNL     1      31.312  41.687  44.027  1.00  0.00     0.005 C
ENDBRANCH  19  20
ENDBRANCH  18  19
ENDBRANCH  17  18
ENDBRANCH  13  17
BRANCH  14  22
HETATM   22  O2  UNL     1      33.931  39.226  39.036  1.00  0.00    -0.393 OA
ATOM     23  H2  UNL     1      34.290  38.552  38.470  1.00  0.00     0.210 HD
ENDBRANCH  14  22
BRANCH  12  24
HETATM   24  O3  UNL     1      29.529  39.625  40.558  1.00  0.00    -0.387 OA
ATOM     25  H3  UNL     1      28.621  39.602  40.279  1.00  0.00     0.210 HD
ENDBRANCH  12  24
ENDBRANCH  11  12
ENDBRANCH   1  11
BRANCH   9  26
HETATM   26  C25 UNL     1      25.482  39.180  37.887  1.00  0.00     0.169 C
BRANCH  26  27
HETATM   27  O6  UNL     1      24.965  40.416  37.462  1.00  0.00    -0.400 OA
ATOM     28  H6  UNL     1      25.107  40.561  36.534  1.00  0.00     0.209 HD
ENDBRANCH  26  27
ENDBRANCH   9  26
BRANCH   6  29
HETATM   29  O4  UNL     1      25.383  39.611  34.828  1.00  0.00    -0.315 OA
BRANCH  29  30
HETATM   30  C17 UNL     1      24.081  39.549  34.307  1.00  0.00     0.259 C
HETATM   31  O5  UNL     1      23.204  40.047  35.004  1.00  0.00    -0.265 OA
BRANCH  30  32
HETATM   32  C18 UNL     1      23.806  38.926  33.012  1.00  0.00     0.111 C
BRANCH  32  33
HETATM   33  C19 UNL     1      24.104  39.745  31.824  1.00  0.00     0.009 C
BRANCH  33  34
HETATM   34  C20 UNL     1      25.475  39.952  31.351  1.00  0.00    -0.004 C
HETATM   35  C21 UNL     1      26.278  41.125  31.728  1.00  0.00     0.005 C
ENDBRANCH  33  34
ENDBRANCH  32  33
ENDBRANCH  30  32
ENDBRANCH  29  30
ENDBRANCH   6  29
TORSDOF 15
ENDMDL