MODEL 5
REMARK VINA RESULT: -7.866568060      2.092      2.966
REMARK  14 active torsions:
REMARK  status: ('A' for Active; 'I' for Inactive)
REMARK    1  A    between atoms: C2_2  and  C3_3
REMARK    2  A    between atoms: C2_2  and  C22_27
REMARK    3  A    between atoms: C3_3  and  C4_4
REMARK    4  A    between atoms: C3_3  and  C11_15
REMARK    5  A    between atoms: C5_5  and  C6_6
REMARK    6  A    between atoms: C6_6  and  C7_7
REMARK    7  A    between atoms: C7_7  and  C8_8
REMARK    8  A    between atoms: C8_8  and  N1_11
REMARK    9  A    between atoms: N2_18  and  C14_19
REMARK   10  A    between atoms: C14_19  and  C15_20
REMARK   11  A    between atoms: C22_27  and  C23_28
REMARK   12  A    between atoms: C22_27  and  N3_30
REMARK   13  A    between atoms: N3_30  and  O1_31
REMARK   14  A    between atoms: N3_30  and  C24_33
ROOT
HETATM    1  C3  UNL     1      28.730  40.083  37.120  1.00  0.00    -0.068 C
ENDROOT
BRANCH   1   2
HETATM    2  C2  UNL     1      27.447  39.774  36.529  1.00  0.00     0.037 C
HETATM    3  C1  UNL     1      26.427  39.615  37.680  1.00  0.00     0.017 C
BRANCH   2   4
HETATM    4  C22 UNL     1      27.150  38.744  35.551  1.00  0.00     0.135 C
BRANCH   4   5
HETATM    5  C23 UNL     1      28.160  37.695  35.227  1.00  0.00     0.114 C
HETATM    6  S1  UNL     1      27.702  36.261  36.305  1.00  0.00    -0.095 SA
ENDBRANCH   4   5
BRANCH   4   7
HETATM    7  N3  UNL     1      27.002  39.457  34.246  1.00  0.00    -0.230 N
BRANCH   7   8
HETATM    8  O1  UNL     1      27.053  40.778  34.128  1.00  0.00    -0.285 OA
ATOM      9  H1  UNL     1      27.124  41.366  34.870  1.00  0.00     0.245 HD
ENDBRANCH   7   8
BRANCH   7  10
HETATM   10  C24 UNL     1      26.800  38.626  33.111  1.00  0.00     0.377 C
HETATM   11  O2  UNL     1      27.037  39.076  31.930  1.00  0.00    -0.281 OA
ENDBRANCH   7  10
ENDBRANCH   4   7
ENDBRANCH   2   4
ENDBRANCH   1   2
BRANCH   1  12
HETATM   12  C4  UNL     1      29.255  41.450  37.105  1.00  0.00    -0.001 C
HETATM   13  C5  UNL     1      29.644  42.185  36.082  1.00  0.00    -0.026 C
BRANCH  13  14
HETATM   14  C6  UNL     1      30.167  43.597  36.228  1.00  0.00     0.029 C
BRANCH  14  15
HETATM   15  C7  UNL     1      30.915  43.948  34.984  1.00  0.00     0.041 C
BRANCH  15  16
HETATM   16  C8  UNL     1      30.507  45.266  34.389  1.00  0.00     0.117 C
HETATM   17  C9  UNL     1      29.595  46.048  35.309  1.00  0.00     0.045 C
HETATM   18  C10 UNL     1      31.671  46.125  33.966  1.00  0.00     0.045 C
BRANCH  16  19
HETATM   19  N1  UNL     1      29.745  44.971  33.180  1.00  0.00    -0.071 N
ATOM     20  H13 UNL     1      29.960  44.056  32.785  1.00  0.00     0.275 HD
ATOM     21  H12 UNL     1      28.755  44.806  33.361  1.00  0.00     0.275 HD
ATOM     22  H11 UNL     1      29.912  45.738  32.528  1.00  0.00     0.275 HD
ENDBRANCH  16  19
ENDBRANCH  15  16
ENDBRANCH  14  15
ENDBRANCH  13  14
ENDBRANCH   1  12
BRANCH   1  23
HETATM   23  C11 UNL     1      29.034  39.482  38.471  1.00  0.00     0.045 C
HETATM   24  C12 UNL     1      30.108  38.443  38.475  1.00  0.00     0.041 C
HETATM   25  C13 UNL     1      30.962  38.707  39.707  1.00  0.00     0.273 C
HETATM   26  N2  UNL     1      30.670  40.023  40.103  1.00  0.00     0.090 N
HETATM   27  C21 UNL     1      29.711  40.619  39.249  1.00  0.00     0.281 C
BRANCH  26  28
HETATM   28  C14 UNL     1      31.767  40.830  40.433  1.00  0.00     0.285 C
BRANCH  28  29
HETATM   29  C15 UNL     1      32.139  40.964  41.879  1.00  0.00     0.000 C
HETATM   30  C16 UNL     1      33.176  39.989  42.361  1.00  0.00     0.021 C
HETATM   31  C17 UNL     1      32.674  42.317  42.158  1.00  0.00    -0.020 C
HETATM   32  C18 UNL     1      32.266  42.713  43.338  1.00  0.00    -0.030 C
HETATM   33  C19 UNL     1      31.403  41.668  43.992  1.00  0.00     0.028 C
HETATM   34  C20 UNL     1      30.946  40.849  42.788  1.00  0.00     0.018 C
ENDBRANCH  28  29
ENDBRANCH  26  28
ENDBRANCH   1  23
TORSDOF 14
ENDMDL