MODEL 4
REMARK VINA RESULT: -7.624060201      1.304      1.529
REMARK  12 active torsions:
REMARK  status: ('A' for Active; 'I' for Inactive)
REMARK    1  A    between atoms: C2_2  and  C3_3
REMARK    2  A    between atoms: C3_3  and  C4_4
REMARK    3  A    between atoms: C4_4  and  C5_5
REMARK    4  A    between atoms: C5_5  and  C6_6
REMARK    5  A    between atoms: C6_6  and  C7_7
REMARK    6  A    between atoms: C7_7  and  N1_8
REMARK    7  A    between atoms: C7_7  and  C23_34
REMARK    8  A    between atoms: N1_8  and  C8_10
REMARK    9  A    between atoms: C9_13  and  C10_14
REMARK   10  A    between atoms: C10_14  and  C11_15
REMARK   11  A    between atoms: N4_20  and  C14_22
REMARK   12  A    between atoms: C18_27  and  C19_28
ROOT
HETATM    1  C8  UNL     1      29.039  43.772  32.942  1.00  0.00     0.694 A
HETATM    2  N2  UNL     1      29.075  43.765  31.612  1.00  0.00    -0.180 N
ATOM      3  H2  UNL     1      29.565  44.510  31.116  1.00  0.00     0.185 HD
HETATM    4  C9  UNL     1      28.474  42.792  30.918  1.00  0.00     0.113 A
HETATM    5  N3  UNL     1      27.833  41.825  31.622  1.00  0.00    -0.179 N
ATOM      6  H3  UNL     1      27.373  41.080  31.098  1.00  0.00     0.185 HD
HETATM    7  C13 UNL     1      27.764  41.783  32.952  1.00  0.00     0.698 A
HETATM    8  N4  UNL     1      27.119  40.951  33.660  1.00  0.00    -0.190 N
ATOM      9  H4  UNL     1      27.176  41.057  34.673  1.00  0.00     0.184 HD
HETATM   10  N5  UNL     1      28.403  42.808  33.600  1.00  0.00    -0.022 N
ATOM     11  H5  UNL     1      28.392  42.831  34.619  1.00  0.00     0.203 HD
ENDROOT
BRANCH   1  12
HETATM   12  N1  UNL     1      29.567  44.759  33.635  1.00  0.00    -0.213 N
ATOM     13  H1  UNL     1      29.238  45.719  33.525  1.00  0.00     0.178 HD
BRANCH  12  14
HETATM   14  C7  UNL     1      30.643  44.428  34.569  1.00  0.00     0.189 C
BRANCH  14  15
HETATM   15  C6  UNL     1      30.140  44.293  35.997  1.00  0.00     0.039 C
BRANCH  15  16
HETATM   16  C5  UNL     1      30.244  42.938  36.569  1.00  0.00     0.029 C
BRANCH  16  17
HETATM   17  C4  UNL     1      29.273  42.636  37.627  1.00  0.00    -0.031 C
BRANCH  17  18
HETATM   18  C3  UNL     1      29.534  41.739  38.744  1.00  0.00    -0.031 C
BRANCH  18  19
HETATM   19  C2  UNL     1      30.847  41.093  38.949  1.00  0.00     0.022 C
HETATM   20  C1  UNL     1      31.325  41.127  40.379  1.00  0.00     0.009 C
ENDBRANCH  18  19
ENDBRANCH  17  18
ENDBRANCH  16  17
ENDBRANCH  15  16
ENDBRANCH  14  15
BRANCH  14  21
HETATM   21  C23 UNL     1      31.565  45.591  34.584  1.00  0.00     0.254 C
HETATM   22  N6  UNL     1      31.195  46.766  35.274  1.00  0.00    -0.060 NA
HETATM   23  O1  UNL     1      32.658  45.525  33.986  1.00  0.00    -0.275 OA
ENDBRANCH  14  21
ENDBRANCH  12  14
ENDBRANCH   1  12
BRANCH   4  24
HETATM   24  C10 UNL     1      28.490  42.728  29.442  1.00  0.00     0.077 C
BRANCH  24  25
HETATM   25  C11 UNL     1      27.134  43.078  28.854  1.00  0.00     0.003 C
HETATM   26  C12 UNL     1      26.439  41.849  28.316  1.00  0.00     0.005 C
ENDBRANCH  24  25
ENDBRANCH   4  24
BRANCH   8  27
HETATM   27  C14 UNL     1      26.305  39.859  33.154  1.00  0.00     0.063 A
HETATM   28  C15 UNL     1      25.373  40.096  32.187  1.00  0.00     0.080 A
HETATM   29  S1  UNL     1      24.635  38.595  31.940  1.00  0.00    -0.104 SA
HETATM   30  C16 UNL     1      25.539  37.663  33.094  1.00  0.00    -0.013 A
HETATM   31  C17 UNL     1      25.353  36.178  33.317  1.00  0.00     0.057 C
HETATM   32  C18 UNL     1      26.387  38.570  33.629  1.00  0.00    -0.013 A
BRANCH  32  33
HETATM   33  C19 UNL     1      27.436  38.176  34.648  1.00  0.00     0.026 A
HETATM   34  C20 UNL     1      26.949  37.800  36.052  1.00  0.00     0.014 A
HETATM   35  C21 UNL     1      27.807  39.014  35.803  1.00  0.00    -0.009 A
HETATM   36  C22 UNL     1      29.211  38.893  36.385  1.00  0.00     0.010 C
ENDBRANCH  32  33
ENDBRANCH   8  27
TORSDOF 12
ENDMDL