MODEL 4
REMARK VINA RESULT: -8.796569102      3.094      4.527
REMARK  13 active torsions:
REMARK  status: ('A' for Active; 'I' for Inactive)
REMARK    1  A    between atoms: C7_7  and  C8_8
REMARK    2  A    between atoms: C8_8  and  C9_9
REMARK    3  A    between atoms: C9_9  and  C10_10
REMARK    4  A    between atoms: C10_10  and  N1_11
REMARK    5  A    between atoms: N1_11  and  C11_13
REMARK    6  A    between atoms: C12_17  and  N3_18
REMARK    7  A    between atoms: N3_18  and  C13_20
REMARK    8  A    between atoms: C13_20  and  C14_21
REMARK    9  A    between atoms: C14_21  and  C15_22
REMARK   10  A    between atoms: C15_22  and  C16_23
REMARK   11  A    between atoms: C16_23  and  C17_24
REMARK   12  A    between atoms: C17_24  and  C18_25
REMARK   13  A    between atoms: C18_25  and  C19_26
ROOT
HETATM    1  C11 UNL     1      29.888  43.194  34.177  1.00  0.00     0.686 A
HETATM    2  N2  UNL     1      30.538  43.654  33.106  1.00  0.00    -0.157 N
ATOM      3  H2  UNL     1      31.498  43.992  33.046  1.00  0.00     0.193 HD
HETATM    4  S1  UNL     1      29.394  43.544  31.881  1.00  0.00     0.039 SA
HETATM    5  C12 UNL     1      28.104  42.901  32.796  1.00  0.00     0.176 A
HETATM    6  N4  UNL     1      28.635  42.807  34.013  1.00  0.00    -0.169 N
ATOM      7  H4  UNL     1      28.090  42.447  34.796  1.00  0.00     0.186 HD
ENDROOT
BRANCH   1   8
HETATM    8  N1  UNL     1      30.552  43.153  35.336  1.00  0.00    -0.225 N
ATOM      9  H1  UNL     1      31.477  42.724  35.367  1.00  0.00     0.177 HD
BRANCH   8  10
HETATM   10  C10 UNL     1      29.983  43.706  36.546  1.00  0.00     0.138 C
BRANCH  10  11
HETATM   11  C9  UNL     1      29.774  42.640  37.601  1.00  0.00     0.025 C
BRANCH  11  12
HETATM   12  C8  UNL     1      30.502  41.355  37.271  1.00  0.00     0.041 C
BRANCH  12  13
HETATM   13  C7  UNL     1      30.813  40.661  38.533  1.00  0.00    -0.051 A
HETATM   14  C2  UNL     1      30.915  39.290  38.525  1.00  0.00    -0.053 A
HETATM   15  C1  UNL     1      30.735  38.485  37.286  1.00  0.00     0.049 C
HETATM   16  C3  UNL     1      31.196  38.612  39.685  1.00  0.00     0.044 A
HETATM   17  C4  UNL     1      31.377  39.331  40.880  1.00  0.00     0.076 A
HETATM   18  C5  UNL     1      31.278  40.701  40.902  1.00  0.00    -0.021 A
HETATM   19  O3  UNL     1      31.662  38.914  42.168  1.00  0.00    -0.340 OA
HETATM   20  C6  UNL     1      30.996  41.369  39.731  1.00  0.00     0.017 A
HETATM   21  C20 UNL     1      31.521  41.172  42.292  1.00  0.00     0.079 C
HETATM   22  C21 UNL     1      32.228  39.964  42.923  1.00  0.00     0.064 C
HETATM   23  C22 UNL     1      31.950  39.865  44.386  1.00  0.00     0.046 C
HETATM   24  C23 UNL     1      33.709  40.002  42.590  1.00  0.00     0.046 C
ENDBRANCH  12  13
ENDBRANCH  11  12
ENDBRANCH  10  11
ENDBRANCH   8  10
ENDBRANCH   1   8
BRANCH   5  25
HETATM   25  N3  UNL     1      26.891  42.579  32.404  1.00  0.00    -0.369 N
ATOM     26  H3  UNL     1      26.135  43.244  32.568  1.00  0.00     0.161 HD
BRANCH  25  27
HETATM   27  C13 UNL     1      26.585  41.345  31.760  1.00  0.00     0.121 C
BRANCH  27  28
HETATM   28  C14 UNL     1      25.837  40.387  32.676  1.00  0.00     0.020 C
BRANCH  28  29
HETATM   29  C15 UNL     1      26.761  39.148  32.821  1.00  0.00     0.002 C
BRANCH  29  30
HETATM   30  C16 UNL     1      26.487  38.450  34.092  1.00  0.00     0.001 C
BRANCH  30  31
HETATM   31  C17 UNL     1      27.501  38.628  35.153  1.00  0.00     0.010 C
BRANCH  31  32
HETATM   32  C18 UNL     1      27.527  39.867  35.938  1.00  0.00     0.113 C
BRANCH  32  33
HETATM   33  C19 UNL     1      26.733  39.997  37.153  1.00  0.00     0.172 C
HETATM   34  O1  UNL     1      25.505  40.222  37.236  1.00  0.00    -0.648 OA
HETATM   35  O2  UNL     1      27.364  39.863  38.419  1.00  0.00    -0.648 OA
ENDBRANCH  32  33
ENDBRANCH  31  32
ENDBRANCH  30  31
ENDBRANCH  29  30
ENDBRANCH  28  29
ENDBRANCH  27  28
ENDBRANCH  25  27
ENDBRANCH   5  25
TORSDOF 13
ENDMDL