MODEL 4
REMARK VINA RESULT: -7.066905681      1.634      4.401
REMARK  12 active torsions:
REMARK  status: ('A' for Active; 'I' for Inactive)
REMARK    1  A    between atoms: C2_2  and  C3_3
REMARK    2  A    between atoms: C3_3  and  C4_4
REMARK    3  A    between atoms: C4_4  and  N1_5
REMARK    4  A    between atoms: N1_5  and  C5_6
REMARK    5  A    between atoms: N1_5  and  C9_13
REMARK    6  A    between atoms: C5_6  and  C6_7
REMARK    7  A    between atoms: C6_7  and  N2_8
REMARK    8  A    between atoms: N2_8  and  C7_11
REMARK    9  A    between atoms: C10_16  and  N4_17
REMARK   10  A    between atoms: N4_17  and  C11_19
REMARK   11  A    between atoms: C20_30  and  C21_31
REMARK   12  A    between atoms: C24_34  and  C25_35
ROOT
HETATM    1  C9  UNL     1      28.341  40.717  35.649  1.00  0.00     0.136 A
HETATM    2  N3  UNL     1      27.657  40.792  34.452  1.00  0.00    -0.175 N
ATOM      3  H3  UNL     1      26.933  40.098  34.270  1.00  0.00     0.186 HD
HETATM    4  C10 UNL     1      27.884  41.707  33.532  1.00  0.00     0.684 A
HETATM    5  N5  UNL     1      28.838  42.612  33.785  1.00  0.00    -0.194 N
ATOM      6  H5  UNL     1      29.026  43.327  33.083  1.00  0.00     0.184 HD
HETATM    7  C20 UNL     1      29.579  42.623  34.950  1.00  0.00     0.049 A
HETATM    8  C24 UNL     1      29.320  41.656  35.895  1.00  0.00     0.097 A
ENDROOT
BRANCH   1   9
HETATM    9  N1  UNL     1      27.907  39.672  36.533  1.00  0.00    -0.364 N
BRANCH   9  10
HETATM   10  C4  UNL     1      26.698  39.891  37.241  1.00  0.00     0.124 C
BRANCH  10  11
HETATM   11  C3  UNL     1      25.642  38.862  37.244  1.00  0.00     0.019 C
BRANCH  11  12
HETATM   12  C2  UNL     1      24.926  38.976  35.884  1.00  0.00    -0.003 C
HETATM   13  C1  UNL     1      25.140  37.752  35.032  1.00  0.00     0.005 C
ENDBRANCH  11  12
ENDBRANCH  10  11
ENDBRANCH   9  10
BRANCH   9  14
HETATM   14  C5  UNL     1      28.624  38.449  36.509  1.00  0.00     0.152 C
BRANCH  14  15
HETATM   15  C6  UNL     1      29.145  37.831  37.737  1.00  0.00     0.252 C
BRANCH  15  16
HETATM   16  N2  UNL     1      30.592  38.122  37.924  1.00  0.00    -0.074 N
ATOM     17  H22 UNL     1      31.153  37.682  37.194  1.00  0.00     0.277 HD
ATOM     18  H21 UNL     1      30.799  39.100  37.722  1.00  0.00     0.277 HD
BRANCH  16  19
HETATM   19  C7  UNL     1      31.058  37.755  39.223  1.00  0.00     0.228 C
HETATM   20  C8  UNL     1      31.130  39.031  40.044  1.00  0.00     0.034 C
ENDBRANCH  16  19
ENDBRANCH  15  16
ENDBRANCH  14  15
ENDBRANCH   9  14
ENDBRANCH   1   9
BRANCH   8  21
HETATM   21  C25 UNL     1      30.128  41.610  37.096  1.00  0.00     0.270 C
HETATM   22  N6  UNL     1      29.630  42.304  38.264  1.00  0.00    -0.057 NA
HETATM   23  O1  UNL     1      31.230  41.006  37.207  1.00  0.00    -0.271 OA
ENDBRANCH   8  21
BRANCH   4  24
HETATM   24  N4  UNL     1      27.287  41.826  32.409  1.00  0.00    -0.191 N
ATOM     25  H4  UNL     1      26.448  42.405  32.423  1.00  0.00     0.184 HD
BRANCH  24  26
HETATM   26  C11 UNL     1      27.611  41.284  31.173  1.00  0.00     0.061 A
HETATM   27  C12 UNL     1      28.399  41.999  30.295  1.00  0.00    -0.034 A
HETATM   28  C13 UNL     1      28.915  43.370  30.621  1.00  0.00     0.050 C
HETATM   29  C14 UNL     1      28.728  41.447  29.078  1.00  0.00     0.015 A
HETATM   30  C15 UNL     1      28.277  40.192  28.736  1.00  0.00    -0.061 A
HETATM   31  C16 UNL     1      28.644  39.603  27.417  1.00  0.00     0.048 C
HETATM   32  C17 UNL     1      27.492  39.502  29.635  1.00  0.00     0.015 A
HETATM   33  C18 UNL     1      27.135  40.012  30.866  1.00  0.00    -0.034 A
HETATM   34  C19 UNL     1      26.285  39.238  31.809  1.00  0.00     0.050 C
ENDBRANCH  24  26
ENDBRANCH   4  24
BRANCH   7  35
HETATM   35  C21 UNL     1      30.622  43.645  35.094  1.00  0.00     0.029 C
HETATM   36  C22 UNL     1      29.983  44.960  35.619  1.00  0.00     0.016 C
HETATM   37  C23 UNL     1      31.215  44.038  33.766  1.00  0.00     0.016 C
ENDBRANCH   7  35
TORSDOF 12
ENDMDL