MODEL 3
REMARK VINA RESULT: -8.866601518      1.039      1.838
REMARK  14 active torsions:
REMARK  status: ('A' for Active; 'I' for Inactive)
REMARK    1  A    between atoms: C3_3  and  C5_5
REMARK    2  A    between atoms: C3_3  and  C13_14
REMARK    3  A    between atoms: C6_6  and  C7_7
REMARK    4  A    between atoms: C8_8  and  C10_10
REMARK    5  A    between atoms: C11_11  and  C12_12
REMARK    6  A    between atoms: C13_14  and  O2_15
REMARK    7  A    between atoms: C13_14  and  C14_17
REMARK    8  A    between atoms: C14_17  and  C15_18
REMARK    9  A    between atoms: C16_19  and  C18_21
REMARK   10  A    between atoms: C18_21  and  C19_22
REMARK   11  A    between atoms: C19_22  and  C20_23
REMARK   12  A    between atoms: C23_26  and  C24_27
REMARK   13  A    between atoms: C24_27  and  O3_28
REMARK   14  A    between atoms: C27_33  and  O5_34
ROOT
HETATM    1  C1  UNL     1      32.752  46.602  34.259  1.00  0.00     0.098 C
HETATM    2  C2  UNL     1      31.735  45.914  34.325  1.00  0.00    -0.171 C
HETATM    3  C3  UNL     1      30.488  45.103  34.447  1.00  0.00     0.051 C
HETATM    4  C4  UNL     1      29.344  46.027  34.587  1.00  0.00     0.035 C
ENDROOT
BRANCH   3   5
HETATM    5  C5  UNL     1      30.335  44.371  33.127  1.00  0.00    -0.003 C
HETATM    6  C6  UNL     1      29.186  43.921  32.685  1.00  0.00    -0.002 C
BRANCH   6   7
HETATM    7  C7  UNL     1      29.059  43.231  31.432  1.00  0.00     0.006 C
HETATM    8  C8  UNL     1      28.335  42.164  31.237  1.00  0.00    -0.062 C
HETATM    9  C9  UNL     1      28.314  41.572  29.857  1.00  0.00     0.048 C
BRANCH   8  10
HETATM   10  C10 UNL     1      27.587  41.527  32.278  1.00  0.00     0.010 C
HETATM   11  C11 UNL     1      26.757  40.543  32.055  1.00  0.00     0.042 C
BRANCH  11  12
HETATM   12  C12 UNL     1      26.040  39.954  33.196  1.00  0.00     0.258 C
HETATM   13  O1  UNL     1      24.874  40.365  33.463  1.00  0.00    -0.302 OA
ENDBRANCH  11  12
ENDBRANCH   8  10
ENDBRANCH   6   7
ENDBRANCH   3   5
BRANCH   3  14
HETATM   14  C13 UNL     1      30.742  44.117  35.518  1.00  0.00     0.144 C
BRANCH  14  15
HETATM   15  O2  UNL     1      31.395  43.005  34.996  1.00  0.00    -0.393 OA
ATOM     16  H2  UNL     1      30.810  42.256  34.995  1.00  0.00     0.210 HD
ENDBRANCH  14  15
BRANCH  14  17
HETATM   17  C14 UNL     1      29.634  43.731  36.421  1.00  0.00     0.061 C
BRANCH  17  18
HETATM   18  C15 UNL     1      29.966  42.690  37.414  1.00  0.00    -0.022 C
HETATM   19  C16 UNL     1      29.443  41.486  37.421  1.00  0.00    -0.087 C
HETATM   20  C17 UNL     1      28.456  41.112  36.385  1.00  0.00     0.043 C
BRANCH  19  21
HETATM   21  C18 UNL     1      29.804  40.495  38.463  1.00  0.00     0.037 C
BRANCH  21  22
HETATM   22  C19 UNL     1      29.533  41.130  39.821  1.00  0.00     0.032 C
BRANCH  22  23
HETATM   23  C20 UNL     1      29.945  40.282  40.932  1.00  0.00    -0.021 C
HETATM   24  C21 UNL     1      30.928  40.521  41.745  1.00  0.00    -0.054 C
HETATM   25  C22 UNL     1      31.780  41.706  41.646  1.00  0.00     0.050 C
HETATM   26  C27 UNL     1      31.147  39.525  42.830  1.00  0.00     0.154 C
HETATM   27  C23 UNL     1      33.193  41.543  42.174  1.00  0.00     0.083 C
HETATM   28  C25 UNL     1      33.281  40.677  43.340  1.00  0.00     0.136 C
HETATM   29  O4  UNL     1      34.348  40.581  43.936  1.00  0.00    -0.297 OA
HETATM   30  C26 UNL     1      32.136  39.890  43.870  1.00  0.00     0.115 C
BRANCH  27  31
HETATM   31  C24 UNL     1      34.063  41.116  41.008  1.00  0.00     0.176 C
BRANCH  31  32
HETATM   32  O3  UNL     1      33.960  39.752  40.756  1.00  0.00    -0.400 OA
ATOM     33  H3  UNL     1      34.804  39.364  40.553  1.00  0.00     0.209 HD
ENDBRANCH  31  32
ENDBRANCH  27  31
BRANCH  26  34
HETATM   34  O5  UNL     1      31.464  38.246  42.337  1.00  0.00    -0.391 OA
ATOM     35  H5  UNL     1      32.399  38.080  42.322  1.00  0.00     0.210 HD
ENDBRANCH  26  34
ENDBRANCH  22  23
ENDBRANCH  21  22
ENDBRANCH  19  21
ENDBRANCH  17  18
ENDBRANCH  14  17
ENDBRANCH   3  14
TORSDOF 14
ENDMDL