MODEL 4
REMARK VINA RESULT: -6.678220897      3.247      5.979
REMARK  14 active torsions:
REMARK  status: ('A' for Active; 'I' for Inactive)
REMARK    1  A    between atoms: N1_5  and  C4_6
REMARK    2  A    between atoms: C7_9  and  S1_10
REMARK    3  A    between atoms: S1_10  and  C8_11
REMARK    4  A    between atoms: C8_11  and  C9_12
REMARK    5  A    between atoms: C10_13  and  C11_14
REMARK    6  A    between atoms: C10_13  and  C13_16
REMARK    7  A    between atoms: C13_16  and  C14_17
REMARK    8  A    between atoms: C14_17  and  C15_18
REMARK    9  A    between atoms: C15_18  and  C16_19
REMARK   10  A    between atoms: C16_19  and  C17_20
REMARK   11  A    between atoms: C19_22  and  O2_23
REMARK   12  A    between atoms: C20_25  and  C21_26
REMARK   13  A    between atoms: C21_26  and  O3_27
REMARK   14  A    between atoms: C22_29  and  O4_31
ROOT
HETATM    1  C1  UNL     1      24.250  38.504  38.282  1.00  0.00     0.025 C
HETATM    2  C2  UNL     1      25.364  38.663  37.608  1.00  0.00     0.009 C
HETATM    3  C3  UNL     1      26.563  37.814  37.633  1.00  0.00     0.249 C
HETATM    4  O1  UNL     1      26.567  36.585  37.926  1.00  0.00    -0.268 OA
HETATM    5  N1  UNL     1      27.696  38.648  37.265  1.00  0.00    -0.342 N
HETATM    6  C6  UNL     1      27.176  39.941  37.061  1.00  0.00     0.115 C
HETATM    7  C7  UNL     1      27.822  40.873  36.121  1.00  0.00     0.104 C
HETATM    8  C19 UNL     1      27.690  40.491  34.703  1.00  0.00     0.143 C
HETATM    9  C20 UNL     1      26.565  39.646  34.270  1.00  0.00     0.074 C
HETATM   10  C22 UNL     1      25.541  39.251  35.268  1.00  0.00     0.072 C
HETATM   11  C23 UNL     1      25.251  37.752  35.189  1.00  0.00     0.047 C
HETATM   12  C24 UNL     1      25.751  39.741  36.648  1.00  0.00     0.082 C
ENDROOT
BRANCH   7  13
HETATM   13  S1  UNL     1      29.553  41.217  36.533  1.00  0.00    -0.132 SA
BRANCH  13  14
HETATM   14  C8  UNL     1      29.829  42.137  37.994  1.00  0.00     0.045 C
BRANCH  14  15
HETATM   15  C9  UNL     1      30.247  41.518  39.249  1.00  0.00     0.009 C
HETATM   16  C10 UNL     1      31.170  40.715  39.646  1.00  0.00    -0.080 C
BRANCH  16  17
HETATM   17  C11 UNL     1      32.217  40.093  38.838  1.00  0.00     0.029 C
HETATM   18  C12 UNL     1      33.549  40.035  39.574  1.00  0.00     0.010 C
ENDBRANCH  16  17
BRANCH  16  19
HETATM   19  C13 UNL     1      31.191  40.364  41.134  1.00  0.00     0.034 C
BRANCH  19  20
HETATM   20  C14 UNL     1      31.614  41.533  41.970  1.00  0.00     0.004 C
BRANCH  20  21
HETATM   21  C15 UNL     1      31.680  41.044  43.421  1.00  0.00     0.000 C
BRANCH  21  22
HETATM   22  C16 UNL     1      31.575  39.533  43.366  1.00  0.00    -0.000 C
BRANCH  22  23
HETATM   23  C17 UNL     1      32.760  38.876  44.048  1.00  0.00    -0.005 C
HETATM   24  C18 UNL     1      34.033  39.570  43.627  1.00  0.00     0.005 C
ENDBRANCH  22  23
ENDBRANCH  21  22
ENDBRANCH  20  21
ENDBRANCH  19  20
ENDBRANCH  16  19
ENDBRANCH  14  15
ENDBRANCH  13  14
ENDBRANCH   7  13
BRANCH   8  25
HETATM   25  O2  UNL     1      27.575  41.713  33.971  1.00  0.00    -0.394 OA
ATOM     26  H2  UNL     1      26.984  42.265  34.468  1.00  0.00     0.210 HD
ENDBRANCH   8  25
BRANCH   5  27
HETATM   27  C4  UNL     1      29.016  38.064  37.209  1.00  0.00     0.122 C
HETATM   28  C5  UNL     1      29.565  37.664  38.544  1.00  0.00     0.026 C
ENDBRANCH   5  27
BRANCH   9  29
HETATM   29  C21 UNL     1      25.922  40.227  32.998  1.00  0.00     0.174 C
BRANCH  29  30
HETATM   30  O3  UNL     1      26.569  39.666  31.912  1.00  0.00    -0.400 OA
ATOM     31  H3  UNL     1      25.922  39.544  31.226  1.00  0.00     0.209 HD
ENDBRANCH  29  30
ENDBRANCH   9  29
BRANCH  10  32
HETATM   32  O4  UNL     1      24.314  39.843  34.855  1.00  0.00    -0.389 OA
ATOM     33  H4  UNL     1      24.013  39.354  34.098  1.00  0.00     0.210 HD
ENDBRANCH  10  32
TORSDOF 14
ENDMDL