MODEL 1
REMARK VINA RESULT: -8.834391386      0.000      0.000
REMARK  14 active torsions:
REMARK  status: ('A' for Active; 'I' for Inactive)
REMARK    1  A    between atoms: C2_2  and  C3_3
REMARK    2  A    between atoms: C3_3  and  C4_4
REMARK    3  A    between atoms: C4_4  and  N1_5
REMARK    4  A    between atoms: N1_5  and  C5_7
REMARK    5  A    between atoms: C6_10  and  N3_11
REMARK    6  A    between atoms: N3_11  and  C7_13
REMARK    7  A    between atoms: C7_13  and  C8_14
REMARK    8  A    between atoms: C8_14  and  C9_15
REMARK    9  A    between atoms: C9_15  and  C10_16
REMARK   10  A    between atoms: C13_19  and  O1_20
REMARK   11  A    between atoms: O1_20  and  C14_21
REMARK   12  A    between atoms: C14_21  and  C15_22
REMARK   13  A    between atoms: C24_33  and  N5_34
REMARK   14  A    between atoms: N5_34  and  O2_36
ROOT
HETATM    1  N3  UNL     1      28.935  44.633  33.773  1.00  0.00    -0.225 N
ATOM      2  H3  UNL     1      28.327  45.353  34.163  1.00  0.00     0.177 HD
ENDROOT
BRANCH   1   3
HETATM    3  C6  UNL     1      28.506  43.910  32.805  1.00  0.00     0.707 A
HETATM    4  N2  UNL     1      27.627  42.914  33.118  1.00  0.00    -0.022 N
HETATM    5  C5  UNL     1      27.103  42.081  32.206  1.00  0.00     0.707 A
ATOM      6  H2  UNL     1      27.355  42.797  34.094  1.00  0.00     0.203 HD
HETATM    7  N6  UNL     1      27.473  42.249  30.924  1.00  0.00    -0.020 N
HETATM    8  C24 UNL     1      28.339  43.217  30.557  1.00  0.00     0.731 A
ATOM      9  H6  UNL     1      27.089  41.629  30.211  1.00  0.00     0.203 HD
HETATM   10  N4  UNL     1      28.851  44.045  31.517  1.00  0.00    -0.020 N
ATOM     11  H4  UNL     1      29.507  44.778  31.247  1.00  0.00     0.203 HD
BRANCH   5  12
HETATM   12  N1  UNL     1      26.277  41.156  32.556  1.00  0.00    -0.225 N
ATOM     13  H1  UNL     1      25.272  41.334  32.559  1.00  0.00     0.177 HD
BRANCH  12  14
HETATM   14  C4  UNL     1      26.795  39.861  32.945  1.00  0.00     0.138 C
BRANCH  14  15
HETATM   15  C3  UNL     1      26.323  39.531  34.354  1.00  0.00     0.020 C
BRANCH  15  16
HETATM   16  C2  UNL     1      27.326  40.008  35.385  1.00  0.00    -0.003 C
HETATM   17  C1  UNL     1      26.782  39.687  36.759  1.00  0.00     0.005 C
ENDBRANCH  15  16
ENDBRANCH  14  15
ENDBRANCH  12  14
ENDBRANCH   5  12
BRANCH   8  18
HETATM   18  N5  UNL     1      28.706  43.400  29.349  1.00  0.00    -0.096 N
ATOM     19  H5  UNL     1      29.698  43.538  29.153  1.00  0.00     0.213 HD
BRANCH  18  20
HETATM   20  O2  UNL     1      27.820  43.416  28.310  1.00  0.00    -0.271 OA
HETATM   21  C25 UNL     1      28.023  42.669  27.124  1.00  0.00     0.238 C
ENDBRANCH  18  20
ENDBRANCH   8  18
ENDBRANCH   1   3
BRANCH   1  22
HETATM   22  C7  UNL     1      30.241  44.452  34.317  1.00  0.00     0.138 C
BRANCH  22  23
HETATM   23  C8  UNL     1      30.202  43.791  35.689  1.00  0.00     0.025 C
BRANCH  23  24
HETATM   24  C9  UNL     1      30.365  42.287  35.514  1.00  0.00     0.040 C
BRANCH  24  25
HETATM   25  C10 UNL     1      30.145  41.642  36.831  1.00  0.00    -0.058 A
HETATM   26  C11 UNL     1      30.615  40.385  37.123  1.00  0.00     0.010 A
HETATM   27  C12 UNL     1      30.424  39.781  38.339  1.00  0.00     0.037 A
HETATM   28  C13 UNL     1      29.721  40.451  39.346  1.00  0.00     0.069 A
HETATM   29  C22 UNL     1      29.236  41.712  39.085  1.00  0.00     0.037 A
HETATM   30  C23 UNL     1      29.455  42.290  37.832  1.00  0.00     0.010 A
BRANCH  28  31
HETATM   31  O1  UNL     1      29.533  39.840  40.556  1.00  0.00    -0.347 OA
BRANCH  31  32
HETATM   32  C14 UNL     1      29.793  40.371  41.806  1.00  0.00     0.214 C
BRANCH  32  33
HETATM   33  C15 UNL     1      31.203  40.204  42.238  1.00  0.00    -0.034 A
HETATM   34  C16 UNL     1      31.455  39.302  43.261  1.00  0.00     0.010 A
HETATM   35  C17 UNL     1      32.740  39.123  43.685  1.00  0.00     0.007 A
HETATM   36  C18 UNL     1      33.797  39.816  43.124  1.00  0.00    -0.062 A
HETATM   37  C19 UNL     1      35.181  39.594  43.611  1.00  0.00     0.048 C
HETATM   38  C20 UNL     1      33.552  40.707  42.113  1.00  0.00     0.007 A
HETATM   39  C21 UNL     1      32.258  40.894  41.679  1.00  0.00     0.010 A
ENDBRANCH  32  33
ENDBRANCH  31  32
ENDBRANCH  28  31
ENDBRANCH  24  25
ENDBRANCH  23  24
ENDBRANCH  22  23
ENDBRANCH   1  22
TORSDOF 14
ENDMDL