MODEL 4
REMARK VINA RESULT: -7.364551368      0.986      1.046
REMARK  7 active torsions:
REMARK  status: ('A' for Active; 'I' for Inactive)
REMARK    1  A    between atoms: C2_2  and  N1_3
REMARK    2  A    between atoms: C2_2  and  C3_7
REMARK    3  A    between atoms: C3_7  and  O1_8
REMARK    4  A    between atoms: C3_7  and  C4_10
REMARK    5  A    between atoms: C4_10  and  O2_11
REMARK    6  A    between atoms: C4_10  and  C5_13
REMARK       I    between atoms: C5_13  and  N2_15
REMARK    7  A    between atoms: N2_15  and  C6_17
ROOT
HETATM    1  C5  UNL     1      66.027  27.477  51.662  1.00  0.00     0.254 C
HETATM    2  O3  UNL     1      65.645  26.702  50.771  1.00  0.00    -0.270 OA
HETATM    3  N2  UNL     1      65.550  28.836  51.532  1.00  0.00    -0.305 N
ATOM      4  H2  UNL     1      64.697  29.127  52.008  1.00  0.00     0.170 HD
ENDROOT
BRANCH   1   5
HETATM    5  C4  UNL     1      66.889  27.093  52.771  1.00  0.00     0.241 C
BRANCH   5   6
HETATM    6  C3  UNL     1      66.531  25.790  53.485  1.00  0.00     0.186 C
BRANCH   6   7
HETATM    7  C2  UNL     1      67.372  24.605  53.095  1.00  0.00     0.211 C
HETATM    8  C1  UNL     1      68.793  24.956  52.692  1.00  0.00     0.042 C
BRANCH   7   9
HETATM    9  N1  UNL     1      66.721  24.122  51.837  1.00  0.00    -0.073 N
ATOM     10  H13 UNL     1      66.930  23.149  51.611  1.00  0.00     0.274 HD
ATOM     11  H12 UNL     1      65.710  24.011  51.912  1.00  0.00     0.274 HD
ATOM     12  H11 UNL     1      67.013  24.785  51.118  1.00  0.00     0.274 HD
ENDBRANCH   7   9
ENDBRANCH   6   7
BRANCH   6  13
HETATM   13  O1  UNL     1      67.024  26.075  54.823  1.00  0.00    -0.390 OA
ATOM     14  H1  UNL     1      67.382  25.233  55.080  1.00  0.00     0.210 HD
ENDBRANCH   6  13
ENDBRANCH   5   6
BRANCH   5  15
HETATM   15  O2  UNL     1      66.793  28.126  53.789  1.00  0.00    -0.383 OA
ATOM     16  H2  UNL     1      66.743  28.946  53.311  1.00  0.00     0.210 HD
ENDBRANCH   5  15
ENDBRANCH   1   5
BRANCH   3  17
HETATM   17  C6  UNL     1      66.216  29.688  50.802  1.00  0.00     0.192 A
HETATM   18  N3  UNL     1      67.539  29.854  50.898  1.00  0.00    -0.277 N
HETATM   19  N4  UNL     1      68.193  30.735  50.137  1.00  0.00    -0.249 N
ATOM     20  H3  UNL     1      68.062  29.293  51.570  1.00  0.00     0.189 HD
HETATM   21  C7  UNL     1      67.527  31.483  49.246  1.00  0.00     0.343 A
ATOM     22  H4  UNL     1      69.203  30.839  50.235  1.00  0.00     0.192 HD
HETATM   23  O4  UNL     1      68.106  32.331  48.502  1.00  0.00    -0.245 OA
HETATM   24  N5  UNL     1      66.196  31.354  49.110  1.00  0.00    -0.266 N
HETATM   25  C8  UNL     1      65.474  32.159  48.152  1.00  0.00     0.165 C
HETATM   26  C9  UNL     1      65.540  30.461  49.884  1.00  0.00     0.296 A
HETATM   27  O5  UNL     1      64.295  30.330  49.767  1.00  0.00    -0.264 OA
ENDBRANCH   3  17
TORSDOF 7
ENDMDL