MODEL 1
REMARK VINA RESULT: -6.880874294      0.000      0.000
REMARK  6 active torsions:
REMARK  status: ('A' for Active; 'I' for Inactive)
REMARK    1  A    between atoms: C2_2  and  N1_3
REMARK    2  A    between atoms: C2_2  and  C3_8
REMARK    3  A    between atoms: N1_3  and  O1_4
REMARK    4  A    between atoms: O1_4  and  N2_5
REMARK    5  A    between atoms: C3_8  and  N3_9
REMARK    6  A    between atoms: C3_8  and  C8_22
ROOT
HETATM    1  N3  UNL     1      65.886  28.018  51.334  1.00  0.00    -0.357 N
ATOM      2  H3  UNL     1      65.021  28.207  51.841  1.00  0.00     0.162 HD
HETATM    3  C4  UNL     1      66.099  28.836  50.408  1.00  0.00     0.174 A
HETATM    4  N4  UNL     1      65.135  29.895  50.185  1.00  0.00    -0.300 N
ATOM      5  H4  UNL     1      64.311  29.949  50.785  1.00  0.00     0.171 HD
HETATM    6  C5  UNL     1      65.303  30.859  49.158  1.00  0.00     0.315 A
HETATM    7  O2  UNL     1      64.441  31.763  48.998  1.00  0.00    -0.262 OA
HETATM    8  C6  UNL     1      66.438  30.840  48.281  1.00  0.00     0.316 A
HETATM    9  O3  UNL     1      66.576  31.698  47.374  1.00  0.00    -0.262 OA
HETATM   10  N5  UNL     1      67.404  29.815  48.469  1.00  0.00    -0.283 N
ATOM     11  H5  UNL     1      68.222  29.776  47.861  1.00  0.00     0.172 HD
HETATM   12  C7  UNL     1      67.241  28.828  49.514  1.00  0.00     0.292 A
HETATM   13  O4  UNL     1      68.122  27.932  49.652  1.00  0.00    -0.264 OA
ENDROOT
BRANCH   1  14
HETATM   14  C3  UNL     1      66.576  26.900  51.829  1.00  0.00     0.194 C
BRANCH  14  15
HETATM   15  C2  UNL     1      66.362  26.856  53.338  1.00  0.00     0.136 C
HETATM   16  C1  UNL     1      66.308  28.214  53.956  1.00  0.00     0.033 C
BRANCH  15  17
HETATM   17  N1  UNL     1      67.443  26.120  53.982  1.00  0.00    -0.067 NA
BRANCH  17  18
HETATM   18  O1  UNL     1      66.998  25.312  54.947  1.00  0.00    -0.172 OA
BRANCH  18  19
HETATM   19  N2  UNL     1      66.689  24.105  54.424  1.00  0.00    -0.290 N
ATOM     20  H22 UNL     1      65.766  23.850  54.073  1.00  0.00     0.186 HD
ATOM     21  H21 UNL     1      67.512  23.502  54.438  1.00  0.00     0.186 HD
ENDBRANCH  18  19
ENDBRANCH  17  18
ENDBRANCH  15  17
ENDBRANCH  14  15
BRANCH  14  22
HETATM   22  C8  UNL     1      66.218  25.618  51.201  1.00  0.00     0.255 C
HETATM   23  N6  UNL     1      67.060  24.478  51.203  1.00  0.00    -0.060 NA
HETATM   24  O5  UNL     1      65.107  25.516  50.628  1.00  0.00    -0.275 OA
ENDBRANCH  14  22
ENDBRANCH   1  14
TORSDOF 6
ENDMDL