MODEL 1
REMARK VINA RESULT: -6.547452694      0.000      0.000
REMARK  6 active torsions:
REMARK  status: ('A' for Active; 'I' for Inactive)
REMARK    1  A    between atoms: N1_2  and  C2_4
REMARK    2  A    between atoms: N3_9  and  C4_10
REMARK    3  A    between atoms: C4_10  and  C5_11
REMARK    4  A    between atoms: C5_11  and  N4_12
REMARK    5  A    between atoms: C5_11  and  C6_16
REMARK    6  A    between atoms: C7_19  and  N6_20
REMARK       I    between atoms: N6_20  and  C8_22
ROOT
HETATM    1  C2  UNL     1      66.924  32.696  46.095  1.00  0.00     0.696 A
HETATM    2  N2  UNL     1      65.701  32.682  46.651  1.00  0.00    -0.140 N
ATOM      3  H2  UNL     1      64.901  32.990  46.098  1.00  0.00     0.189 HD
HETATM    4  C3  UNL     1      65.503  32.272  47.916  1.00  0.00     0.355 A
HETATM    5  O1  UNL     1      64.333  32.270  48.413  1.00  0.00    -0.245 OA
HETATM    6  N3  UNL     1      66.571  31.858  48.660  1.00  0.00    -0.129 N
HETATM    7  C7  UNL     1      67.797  31.868  48.113  1.00  0.00     0.705 A
HETATM    8  N9  UNL     1      67.958  32.288  46.835  1.00  0.00    -0.022 N
ATOM      9  H9  UNL     1      68.894  32.293  46.427  1.00  0.00     0.203 HD
ENDROOT
BRANCH   6  10
HETATM   10  C4  UNL     1      66.333  31.413  50.021  1.00  0.00     0.195 C
BRANCH  10  11
HETATM   11  C5  UNL     1      65.878  29.999  50.139  1.00  0.00     0.290 C
BRANCH  11  12
HETATM   12  N4  UNL     1      64.513  29.832  50.544  1.00  0.00    -0.065 N
ATOM     13  H43 UNL     1      64.068  30.742  50.663  1.00  0.00     0.275 HD
ATOM     14  H42 UNL     1      63.960  29.461  49.772  1.00  0.00     0.275 HD
ATOM     15  H41 UNL     1      64.377  29.262  51.379  1.00  0.00     0.275 HD
ENDBRANCH  11  12
BRANCH  11  16
HETATM   16  C6  UNL     1      66.758  29.342  51.152  1.00  0.00     0.263 C
HETATM   17  N5  UNL     1      66.342  28.126  51.737  1.00  0.00    -0.060 NA
HETATM   18  O2  UNL     1      67.853  29.868  51.476  1.00  0.00    -0.275 OA
ENDBRANCH  11  16
ENDBRANCH  10  11
ENDBRANCH   6  10
BRANCH   7  19
HETATM   19  N6  UNL     1      68.784  31.472  48.819  1.00  0.00    -0.163 N
HETATM   20  C8  UNL     1      70.098  31.978  48.717  1.00  0.00     0.200 C
HETATM   21  N7  UNL     1      70.344  33.161  49.170  1.00  0.00    -0.373 N
HETATM   22  N8  UNL     1      71.090  31.170  48.123  1.00  0.00    -0.063 NA
ATOM     23  H72 UNL     1      69.627  33.745  49.599  1.00  0.00     0.158 HD
ATOM     24  H71 UNL     1      71.294  33.526  49.096  1.00  0.00     0.158 HD
ATOM     25  H6  UNL     1      68.612  30.737  49.505  1.00  0.00     0.187 HD
ENDBRANCH   7  19
BRANCH   1  26
HETATM   26  N1  UNL     1      67.082  33.086  44.903  1.00  0.00    -0.230 N
HETATM   27  C1  UNL     1      68.223  33.808  44.433  1.00  0.00     0.165 C
ATOM     28  H1  UNL     1      66.346  32.871  44.231  1.00  0.00     0.177 HD
ENDBRANCH   1  26
TORSDOF 6
ENDMDL