MODEL 5
REMARK VINA RESULT: -6.860126824      2.051      2.442
REMARK  6 active torsions:
REMARK  status: ('A' for Active; 'I' for Inactive)
REMARK    1  A    between atoms: N1_1  and  C1_4
REMARK    2  A    between atoms: C2_7  and  C3_8
REMARK       I    between atoms: C3_8  and  N3_10
REMARK    3  A    between atoms: N3_10  and  C4_12
REMARK    4  A    between atoms: C4_12  and  C5_13
REMARK    5  A    between atoms: C6_15  and  O3_17
REMARK    6  A    between atoms: N5_19  and  O4_20
ROOT
HETATM    1  C1  UNL     1      68.155  31.176  49.678  1.00  0.00     0.681 A
HETATM    2  N2  UNL     1      67.889  29.992  50.260  1.00  0.00    -0.169 N
ATOM      3  H2  UNL     1      68.673  29.406  50.546  1.00  0.00     0.186 HD
HETATM    4  C2  UNL     1      66.641  29.544  50.484  1.00  0.00     0.221 A
HETATM    5  N5  UNL     1      65.667  30.354  50.084  1.00  0.00    -0.149 N
HETATM    6  C7  UNL     1      65.891  31.537  49.497  1.00  0.00     0.366 A
HETATM    7  O5  UNL     1      64.874  32.241  49.132  1.00  0.00    -0.244 OA
HETATM    8  N6  UNL     1      67.148  31.955  49.295  1.00  0.00    -0.139 N
ATOM      9  H6  UNL     1      67.329  32.856  48.854  1.00  0.00     0.189 HD
ENDROOT
BRANCH   4  10
HETATM   10  C3  UNL     1      66.475  28.184  51.064  1.00  0.00     0.293 C
HETATM   11  O1  UNL     1      66.037  27.295  50.248  1.00  0.00    -0.264 OA
HETATM   12  N3  UNL     1      66.734  27.797  52.345  1.00  0.00    -0.315 N
ATOM     13  H3  UNL     1      67.064  28.577  52.912  1.00  0.00     0.169 HD
BRANCH  12  14
HETATM   14  C4  UNL     1      66.669  26.601  53.095  1.00  0.00     0.121 C
HETATM   15  C6  UNL     1      67.381  25.391  52.869  1.00  0.00     0.180 C
HETATM   16  N4  UNL     1      67.270  24.424  51.789  1.00  0.00    -0.072 NA
BRANCH  14  17
HETATM   17  C5  UNL     1      65.470  26.435  53.922  1.00  0.00     0.292 C
HETATM   18  O2  UNL     1      65.357  25.552  54.777  1.00  0.00    -0.300 OA
ENDBRANCH  14  17
BRANCH  15  19
HETATM   19  O3  UNL     1      68.309  25.015  53.710  1.00  0.00    -0.347 OA
ATOM     20  H3  UNL     1      69.224  25.133  53.487  1.00  0.00     0.219 HD
ENDBRANCH  15  19
ENDBRANCH  12  14
ENDBRANCH   4  10
BRANCH   5  21
HETATM   21  O4  UNL     1      64.362  30.044  50.250  1.00  0.00    -0.277 OA
ATOM     22  H4  UNL     1      63.941  30.069  51.102  1.00  0.00     0.245 HD
ENDBRANCH   5  21
BRANCH   1  23
HETATM   23  N1  UNL     1      69.336  31.582  49.463  1.00  0.00    -0.234 N
ATOM     24  H12 UNL     1      69.528  32.578  49.570  1.00  0.00     0.174 HD
ATOM     25  H11 UNL     1      70.091  30.955  49.183  1.00  0.00     0.174 HD
ENDBRANCH   1  23
TORSDOF 6
ENDMDL