MODEL 3
REMARK VINA RESULT: -6.696812159      1.464      1.477
REMARK  7 active torsions:
REMARK  status: ('A' for Active; 'I' for Inactive)
REMARK    1  A    between atoms: C2_2  and  N1_3
REMARK    2  A    between atoms: C2_2  and  C4_14
REMARK    3  A    between atoms: N1_3  and  N2_5
REMARK       I    between atoms: C3_7  and  N4_9
REMARK    4  A    between atoms: N4_9  and  N5_11
REMARK       I    between atoms: C4_14  and  N6_16
REMARK    5  A    between atoms: N6_16  and  S1_18
REMARK    6  A    between atoms: S1_18  and  N7_19
REMARK    7  A    between atoms: S1_18  and  N8_23
ROOT
HETATM    1  N8  UNL     1      66.432  30.606  48.041  1.00  0.00    -0.221 N
ATOM      2  H8  UNL     1      65.732  30.363  47.341  1.00  0.00     0.191 HD
HETATM    3  C5  UNL     1      67.495  31.537  47.818  1.00  0.00     0.192 C
HETATM    4  N9  UNL     1      68.377  32.286  47.638  1.00  0.00    -0.171 NA
ENDROOT
BRANCH   1   5
HETATM    5  S1  UNL     1      66.469  30.005  49.482  1.00  0.00     0.207 S
HETATM    6  O2  UNL     1      65.308  30.655  50.216  1.00  0.00    -0.205 OA
BRANCH   5   7
HETATM    7  N6  UNL     1      66.328  28.292  49.532  1.00  0.00    -0.252 N
HETATM    8  C4  UNL     1      66.656  27.698  50.796  1.00  0.00     0.255 C
HETATM    9  O1  UNL     1      67.011  28.354  51.799  1.00  0.00    -0.270 OA
ATOM     10  H6  UNL     1      66.033  27.741  48.725  1.00  0.00     0.181 HD
BRANCH   8  11
HETATM   11  C2  UNL     1      66.557  26.193  50.883  1.00  0.00     0.188 C
HETATM   12  C1  UNL     1      67.963  25.672  51.160  1.00  0.00     0.044 C
BRANCH  11  13
HETATM   13  N1  UNL     1      65.711  25.954  52.024  1.00  0.00    -0.321 N
ATOM     14  H1  UNL     1      64.773  26.352  52.064  1.00  0.00     0.181 HD
BRANCH  13  15
HETATM   15  N2  UNL     1      66.194  25.171  53.076  1.00  0.00    -0.276 N
HETATM   16  C3  UNL     1      66.639  25.685  54.169  1.00  0.00     0.221 C
HETATM   17  N3  UNL     1      67.114  24.834  55.191  1.00  0.00    -0.061 NA
HETATM   18  N4  UNL     1      66.637  27.089  54.327  1.00  0.00    -0.279 N
ATOM     19  H4  UNL     1      67.471  27.607  54.050  1.00  0.00     0.189 HD
ATOM     20  H2  UNL     1      66.193  24.156  52.973  1.00  0.00     0.189 HD
BRANCH  18  21
HETATM   21  N5  UNL     1      65.551  27.804  54.845  1.00  0.00    -0.343 N
ATOM     22  H52 UNL     1      65.759  28.632  55.403  1.00  0.00     0.176 HD
ATOM     23  H51 UNL     1      64.578  27.538  54.689  1.00  0.00     0.176 HD
ENDBRANCH  18  21
ENDBRANCH  13  15
ENDBRANCH  11  13
ENDBRANCH   8  11
ENDBRANCH   5   7
BRANCH   5  24
HETATM   24  N7  UNL     1      67.905  30.535  50.219  1.00  0.00    -0.328 N
ATOM     25  H72 UNL     1      67.927  31.192  50.999  1.00  0.00     0.169 HD
ATOM     26  H71 UNL     1      68.727  30.114  49.784  1.00  0.00     0.169 HD
ENDBRANCH   5  24
ENDBRANCH   1   5
TORSDOF 7
ENDMDL