MODEL 1
REMARK VINA RESULT: -7.062671787      0.000      0.000
REMARK  5 active torsions:
REMARK  status: ('A' for Active; 'I' for Inactive)
REMARK       I    between atoms: N3_4  and  C2_6
REMARK    1  A    between atoms: C2_6  and  C3_8
REMARK    2  A    between atoms: C3_8  and  N4_9
REMARK    3  A    between atoms: C5_11  and  C6_12
REMARK    4  A    between atoms: C6_12  and  N5_13
REMARK    5  A    between atoms: C6_12  and  N6_17
ROOT
HETATM    1  N4  UNL     1      67.231  29.405  50.784  1.00  0.00    -0.300 N
HETATM    2  C4  UNL     1      67.263  29.196  52.119  1.00  0.00     0.113 A
HETATM    3  C5  UNL     1      66.651  28.087  52.708  1.00  0.00     0.083 A
HETATM    4  C7  UNL     1      66.005  27.192  51.910  1.00  0.00     0.260 A
HETATM    5  O2  UNL     1      65.465  26.206  52.455  1.00  0.00    -0.267 OA
HETATM    6  N7  UNL     1      65.983  27.416  50.586  1.00  0.00    -0.275 N
ATOM      7  H7  UNL     1      65.502  26.752  49.978  1.00  0.00     0.173 HD
HETATM    8  C8  UNL     1      66.586  28.504  50.034  1.00  0.00     0.329 A
HETATM    9  O3  UNL     1      66.541  28.670  48.802  1.00  0.00    -0.246 OA
ENDROOT
BRANCH   3  10
HETATM   10  C6  UNL     1      66.715  27.902  54.181  1.00  0.00     0.417 C
BRANCH  10  11
HETATM   11  N5  UNL     1      65.379  27.996  54.723  1.00  0.00    -0.046 N
ATOM     12  H53 UNL     1      65.110  28.959  54.927  1.00  0.00     0.277 HD
ATOM     13  H52 UNL     1      64.662  27.793  54.027  1.00  0.00     0.277 HD
ATOM     14  H51 UNL     1      65.310  27.391  55.541  1.00  0.00     0.277 HD
ENDBRANCH  10  11
BRANCH  10  15
HETATM   15  N6  UNL     1      67.269  26.605  54.517  1.00  0.00    -0.046 N
ATOM     16  H63 UNL     1      66.662  25.845  54.210  1.00  0.00     0.277 HD
ATOM     17  H62 UNL     1      68.089  26.387  53.950  1.00  0.00     0.277 HD
ATOM     18  H61 UNL     1      67.474  26.543  55.514  1.00  0.00     0.277 HD
ENDBRANCH  10  15
ENDBRANCH   3  10
BRANCH   1  19
HETATM   19  C3  UNL     1      67.898  30.589  50.284  1.00  0.00     0.236 C
BRANCH  19  20
HETATM   20  C2  UNL     1      66.950  31.510  49.606  1.00  0.00     0.242 C
HETATM   21  N3  UNL     1      67.056  31.828  48.233  1.00  0.00    -0.302 N
HETATM   22  C1  UNL     1      66.060  32.243  47.546  1.00  0.00     0.203 C
ATOM     23  H3  UNL     1      67.960  31.724  47.773  1.00  0.00     0.171 HD
HETATM   24  N1  UNL     1      64.807  32.392  48.167  1.00  0.00    -0.066 NA
HETATM   25  N2  UNL     1      66.168  32.560  46.162  1.00  0.00    -0.066 NA
HETATM   26  O1  UNL     1      66.047  31.980  50.362  1.00  0.00    -0.271 OA
ENDBRANCH  19  20
ENDBRANCH   1  19
TORSDOF 5
ENDMDL