MODEL 1
REMARK VINA RESULT: -7.310115187      0.000      0.000
REMARK  7 active torsions:
REMARK  status: ('A' for Active; 'I' for Inactive)
REMARK    1  A    between atoms: N1_1  and  C1_5
REMARK    2  A    between atoms: C1_5  and  C2_6
REMARK    3  A    between atoms: C2_6  and  N2_7
REMARK    4  A    between atoms: C2_6  and  C3_11
REMARK    5  A    between atoms: C3_11  and  O1_12
REMARK    6  A    between atoms: C3_11  and  C4_14
REMARK       I    between atoms: C4_14  and  N3_16
REMARK    7  A    between atoms: N3_16  and  C5_18
ROOT
HETATM    1  C4  UNL     1      66.166  30.557  50.425  1.00  0.00     0.266 C
HETATM    2  O2  UNL     1      67.382  30.838  50.515  1.00  0.00    -0.270 OA
HETATM    3  N3  UNL     1      65.597  29.791  51.466  1.00  0.00    -0.157 N
ATOM      4  H3  UNL     1      64.772  30.176  51.925  1.00  0.00     0.187 HD
ENDROOT
BRANCH   1   5
HETATM    5  C3  UNL     1      65.314  30.988  49.290  1.00  0.00     0.242 C
BRANCH   5   6
HETATM    6  C2  UNL     1      65.791  30.548  47.948  1.00  0.00     0.246 C
BRANCH   6   7
HETATM    7  C1  UNL     1      65.977  31.699  46.969  1.00  0.00     0.265 C
BRANCH   7   8
HETATM    8  N1  UNL     1      65.004  32.743  47.216  1.00  0.00    -0.077 N
ATOM      9  H13 UNL     1      65.259  33.315  48.021  1.00  0.00     0.274 HD
ATOM     10  H12 UNL     1      65.036  33.467  46.498  1.00  0.00     0.274 HD
ATOM     11  H11 UNL     1      64.069  32.349  47.312  1.00  0.00     0.274 HD
ENDBRANCH   7   8
ENDBRANCH   6   7
BRANCH   6  12
HETATM   12  N2  UNL     1      66.926  29.670  47.961  1.00  0.00    -0.070 N
ATOM     13  H23 UNL     1      66.742  28.833  48.514  1.00  0.00     0.274 HD
ATOM     14  H22 UNL     1      67.067  29.231  47.051  1.00  0.00     0.274 HD
ATOM     15  H21 UNL     1      67.770  30.146  48.278  1.00  0.00     0.274 HD
ENDBRANCH   6  12
ENDBRANCH   5   6
BRANCH   5  16
HETATM   16  O1  UNL     1      64.010  30.522  49.451  1.00  0.00    -0.384 OA
ATOM     17  H1  UNL     1      63.953  30.114  50.307  1.00  0.00     0.210 HD
ENDBRANCH   5  16
ENDBRANCH   1   5
BRANCH   3  18
HETATM   18  C5  UNL     1      66.019  28.657  51.889  1.00  0.00     0.692 C
HETATM   19  N4  UNL     1      65.602  27.550  51.219  1.00  0.00    -0.141 N
HETATM   20  C6  UNL     1      65.639  26.252  51.568  1.00  0.00     0.341 C
ATOM     21  H4  UNL     1      65.194  27.735  50.302  1.00  0.00     0.189 HD
HETATM   22  O3  UNL     1      65.068  25.442  50.762  1.00  0.00    -0.246 OA
HETATM   23  N5  UNL     1      66.198  25.674  52.660  1.00  0.00    -0.270 N
HETATM   24  C7  UNL     1      66.681  26.294  53.748  1.00  0.00     0.318 C
ATOM     25  H5  UNL     1      66.258  24.655  52.653  1.00  0.00     0.174 HD
HETATM   26  O4  UNL     1      66.865  25.603  54.782  1.00  0.00    -0.262 OA
HETATM   27  C8  UNL     1      67.009  27.627  53.877  1.00  0.00     0.328 C
HETATM   28  O5  UNL     1      67.521  27.968  54.953  1.00  0.00    -0.261 OA
HETATM   29  N6  UNL     1      66.837  28.622  52.956  1.00  0.00    -0.151 N
ATOM     30  H6  UNL     1      67.410  29.454  53.097  1.00  0.00     0.188 HD
ENDBRANCH   3  18
TORSDOF 7
ENDMDL