MODEL 1
REMARK VINA RESULT: -6.896194172      0.000      0.000
REMARK  6 active torsions:
REMARK  status: ('A' for Active; 'I' for Inactive)
REMARK    1  A    between atoms: S1_2  and  N1_5
REMARK    2  A    between atoms: N1_5  and  N2_7
REMARK       I    between atoms: N2_7  and  C2_9
REMARK    3  A    between atoms: C2_9  and  C3_11
REMARK    4  A    between atoms: C3_11  and  N3_12
REMARK    5  A    between atoms: C3_11  and  O4_16
REMARK    6  A    between atoms: C3_11  and  C4_18
ROOT
HETATM    1  C3  UNL     1      66.783  26.789  50.728  1.00  0.00     0.365 C
ENDROOT
BRANCH   1   2
HETATM    2  C2  UNL     1      66.863  28.203  50.209  1.00  0.00     0.308 C
HETATM    3  N2  UNL     1      66.133  28.559  49.063  1.00  0.00    -0.256 N
ATOM      4  H2  UNL     1      65.592  27.789  48.671  1.00  0.00     0.190 HD
HETATM    5  O3  UNL     1      67.612  28.992  50.874  1.00  0.00    -0.266 OA
BRANCH   3   6
HETATM    6  N1  UNL     1      66.005  29.706  48.379  1.00  0.00    -0.225 N
ATOM      7  H1  UNL     1      66.503  29.802  47.493  1.00  0.00     0.200 HD
BRANCH   6   8
HETATM    8  S1  UNL     1      65.071  30.985  48.909  1.00  0.00     0.240 S
HETATM    9  C1  UNL     1      64.990  32.264  47.657  1.00  0.00     0.187 C
HETATM   10  O1  UNL     1      65.830  31.629  50.102  1.00  0.00    -0.205 OA
HETATM   11  O2  UNL     1      63.732  30.685  49.463  1.00  0.00    -0.205 OA
ENDBRANCH   6   8
ENDBRANCH   3   6
ENDBRANCH   1   2
BRANCH   1  12
HETATM   12  N3  UNL     1      66.034  25.930  49.855  1.00  0.00    -0.030 N
ATOM     13  H33 UNL     1      65.144  26.355  49.593  1.00  0.00     0.279 HD
ATOM     14  H32 UNL     1      66.466  25.877  48.931  1.00  0.00     0.279 HD
ATOM     15  H31 UNL     1      65.897  25.001  50.252  1.00  0.00     0.279 HD
ENDBRANCH   1  12
BRANCH   1  16
HETATM   16  O4  UNL     1      68.079  26.298  50.812  1.00  0.00    -0.352 OA
ATOM     17  H4  UNL     1      68.672  27.038  50.752  1.00  0.00     0.213 HD
ENDBRANCH   1  16
BRANCH   1  18
HETATM   18  C4  UNL     1      66.199  26.804  52.111  1.00  0.00     0.174 A
HETATM   19  N4  UNL     1      65.649  25.762  52.760  1.00  0.00    -0.291 N
HETATM   20  C5  UNL     1      65.232  26.169  53.989  1.00  0.00     0.340 A
ATOM     21  H4  UNL     1      65.559  24.816  52.388  1.00  0.00     0.172 HD
HETATM   22  O5  UNL     1      64.671  25.490  54.886  1.00  0.00    -0.245 OA
HETATM   23  N5  UNL     1      65.530  27.479  54.092  1.00  0.00    -0.250 N
HETATM   24  N6  UNL     1      66.109  27.845  52.960  1.00  0.00    -0.280 N
ATOM     25  H5  UNL     1      65.344  28.079  54.896  1.00  0.00     0.192 HD
ATOM     26  H6  UNL     1      66.441  28.787  52.758  1.00  0.00     0.188 HD
ENDBRANCH   1  18
TORSDOF 6
ENDMDL