MODEL 2
REMARK VINA RESULT: -7.070257492      1.651      3.357
REMARK  4 active torsions:
REMARK  status: ('A' for Active; 'I' for Inactive)
REMARK    1  A    between atoms: C1_2  and  C2_4
REMARK    2  A    between atoms: C2_4  and  N2_5
REMARK    3  A    between atoms: C2_4  and  C3_9
REMARK    4  A    between atoms: C3_9  and  N3_10
ROOT
HETATM    1  N3  UNL     1      66.540  26.447  51.420  1.00  0.00    -0.282 N
HETATM    2  C4  UNL     1      67.296  25.399  51.045  1.00  0.00     0.331 A
HETATM    3  O2  UNL     1      67.224  24.299  51.658  1.00  0.00    -0.246 OA
HETATM    4  N4  UNL     1      68.166  25.447  50.009  1.00  0.00    -0.274 N
ATOM      5  H4  UNL     1      68.710  24.617  49.773  1.00  0.00     0.173 HD
HETATM    6  C5  UNL     1      68.324  26.563  49.287  1.00  0.00     0.269 A
HETATM    7  O3  UNL     1      69.143  26.619  48.308  1.00  0.00    -0.267 OA
HETATM    8  C6  UNL     1      67.571  27.657  49.636  1.00  0.00     0.144 A
HETATM    9  C7  UNL     1      67.734  28.806  48.893  1.00  0.00     0.269 A
HETATM   10  O4  UNL     1      68.545  28.838  47.933  1.00  0.00    -0.267 OA
HETATM   11  N5  UNL     1      66.982  29.866  49.255  1.00  0.00    -0.275 N
ATOM     12  H5  UNL     1      67.073  30.735  48.729  1.00  0.00     0.173 HD
HETATM   13  C8  UNL     1      66.119  29.820  50.281  1.00  0.00     0.328 A
HETATM   14  O5  UNL     1      65.412  30.811  50.623  1.00  0.00    -0.247 OA
HETATM   15  N6  UNL     1      65.975  28.678  51.001  1.00  0.00    -0.293 N
ATOM     16  H6  UNL     1      65.316  28.656  51.778  1.00  0.00     0.172 HD
HETATM   17  C9  UNL     1      66.684  27.578  50.707  1.00  0.00     0.137 A
ENDROOT
BRANCH   1  18
HETATM   18  C3  UNL     1      65.638  26.339  52.518  1.00  0.00     0.177 C
BRANCH  18  19
HETATM   19  C2  UNL     1      66.288  26.648  53.872  1.00  0.00     0.290 C
BRANCH  19  20
HETATM   20  C1  UNL     1      66.121  25.426  54.674  1.00  0.00     0.263 C
HETATM   21  N1  UNL     1      67.242  24.712  55.125  1.00  0.00    -0.060 NA
HETATM   22  O1  UNL     1      64.975  25.037  54.947  1.00  0.00    -0.275 OA
ENDBRANCH  19  20
BRANCH  19  23
HETATM   23  N2  UNL     1      65.690  27.797  54.512  1.00  0.00    -0.065 N
ATOM     24  H23 UNL     1      64.878  27.531  55.070  1.00  0.00     0.275 HD
ATOM     25  H22 UNL     1      66.285  28.158  55.257  1.00  0.00     0.275 HD
ATOM     26  H21 UNL     1      65.454  28.527  53.839  1.00  0.00     0.275 HD
ENDBRANCH  19  23
ENDBRANCH  18  19
ENDBRANCH   1  18
TORSDOF 4
ENDMDL