MODEL 2
REMARK VINA RESULT: -6.609990623      0.953      1.252
REMARK  5 active torsions:
REMARK  status: ('A' for Active; 'I' for Inactive)
REMARK    1  A    between atoms: C2_2  and  C3_3
REMARK    2  A    between atoms: C3_3  and  C4_4
REMARK    3  A    between atoms: C4_4  and  O2_6
REMARK    4  A    between atoms: O2_6  and  C5_7
REMARK    5  A    between atoms: C21_26  and  C23_28
ROOT
HETATM    1  C5  UNL     1       2.751   5.428  20.516  1.00  0.00     0.177 C
HETATM    2  C6  UNL     1       2.501   3.969  20.317  1.00  0.00     0.044 C
HETATM    3  C7  UNL     1       1.933   3.435  21.609  1.00  0.00     0.030 C
HETATM    4  C8  UNL     1       0.484   3.027  21.476  1.00  0.00     0.184 C
HETATM    5  O3  UNL     1       0.319   2.247  22.671  1.00  0.00    -0.320 OA
HETATM    6  C9  UNL     1       1.524   1.641  23.001  1.00  0.00     0.267 C
HETATM    7  O4  UNL     1       1.664   0.846  23.953  1.00  0.00    -0.264 OA
HETATM    8  C10 UNL     1       2.558   2.121  22.024  1.00  0.00     0.050 C
HETATM    9  C11 UNL     1       2.575   1.137  20.881  1.00  0.00     0.026 C
HETATM   10  C12 UNL     1       3.904   2.272  22.665  1.00  0.00     0.020 C
HETATM   11  C13 UNL     1       3.867   2.920  24.004  1.00  0.00     0.001 C
HETATM   12  C14 UNL     1       4.748   4.176  24.043  1.00  0.00     0.000 C
HETATM   13  C15 UNL     1       6.152   3.889  24.414  1.00  0.00     0.000 C
HETATM   14  C16 UNL     1       7.196   4.419  23.505  1.00  0.00     0.000 C
HETATM   15  C17 UNL     1       6.864   5.726  22.849  1.00  0.00     0.002 C
HETATM   16  C18 UNL     1       6.670   5.452  21.352  1.00  0.00     0.032 C
HETATM   17  C19 UNL     1       6.016   6.587  20.645  1.00  0.00     0.119 C
HETATM   18  C20 UNL     1       6.384   7.878  21.426  1.00  0.00     0.039 C
HETATM   19  O5  UNL     1       4.723   6.627  20.484  1.00  0.00    -0.362 OA
HETATM   20  C21 UNL     1       3.904   5.971  19.691  1.00  0.00     0.171 C
HETATM   21  C22 UNL     1       3.233   7.091  18.834  1.00  0.00     0.061 C
ENDROOT
BRANCH   1  22
HETATM   22  O2  UNL     1       1.531   6.109  20.275  1.00  0.00    -0.312 OA
BRANCH  22  23
HETATM   23  C4  UNL     1       0.917   6.967  21.158  1.00  0.00     0.259 C
HETATM   24  O1  UNL     1       1.585   7.414  22.123  1.00  0.00    -0.265 OA
BRANCH  23  25
HETATM   25  C3  UNL     1      -0.504   7.336  20.950  1.00  0.00     0.111 C
BRANCH  25  26
HETATM   26  C2  UNL     1      -1.403   6.156  21.277  1.00  0.00     0.005 C
HETATM   27  C1  UNL     1      -1.423   5.925  22.762  1.00  0.00     0.005 C
ENDBRANCH  25  26
ENDBRANCH  23  25
ENDBRANCH  22  23
ENDBRANCH   1  22
BRANCH  20  28
HETATM   28  C23 UNL     1       4.381   5.056  18.674  1.00  0.00     0.211 C
HETATM   29  O6  UNL     1       4.203   5.304  17.467  1.00  0.00    -0.646 OA
HETATM   30  O7  UNL     1       5.037   3.902  18.992  1.00  0.00    -0.646 OA
ENDBRANCH  20  28
TORSDOF 5
ENDMDL