MODEL 1
REMARK VINA RESULT: -7.652693505      0.000      0.000
REMARK  7 active torsions:
REMARK  status: ('A' for Active; 'I' for Inactive)
REMARK    1  A    between atoms: C5_5  and  C6_6
REMARK    2  A    between atoms: C10_11  and  C11_12
REMARK    3  A    between atoms: C11_12  and  O3_14
REMARK    4  A    between atoms: O3_14  and  C12_15
REMARK    5  A    between atoms: C14_17  and  O4_18
REMARK    6  A    between atoms: C17_22  and  C19_24
REMARK    7  A    between atoms: C19_24  and  O6_26
ROOT
HETATM    1  C12 UNL     1       2.902   6.987  19.945  1.00  0.00     0.142 C
HETATM    2  C13 UNL     1       3.818   7.372  18.804  1.00  0.00     0.065 C
HETATM    3  C14 UNL     1       4.325   6.074  18.206  1.00  0.00     0.121 C
HETATM    4  C15 UNL     1       5.126   5.296  19.262  1.00  0.00     0.038 C
HETATM    5  C16 UNL     1       4.182   5.011  20.404  1.00  0.00     0.016 C
HETATM    6  C17 UNL     1       4.574   3.902  21.295  1.00  0.00     0.049 C
HETATM    7  C18 UNL     1       4.515   2.626  20.419  1.00  0.00     0.026 C
HETATM    8  C21 UNL     1       3.520   3.693  22.361  1.00  0.00     0.020 C
HETATM    9  C22 UNL     1       2.336   4.624  22.184  1.00  0.00     0.002 C
HETATM   10  C23 UNL     1       2.806   6.063  22.199  1.00  0.00     0.012 C
HETATM   11  C24 UNL     1       3.719   6.281  21.034  1.00  0.00    -0.012 C
HETATM   12  C25 UNL     1       4.814   7.215  21.482  1.00  0.00     0.018 C
ENDROOT
BRANCH   1  13
HETATM   13  O3  UNL     1       2.118   8.016  20.420  1.00  0.00    -0.315 OA
BRANCH  13  14
HETATM   14  C11 UNL     1       0.929   8.446  19.844  1.00  0.00     0.268 C
HETATM   15  O2  UNL     1       0.947   8.634  18.624  1.00  0.00    -0.264 OA
BRANCH  14  16
HETATM   16  C10 UNL     1      -0.234   8.634  20.747  1.00  0.00     0.122 C
HETATM   17  C2  UNL     1      -0.557   7.399  21.510  1.00  0.00    -0.075 C
HETATM   18  C1  UNL     1      -0.986   6.287  20.945  1.00  0.00     0.015 C
HETATM   19  C3  UNL     1      -0.333   7.594  22.955  1.00  0.00     0.035 C
HETATM   20  C4  UNL     1       0.396   8.895  23.034  1.00  0.00     0.015 C
HETATM   21  C5  UNL     1       0.095   9.681  21.798  1.00  0.00     0.038 C
BRANCH  21  22
HETATM   22  C6  UNL     1      -0.951  10.688  21.952  1.00  0.00    -0.029 A
HETATM   23  C7  UNL     1      -1.806  10.888  23.014  1.00  0.00     0.034 A
HETATM   24  C8  UNL     1      -2.631  11.973  22.697  1.00  0.00     0.142 A
HETATM   25  O1  UNL     1      -2.281  12.388  21.513  1.00  0.00    -0.334 OA
HETATM   26  C9  UNL     1      -1.282  11.653  21.026  1.00  0.00     0.148 A
ENDBRANCH  21  22
ENDBRANCH  14  16
ENDBRANCH  13  14
ENDBRANCH   1  13
BRANCH   3  27
HETATM   27  O4  UNL     1       3.264   5.278  17.770  1.00  0.00    -0.395 OA
ATOM     28  H4  UNL     1       2.730   4.994  18.503  1.00  0.00     0.210 HD
ENDBRANCH   3  27
BRANCH   6  29
HETATM   29  C19 UNL     1       5.910   3.917  21.868  1.00  0.00     0.267 C
HETATM   30  O5  UNL     1       6.877   3.339  21.340  1.00  0.00    -0.264 OA
BRANCH  29  31
HETATM   31  O6  UNL     1       6.158   4.593  23.056  1.00  0.00    -0.326 OA
HETATM   32  C20 UNL     1       6.857   4.046  24.134  1.00  0.00     0.213 C
ENDBRANCH  29  31
ENDBRANCH   6  29
TORSDOF 7
ENDMDL