MODEL 5
REMARK VINA RESULT: -7.844938002      2.933      6.916
REMARK  7 active torsions:
REMARK  status: ('A' for Active; 'I' for Inactive)
REMARK    1  A    between atoms: N2_10  and  C8_12
REMARK    2  A    between atoms: C8_12  and  C9_13
REMARK    3  A    between atoms: N3_14  and  O1_16
REMARK    4  A    between atoms: C10_19  and  C11_20
REMARK    5  A    between atoms: C11_20  and  O3_22
REMARK    6  A    between atoms: O3_22  and  C12_23
REMARK    7  A    between atoms: C12_23  and  C13_24
ROOT
HETATM    1  C1  UNL     1       1.738   7.574  16.647  1.00  0.00     0.010 C
HETATM    2  C2  UNL     1       1.889   8.412  17.878  1.00  0.00    -0.013 C
HETATM    3  C3  UNL     1       2.926   7.928  18.836  1.00  0.00     0.005 C
HETATM    4  C4  UNL     1       2.577   6.689  19.594  1.00  0.00     0.012 C
HETATM    5  C5  UNL     1       1.091   6.651  19.880  1.00  0.00     0.055 C
HETATM    6  C6  UNL     1       0.604   8.020  19.870  1.00  0.00    -0.005 C
HETATM    7  N1  UNL     1       0.225   8.712  20.866  1.00  0.00    -0.344 N
ATOM      8  H1  UNL     1      -0.091   9.664  20.678  1.00  0.00     0.167 HD
HETATM    9  C7  UNL     1       0.202   8.286  22.198  1.00  0.00     0.141 C
HETATM   10  N2  UNL     1      -0.359   8.874  23.182  1.00  0.00    -0.366 N
ATOM     11  H2  UNL     1      -0.317   8.479  24.122  1.00  0.00     0.162 HD
HETATM   12  S1  UNL     1       1.051   6.736  22.554  1.00  0.00    -0.078 SA
HETATM   13  C10 UNL     1       0.713   5.783  21.019  1.00  0.00     0.164 C
HETATM   14  C23 UNL     1       0.545   8.700  18.528  1.00  0.00     0.057 C
ENDROOT
BRANCH  13  15
HETATM   15  C11 UNL     1       1.412   4.502  20.995  1.00  0.00     0.274 C
HETATM   16  O2  UNL     1       1.056   3.646  20.126  1.00  0.00    -0.264 OA
BRANCH  15  17
HETATM   17  O3  UNL     1       2.439   4.133  21.841  1.00  0.00    -0.320 OA
BRANCH  17  18
HETATM   18  C12 UNL     1       3.555   3.366  21.408  1.00  0.00     0.188 C
BRANCH  18  19
HETATM   19  C13 UNL     1       4.833   4.128  21.447  1.00  0.00    -0.017 C
HETATM   20  C14 UNL     1       5.992   3.325  21.984  1.00  0.00     0.016 C
HETATM   21  C15 UNL     1       7.196   4.217  22.111  1.00  0.00    -0.013 C
HETATM   22  C16 UNL     1       6.907   5.348  23.048  1.00  0.00     0.009 C
HETATM   23  C20 UNL     1       7.624   4.733  20.748  1.00  0.00     0.009 C
HETATM   24  C17 UNL     1       5.836   6.211  22.416  1.00  0.00    -0.013 C
HETATM   25  C18 UNL     1       6.231   6.704  21.058  1.00  0.00     0.009 C
HETATM   26  C22 UNL     1       4.600   5.376  22.281  1.00  0.00     0.016 C
HETATM   27  C19 UNL     1       6.460   5.496  20.175  1.00  0.00    -0.013 C
HETATM   28  C21 UNL     1       5.242   4.621  20.058  1.00  0.00     0.016 C
ENDBRANCH  18  19
ENDBRANCH  17  18
ENDBRANCH  15  17
ENDBRANCH  13  15
BRANCH  10  29
HETATM   29  C8  UNL     1      -1.061  10.132  22.928  1.00  0.00     0.168 C
BRANCH  29  30
HETATM   30  C9  UNL     1      -2.374  10.038  23.599  1.00  0.00     0.106 C
HETATM   31  N3  UNL     1      -3.028  11.100  23.861  1.00  0.00    -0.283 N
ATOM     32  H3  UNL     1      -3.934  11.028  24.325  1.00  0.00     0.192 HD
BRANCH  31  33
HETATM   33  O1  UNL     1      -2.542  12.329  23.533  1.00  0.00    -0.291 OA
ATOM     34  H1  UNL     1      -2.811  13.108  24.006  1.00  0.00     0.244 HD
ENDBRANCH  31  33
ENDBRANCH  29  30
ENDBRANCH  10  29
TORSDOF 7
ENDMDL