MODEL 2
REMARK VINA RESULT: -6.696806290      3.100      5.318
REMARK  4 active torsions:
REMARK  status: ('A' for Active; 'I' for Inactive)
REMARK    1  A    between atoms: C2_2  and  C3_3
REMARK    2  A    between atoms: C3_3  and  C4_4
REMARK    3  A    between atoms: C4_4  and  C5_5
REMARK    4  A    between atoms: C13_20  and  C14_21
ROOT
HETATM    1  C14 UNL     1       6.336   4.023  19.725  1.00  0.00     0.047 C
HETATM    2  C15 UNL     1       7.583   4.383  18.911  1.00  0.00     0.062 C
HETATM    3  C16 UNL     1       6.467   2.913  20.553  1.00  0.00     0.097 C
HETATM    4  N4  UNL     1       6.589   2.013  21.255  1.00  0.00    -0.192 NA
ENDROOT
BRANCH   1   5
HETATM    5  C13 UNL     1       5.143   4.685  19.279  1.00  0.00     0.075 A
HETATM    6  N3  UNL     1       4.646   4.275  18.010  1.00  0.00    -0.349 N
HETATM    7  C12 UNL     1       3.649   5.043  17.638  1.00  0.00     0.189 A
ATOM      8  H3  UNL     1       5.013   3.495  17.466  1.00  0.00     0.166 HD
HETATM    9  N2  UNL     1       3.449   5.946  18.589  1.00  0.00    -0.305 N
HETATM   10  C11 UNL     1       2.446   6.966  18.372  1.00  0.00     0.070 A
HETATM   11  C17 UNL     1       4.330   5.742  19.591  1.00  0.00     0.073 A
HETATM   12  C8  UNL     1       1.744   7.525  19.420  1.00  0.00     0.101 A
HETATM   13  C10 UNL     1       2.077   7.399  17.120  1.00  0.00    -0.008 A
HETATM   14  C7  UNL     1       1.943   7.333  20.874  1.00  0.00     0.261 C
HETATM   15  S1  UNL     1       0.622   8.586  18.709  1.00  0.00    -0.078 SA
HETATM   16  N1  UNL     1       3.185   7.009  21.399  1.00  0.00    -0.342 N
HETATM   17  O1  UNL     1       0.894   7.496  21.523  1.00  0.00    -0.267 OA
HETATM   18  C5  UNL     1       4.396   6.377  20.918  1.00  0.00     0.075 C
ATOM     19  H1  UNL     1       3.266   7.289  22.377  1.00  0.00     0.164 HD
HETATM   20  C6  UNL     1       4.515   5.353  22.047  1.00  0.00     0.045 C
HETATM   21  C9  UNL     1       1.056   8.318  17.063  1.00  0.00     0.060 A
HETATM   22  C23 UNL     1       0.549   8.836  15.775  1.00  0.00     0.167 C
HETATM   23  C22 UNL     1       1.282   8.677  14.495  1.00  0.00     0.093 C
HETATM   24  O2  UNL     1      -0.547   9.431  15.783  1.00  0.00    -0.292 OA
HETATM   25  C19 UNL     1       2.727   8.396  14.902  1.00  0.00    -0.037 C
HETATM   26  C18 UNL     1       2.658   7.110  15.751  1.00  0.00     0.051 C
HETATM   27  C20 UNL     1       3.510   8.053  13.667  1.00  0.00     0.015 C
HETATM   28  C21 UNL     1       3.323   9.541  15.657  1.00  0.00     0.015 C
BRANCH  18  29
HETATM   29  C4  UNL     1       5.390   7.503  20.985  1.00  0.00     0.037 C
BRANCH  29  30
HETATM   30  C3  UNL     1       6.429   7.396  22.065  1.00  0.00     0.002 C
BRANCH  30  31
HETATM   31  C2  UNL     1       7.797   7.053  21.447  1.00  0.00    -0.004 C
HETATM   32  C1  UNL     1       8.403   5.907  22.193  1.00  0.00     0.005 C
ENDBRANCH  30  31
ENDBRANCH  29  30
ENDBRANCH  18  29
ENDBRANCH   1   5
TORSDOF 4
ENDMDL