MODEL 4
REMARK VINA RESULT: -5.466586237      3.020      6.327
REMARK  9 active torsions:
REMARK  status: ('A' for Active; 'I' for Inactive)
REMARK    1  A    between atoms: C2_2  and  C4_4
REMARK    2  A    between atoms: C4_4  and  C5_5
REMARK    3  A    between atoms: C5_5  and  C6_6
REMARK    4  A    between atoms: C6_6  and  O2_8
REMARK    5  A    between atoms: O2_8  and  C7_9
REMARK    6  A    between atoms: C10_12  and  N1_13
REMARK       I    between atoms: N1_13  and  C11_15
REMARK    7  A    between atoms: C11_15  and  O4_17
REMARK    8  A    between atoms: O4_17  and  C12_18
REMARK    9  A    between atoms: N3_27  and  C18_28
ROOT
HETATM    1  C5  UNL     1       3.116   5.588  20.922  1.00  0.00     0.180 C
HETATM    2  C10 UNL     1       3.512   4.448  21.676  1.00  0.00     0.126 C
HETATM    3  N2  UNL     1       2.719   3.317  21.438  1.00  0.00    -0.336 N
ATOM      4  H2  UNL     1       2.896   2.420  21.890  1.00  0.00     0.168 HD
HETATM    5  C16 UNL     1       1.654   3.506  20.524  1.00  0.00     0.096 C
HETATM    6  S1  UNL     1       1.249   2.410  19.444  1.00  0.00    -0.064 SA
HETATM    7  C17 UNL     1       0.886   4.778  20.722  1.00  0.00     0.189 C
HETATM    8  N3  UNL     1       1.725   5.822  21.238  1.00  0.00    -0.375 N
ENDROOT
BRANCH   1   9
HETATM    9  C4  UNL     1       3.944   6.806  20.954  1.00  0.00     0.082 C
BRANCH   9  10
HETATM   10  C2  UNL     1       5.418   6.680  20.971  1.00  0.00    -0.090 C
HETATM   11  C1  UNL     1       6.105   7.466  21.890  1.00  0.00     0.014 C
HETATM   12  C3  UNL     1       6.348   5.893  20.158  1.00  0.00     0.042 C
ENDBRANCH   9  10
ENDBRANCH   1   9
BRANCH   1  13
HETATM   13  C6  UNL     1       3.052   5.333  19.412  1.00  0.00     0.295 C
HETATM   14  O1  UNL     1       3.706   4.386  18.877  1.00  0.00    -0.262 OA
BRANCH  13  15
HETATM   15  O2  UNL     1       2.325   6.084  18.525  1.00  0.00    -0.314 OA
BRANCH  15  16
HETATM   16  C7  UNL     1       2.790   7.085  17.676  1.00  0.00     0.123 C
HETATM   17  C8  UNL     1       1.657   7.981  17.178  1.00  0.00     0.040 C
HETATM   18  C9  UNL     1       3.526   6.639  16.461  1.00  0.00     0.040 C
ENDBRANCH  15  16
ENDBRANCH  13  15
ENDBRANCH   1  13
BRANCH   2  19
HETATM   19  N1  UNL     1       4.397   4.121  22.705  1.00  0.00    -0.289 N
HETATM   20  C11 UNL     1       4.584   3.242  23.752  1.00  0.00     0.366 C
HETATM   21  O3  UNL     1       3.817   2.317  24.057  1.00  0.00    -0.238 OA
ATOM     22  H1  UNL     1       5.189   4.763  22.672  1.00  0.00     0.172 HD
BRANCH  20  23
HETATM   23  O4  UNL     1       5.727   3.333  24.602  1.00  0.00    -0.294 OA
BRANCH  23  24
HETATM   24  C12 UNL     1       6.973   2.924  24.056  1.00  0.00     0.061 C
HETATM   25  C13 UNL     1       6.819   1.777  23.092  1.00  0.00     0.046 C
HETATM   26  C14 UNL     1       7.841   2.430  25.222  1.00  0.00     0.046 C
HETATM   27  C15 UNL     1       7.667   4.059  23.333  1.00  0.00     0.046 C
ENDBRANCH  23  24
ENDBRANCH  20  23
ENDBRANCH   2  19
BRANCH   8  28
HETATM   28  C18 UNL     1       1.112   7.009  21.477  1.00  0.00     0.019 C
HETATM   29  C19 UNL     1       0.644   7.271  22.919  1.00  0.00     0.037 C
HETATM   30  C20 UNL     1       1.536   8.271  20.774  1.00  0.00     0.037 C
HETATM   31  C21 UNL     1      -0.307   6.865  20.771  1.00  0.00     0.037 C
ENDBRANCH   8  28
TORSDOF 9
ENDMDL