MODEL 1
REMARK VINA RESULT: -6.749276711      0.000      0.000
REMARK  5 active torsions:
REMARK  status: ('A' for Active; 'I' for Inactive)
REMARK    1  A    between atoms: N1_2  and  C2_4
REMARK    2  A    between atoms: C9_14  and  C10_15
REMARK    3  A    between atoms: C12_17  and  O1_18
REMARK    4  A    between atoms: C14_20  and  O2_21
REMARK    5  A    between atoms: C16_23  and  O3_24
ROOT
HETATM    1  C2  UNL     1       3.889   6.513  18.574  1.00  0.00     0.059 A
HETATM    2  C3  UNL     1       3.569   6.698  17.265  1.00  0.00     0.093 A
HETATM    3  C4  UNL     1       4.489   6.288  16.245  1.00  0.00     0.103 C
HETATM    4  N2  UNL     1       5.210   5.967  15.402  1.00  0.00    -0.191 NA
HETATM    5  C5  UNL     1       2.379   7.274  16.828  1.00  0.00     0.028 A
HETATM    6  C6  UNL     1       2.096   7.445  15.372  1.00  0.00     0.070 C
HETATM    7  N3  UNL     1       1.510   7.661  17.773  1.00  0.00    -0.361 N
ATOM      8  H3  UNL     1       0.628   8.087  17.488  1.00  0.00     0.165 HD
HETATM    9  C7  UNL     1       1.762   7.507  19.083  1.00  0.00     0.029 A
HETATM   10  C8  UNL     1       2.932   6.943  19.514  1.00  0.00     0.005 A
HETATM   11  C9  UNL     1       2.879   6.956  20.986  1.00  0.00     0.094 C
HETATM   12  C19 UNL     1       1.418   6.769  21.262  1.00  0.00     0.161 C
HETATM   13  C20 UNL     1       0.834   5.550  20.757  1.00  0.00     0.086 C
HETATM   14  N4  UNL     1       0.344   4.583  20.348  1.00  0.00    -0.195 NA
HETATM   15  C21 UNL     1       0.968   7.188  22.560  1.00  0.00     0.086 C
HETATM   16  N5  UNL     1       0.620   7.507  23.608  1.00  0.00    -0.195 NA
HETATM   17  C22 UNL     1       0.889   7.861  20.273  1.00  0.00     0.030 C
HETATM   18  C23 UNL     1       1.129   9.232  20.783  1.00  0.00     0.024 C
HETATM   19  C24 UNL     1      -0.522   7.593  19.877  1.00  0.00     0.024 C
ENDROOT
BRANCH   1  20
HETATM   20  N1  UNL     1       4.920   6.010  19.071  1.00  0.00    -0.392 N
HETATM   21  C1  UNL     1       5.525   4.743  18.997  1.00  0.00     0.146 C
ATOM     22  H1  UNL     1       5.435   6.662  19.662  1.00  0.00     0.159 HD
ENDBRANCH   1  20
BRANCH  11  23
HETATM   23  C10 UNL     1       3.859   6.250  21.727  1.00  0.00    -0.041 A
HETATM   24  C11 UNL     1       5.104   6.818  21.940  1.00  0.00     0.047 A
HETATM   25  C12 UNL     1       6.115   6.205  22.644  1.00  0.00     0.104 A
HETATM   26  C14 UNL     1       5.903   4.956  23.176  1.00  0.00     0.135 A
HETATM   27  C16 UNL     1       4.676   4.352  22.988  1.00  0.00     0.104 A
HETATM   28  C18 UNL     1       3.672   5.013  22.263  1.00  0.00     0.047 A
BRANCH  25  29
HETATM   29  O1  UNL     1       7.355   6.819  22.833  1.00  0.00    -0.353 OA
HETATM   30  C13 UNL     1       8.344   6.891  21.852  1.00  0.00     0.210 C
ENDBRANCH  25  29
BRANCH  26  31
HETATM   31  O2  UNL     1       6.937   4.347  23.887  1.00  0.00    -0.351 OA
HETATM   32  C15 UNL     1       7.857   3.461  23.284  1.00  0.00     0.210 C
ENDBRANCH  26  31
BRANCH  27  33
HETATM   33  O3  UNL     1       4.468   3.098  23.525  1.00  0.00    -0.353 OA
HETATM   34  C17 UNL     1       3.193   2.515  23.655  1.00  0.00     0.210 C
ENDBRANCH  27  33
ENDBRANCH  11  23
TORSDOF 5
ENDMDL