MODEL 2
REMARK VINA RESULT: -6.819269126      1.778      4.514
REMARK  5 active torsions:
REMARK  status: ('A' for Active; 'I' for Inactive)
REMARK    1  A    between atoms: C3_3  and  C5_5
REMARK    2  A    between atoms: C5_5  and  O1_6
REMARK    3  A    between atoms: C5_5  and  C22_29
REMARK    4  A    between atoms: O1_6  and  C6_7
REMARK    5  A    between atoms: C14_17  and  O4_18
ROOT
HETATM    1  C6  UNL     1       2.855   6.004  21.370  1.00  0.00     0.282 C
HETATM    2  O2  UNL     1       2.907   5.053  22.394  1.00  0.00    -0.307 OA
HETATM    3  C7  UNL     1       4.116   4.673  22.803  1.00  0.00     0.416 C
HETATM    4  O3  UNL     1       4.049   3.266  22.994  1.00  0.00    -0.335 OA
HETATM    5  C8  UNL     1       2.786   2.872  23.325  1.00  0.00     0.207 C
HETATM    6  C9  UNL     1       1.802   2.787  22.241  1.00  0.00    -0.064 C
HETATM    7  C10 UNL     1       0.369   3.102  22.620  1.00  0.00     0.045 C
HETATM    8  C11 UNL     1       2.080   2.446  20.973  1.00  0.00    -0.022 C
HETATM    9  C12 UNL     1       3.386   2.100  20.435  1.00  0.00     0.030 C
HETATM   10  C13 UNL     1       4.230   3.149  19.835  1.00  0.00     0.045 C
HETATM   11  C14 UNL     1       3.722   4.466  19.509  1.00  0.00     0.101 C
HETATM   12  C15 UNL     1       4.625   4.969  18.346  1.00  0.00     0.157 C
HETATM   13  C16 UNL     1       6.067   4.756  18.839  1.00  0.00     0.038 C
HETATM   14  C17 UNL     1       6.345   5.511  20.080  1.00  0.00     0.041 C
HETATM   15  C18 UNL     1       5.193   5.757  21.007  1.00  0.00     0.080 C
HETATM   16  C19 UNL     1       5.432   7.124  21.654  1.00  0.00     0.047 C
HETATM   17  O5  UNL     1       5.213   4.884  22.062  1.00  0.00    -0.327 OA
HETATM   18  C20 UNL     1       3.837   5.656  20.348  1.00  0.00     0.095 C
HETATM   19  C21 UNL     1       3.635   6.704  19.250  1.00  0.00     0.189 C
HETATM   20  O6  UNL     1       4.493   6.317  18.264  1.00  0.00    -0.382 OA
ENDROOT
BRANCH   1  21
HETATM   21  O1  UNL     1       1.581   6.318  21.081  1.00  0.00    -0.350 OA
BRANCH  21  22
HETATM   22  C5  UNL     1       0.942   7.336  21.738  1.00  0.00     0.156 C
BRANCH  22  23
HETATM   23  C3  UNL     1       0.554   8.360  20.741  1.00  0.00    -0.059 C
HETATM   24  C2  UNL     1       0.263   7.982  19.503  1.00  0.00    -0.026 C
HETATM   25  C1  UNL     1      -0.110   8.929  18.420  1.00  0.00     0.036 C
HETATM   26  C4  UNL     1       0.492   9.815  21.012  1.00  0.00     0.046 C
ENDBRANCH  22  23
BRANCH  22  27
HETATM   27  C22 UNL     1      -0.230   6.891  22.578  1.00  0.00     0.011 C
HETATM   28  C23 UNL     1      -0.678   8.134  23.364  1.00  0.00     0.012 C
HETATM   29  C24 UNL     1      -1.359   6.281  21.869  1.00  0.00     0.012 C
ENDBRANCH  22  27
ENDBRANCH  21  22
ENDBRANCH   1  21
BRANCH  11  30
HETATM   30  O4  UNL     1       2.458   4.356  18.954  1.00  0.00    -0.386 OA
ATOM     31  H4  UNL     1       2.481   3.751  18.222  1.00  0.00     0.210 HD
ENDBRANCH  11  30
TORSDOF 5
ENDMDL