MODEL 3
REMARK VINA RESULT: -6.596591642      1.725      4.344
REMARK  4 active torsions:
REMARK  status: ('A' for Active; 'I' for Inactive)
REMARK    1  A    between atoms: N1_2  and  C2_4
REMARK    2  A    between atoms: C3_6  and  C4_7
REMARK    3  A    between atoms: C4_7  and  C5_8
REMARK    4  A    between atoms: C15_21  and  N2_22
ROOT
HETATM    1  C2  UNL     1       4.708   4.464  20.592  1.00  0.00     0.255 C
HETATM    2  O1  UNL     1       3.360   4.242  20.648  1.00  0.00    -0.357 OA
HETATM    3  C3  UNL     1       2.611   5.205  21.268  1.00  0.00     0.143 C
HETATM    4  C6  UNL     1       2.959   6.622  20.933  1.00  0.00     0.056 C
HETATM    5  C7  UNL     1       4.478   6.848  20.989  1.00  0.00     0.054 C
HETATM    6  C8  UNL     1       5.050   5.827  20.045  1.00  0.00     0.108 C
HETATM    7  C9  UNL     1       6.531   6.007  19.894  1.00  0.00     0.051 C
HETATM    8  O4  UNL     1       4.448   5.942  18.791  1.00  0.00    -0.335 OA
HETATM    9  C10 UNL     1       3.311   6.670  18.499  1.00  0.00     0.088 A
HETATM   10  C11 UNL     1       2.969   7.020  17.203  1.00  0.00     0.010 A
HETATM   11  C12 UNL     1       1.827   7.748  16.985  1.00  0.00     0.087 A
HETATM   12  C13 UNL     1       1.025   8.128  18.051  1.00  0.00    -0.001 A
HETATM   13  C14 UNL     1      -0.211   8.910  17.799  1.00  0.00     0.054 C
HETATM   14  C15 UNL     1       1.388   7.765  19.347  1.00  0.00     0.047 A
HETATM   15  C18 UNL     1       2.530   7.035  19.580  1.00  0.00     0.010 A
HETATM   16  O5  UNL     1       1.490   8.095  15.687  1.00  0.00    -0.340 OA
HETATM   17  C19 UNL     1       2.371   7.993  14.587  1.00  0.00     0.061 C
HETATM   18  C20 UNL     1       1.871   6.844  13.732  1.00  0.00     0.046 C
HETATM   19  C21 UNL     1       2.324   9.271  13.765  1.00  0.00     0.046 C
HETATM   20  C22 UNL     1       3.769   7.791  15.070  1.00  0.00     0.042 C
HETATM   21  C23 UNL     1       3.796   6.634  16.039  1.00  0.00     0.047 C
ENDROOT
BRANCH   3  22
HETATM   22  C4  UNL     1       2.624   5.063  22.783  1.00  0.00     0.146 C
BRANCH  22  23
HETATM   23  C5  UNL     1       2.559   3.645  23.196  1.00  0.00     0.175 C
HETATM   24  O2  UNL     1       3.441   3.085  23.903  1.00  0.00    -0.648 OA
HETATM   25  O3  UNL     1       1.467   2.888  22.789  1.00  0.00    -0.648 OA
ENDBRANCH  22  23
ENDBRANCH   3  22
BRANCH   1  26
HETATM   26  N1  UNL     1       5.252   3.511  19.662  1.00  0.00    -0.380 N
HETATM   27  C1  UNL     1       4.711   2.393  19.406  1.00  0.00     0.114 C
ATOM     28  H1  UNL     1       6.122   3.747  19.183  1.00  0.00     0.160 HD
ENDBRANCH   1  26
BRANCH  14  29
HETATM   29  N2  UNL     1       0.565   8.179  20.420  1.00  0.00    -0.389 N
HETATM   30  C16 UNL     1       0.718   9.475  21.068  1.00  0.00     0.149 C
HETATM   31  C17 UNL     1      -0.482   7.313  20.908  1.00  0.00     0.149 C
ENDBRANCH  14  29
TORSDOF 4
ENDMDL