MODEL 3
REMARK VINA RESULT: -7.029468271      1.014      1.146
REMARK  6 active torsions:
REMARK  status: ('A' for Active; 'I' for Inactive)
REMARK    1  A    between atoms: C2_2  and  O1_3
REMARK    2  A    between atoms: O1_3  and  C3_4
REMARK    3  A    between atoms: C3_4  and  C4_5
REMARK    4  A    between atoms: C3_4  and  C22_27
REMARK    5  A    between atoms: C4_5  and  C5_6
REMARK    6  A    between atoms: C22_27  and  O6_30
ROOT
HETATM    1  C5  UNL     1       2.507   7.696  20.676  1.00  0.00    -0.006 C
HETATM    2  C6  UNL     1       3.113   6.744  21.745  1.00  0.00     0.017 C
HETATM    3  C7  UNL     1       4.104   6.381  20.730  1.00  0.00    -0.011 C
HETATM    4  C8  UNL     1       5.281   7.364  20.793  1.00  0.00     0.018 C
HETATM    5  C9  UNL     1       3.131   6.825  19.672  1.00  0.00     0.000 C
HETATM    6  C10 UNL     1       2.429   5.830  18.891  1.00  0.00     0.006 C
HETATM    7  C11 UNL     1       1.725   4.673  19.451  1.00  0.00     0.005 C
HETATM    8  C12 UNL     1       2.358   3.322  19.207  1.00  0.00    -0.012 C
HETATM    9  C13 UNL     1       1.266   2.260  19.410  1.00  0.00     0.010 C
HETATM   10  C14 UNL     1       3.533   2.932  20.024  1.00  0.00     0.022 C
HETATM   11  C15 UNL     1       4.689   2.765  19.073  1.00  0.00     0.013 C
HETATM   12  C16 UNL     1       6.049   2.760  19.597  1.00  0.00     0.069 C
HETATM   13  C17 UNL     1       6.617   3.762  20.464  1.00  0.00     0.172 C
HETATM   14  C18 UNL     1       8.052   4.143  20.059  1.00  0.00     0.080 C
HETATM   15  O2  UNL     1       6.789   3.161  21.780  1.00  0.00    -0.260 OA
HETATM   16  C19 UNL     1       5.676   2.819  22.535  1.00  0.00     0.409 C
HETATM   17  O3  UNL     1       5.845   2.033  23.512  1.00  0.00    -0.229 OA
HETATM   18  O4  UNL     1       4.369   3.274  22.308  1.00  0.00    -0.290 OA
HETATM   19  C20 UNL     1       3.833   3.918  21.145  1.00  0.00     0.168 C
HETATM   20  C21 UNL     1       4.634   5.001  20.553  1.00  0.00     0.163 C
HETATM   21  O5  UNL     1       5.998   4.923  20.779  1.00  0.00    -0.346 OA
ENDROOT
BRANCH   1  22
HETATM   22  C4  UNL     1       1.067   7.909  20.786  1.00  0.00     0.040 C
BRANCH  22  23
HETATM   23  C3  UNL     1       0.478   7.924  22.172  1.00  0.00     0.155 C
BRANCH  23  24
HETATM   24  O1  UNL     1      -0.065   9.207  22.438  1.00  0.00    -0.383 OA
BRANCH  24  25
HETATM   25  C2  UNL     1       0.128  10.100  21.431  1.00  0.00     0.163 C
HETATM   26  C1  UNL     1      -0.929  11.153  21.380  1.00  0.00     0.033 C
ENDBRANCH  24  25
ENDBRANCH  23  24
BRANCH  23  27
HETATM   27  C22 UNL     1      -0.589   6.905  22.426  1.00  0.00     0.076 C
HETATM   28  C23 UNL     1      -1.788   7.573  23.101  1.00  0.00     0.048 C
HETATM   29  C24 UNL     1      -1.130   6.385  21.084  1.00  0.00     0.048 C
BRANCH  27  30
HETATM   30  O6  UNL     1      -0.245   5.812  23.157  1.00  0.00    -0.388 OA
ATOM     31  H6  UNL     1       0.677   5.581  23.187  1.00  0.00     0.210 HD
ENDBRANCH  27  30
ENDBRANCH  23  27
ENDBRANCH  22  23
ENDBRANCH   1  22
TORSDOF 6
ENDMDL