MODEL 1
REMARK VINA RESULT: -7.249730855      0.000      0.000
REMARK  6 active torsions:
REMARK  status: ('A' for Active; 'I' for Inactive)
REMARK    1  A    between atoms: C4_4  and  C5_5
REMARK    2  A    between atoms: C12_15  and  C13_16
REMARK    3  A    between atoms: C13_16  and  C14_17
REMARK    4  A    between atoms: C14_17  and  O4_18
REMARK    5  A    between atoms: C14_17  and  C15_20
REMARK    6  A    between atoms: N1_24  and  C18_26
ROOT
HETATM    1  C13 UNL     1       0.945   3.467  21.606  1.00  0.00     0.069 C
ENDROOT
BRANCH   1   2
HETATM    2  C12 UNL     1       0.484   4.873  21.801  1.00  0.00     0.156 C
HETATM    3  C7  UNL     1       0.450   5.539  20.435  1.00  0.00     0.155 C
HETATM    4  C6  UNL     1      -0.180   6.894  20.620  1.00  0.00     0.048 C
HETATM    5  O1  UNL     1       1.600   5.503  19.751  1.00  0.00    -0.348 OA
HETATM    6  C5  UNL     1       0.642   7.687  21.589  1.00  0.00     0.066 C
HETATM    7  C11 UNL     1       1.719   6.796  22.175  1.00  0.00     0.271 C
HETATM    8  O2  UNL     1       2.805   6.632  21.388  1.00  0.00    -0.326 OA
HETATM    9  O3  UNL     1       1.198   5.611  22.694  1.00  0.00    -0.353 OA
HETATM   10  C8  UNL     1       2.652   6.250  20.106  1.00  0.00     0.160 C
HETATM   11  C9  UNL     1       2.760   7.423  19.118  1.00  0.00     0.078 C
HETATM   12  C10 UNL     1       3.913   5.407  19.801  1.00  0.00     0.078 C
BRANCH   6  13
HETATM   13  C4  UNL     1      -0.153   8.365  22.620  1.00  0.00    -0.015 C
HETATM   14  C2  UNL     1      -0.492   9.645  22.561  1.00  0.00    -0.091 C
HETATM   15  C1  UNL     1      -1.287  10.334  23.587  1.00  0.00     0.042 C
HETATM   16  C3  UNL     1      -0.039  10.440  21.378  1.00  0.00     0.042 C
ENDBRANCH   6  13
ENDBRANCH   1   2
BRANCH   1  17
HETATM   17  C14 UNL     1       1.945   3.002  22.627  1.00  0.00     0.155 C
BRANCH  17  18
HETATM   18  O4  UNL     1       3.155   3.625  22.390  1.00  0.00    -0.392 OA
ATOM     19  H4  UNL     1       3.726   3.028  21.922  1.00  0.00     0.210 HD
ENDBRANCH  17  18
BRANCH  17  20
HETATM   20  C15 UNL     1       2.011   1.511  22.548  1.00  0.00     0.095 C
HETATM   21  C16 UNL     1       2.435   1.005  21.206  1.00  0.00     0.050 C
HETATM   22  O5  UNL     1       0.683   1.023  22.777  1.00  0.00    -0.326 OA
HETATM   23  C17 UNL     1       0.555   0.635  24.098  1.00  0.00     0.115 C
HETATM   24  N1  UNL     1      -0.520   0.171  24.613  1.00  0.00    -0.366 N
HETATM   25  C22 UNL     1       1.847   0.846  24.788  1.00  0.00     0.091 C
ATOM     26  H1  UNL     1      -1.337   0.082  24.008  1.00  0.00     0.162 HD
HETATM   27  C23 UNL     1       2.794   0.847  23.608  1.00  0.00     0.026 C
HETATM   28  C24 UNL     1       4.120   1.459  23.916  1.00  0.00     0.014 C
BRANCH  24  29
HETATM   29  C18 UNL     1      -0.658  -0.233  25.986  1.00  0.00     0.021 C
HETATM   30  C19 UNL     1       0.127  -1.484  26.314  1.00  0.00     0.037 C
HETATM   31  C20 UNL     1      -2.138  -0.586  26.187  1.00  0.00     0.037 C
HETATM   32  C21 UNL     1      -0.341   0.867  26.965  1.00  0.00     0.037 C
ENDBRANCH  24  29
ENDBRANCH  17  20
ENDBRANCH   1  17
TORSDOF 6
ENDMDL