MODEL 1
REMARK VINA RESULT: -8.294109400      0.000      0.000
REMARK  5 active torsions:
REMARK  status: ('A' for Active; 'I' for Inactive)
REMARK    1  A    between atoms: O1_2  and  C2_3
REMARK    2  A    between atoms: C8_11  and  C9_12
REMARK    3  A    between atoms: C9_12  and  N1_13
REMARK    4  A    between atoms: C12_16  and  O3_17
REMARK    5  A    between atoms: O3_17  and  C13_18
ROOT
HETATM    1  N1  UNL     1      21.681  10.600 -13.288  1.00  0.00    -0.371 N
HETATM    2  C10 UNL     1      21.944  10.264 -14.621  1.00  0.00     0.065 C
HETATM    3  C11 UNL     1      23.386  10.479 -14.997  1.00  0.00     0.076 C
HETATM    4  C12 UNL     1      24.293  10.912 -13.906  1.00  0.00     0.128 C
HETATM    5  C21 UNL     1      23.697  11.901 -12.933  1.00  0.00     0.052 C
HETATM    6  C22 UNL     1      22.202  11.886 -12.874  1.00  0.00     0.129 C
ENDROOT
BRANCH   1   7
HETATM    7  C9  UNL     1      20.504  10.210 -12.651  1.00  0.00     0.095 C
BRANCH   7   8
HETATM    8  C8  UNL     1      20.551   9.966 -11.162  1.00  0.00     0.167 C
HETATM    9  O2  UNL     1      20.854   8.574 -10.906  1.00  0.00    -0.340 OA
HETATM   10  C5  UNL     1      20.947   8.178  -9.541  1.00  0.00     0.079 A
HETATM   11  C4  UNL     1      19.917   8.615  -8.744  1.00  0.00    -0.022 A
HETATM   12  C6  UNL     1      21.954   7.434  -9.020  1.00  0.00     0.082 A
HETATM   13  C3  UNL     1      19.897   8.309  -7.410  1.00  0.00     0.049 A
HETATM   14  C24 UNL     1      18.823   9.361  -9.364  1.00  0.00     0.044 C
HETATM   15  C2  UNL     1      20.914   7.550  -6.848  1.00  0.00     0.107 A
HETATM   16  C7  UNL     1      21.946   7.113  -7.668  1.00  0.00     0.152 A
HETATM   17  F1  UNL     1      22.939   6.381  -7.147  1.00  0.00    -0.203 F
HETATM   18  C23 UNL     1      19.304  10.281 -10.433  1.00  0.00     0.042 C
BRANCH  15  19
HETATM   19  O1  UNL     1      20.894   7.240  -5.489  1.00  0.00    -0.353 OA
HETATM   20  C1  UNL     1      20.160   6.112  -5.056  1.00  0.00     0.210 C
ENDBRANCH  15  19
ENDBRANCH   7   8
ENDBRANCH   1   7
BRANCH   4  21
HETATM   21  O3  UNL     1      25.398  11.551 -14.527  1.00  0.00    -0.380 OA
BRANCH  21  22
HETATM   22  C13 UNL     1      26.612  11.137 -14.041  1.00  0.00     0.122 C
HETATM   23  C14 UNL     1      27.598  11.238 -15.201  1.00  0.00     0.033 C
HETATM   24  C15 UNL     1      28.090   9.877 -15.521  1.00  0.00     0.014 C
HETATM   25  C16 UNL     1      27.241   8.921 -14.771  1.00  0.00    -0.009 C
HETATM   26  C17 UNL     1      26.321   8.115 -15.666  1.00  0.00     0.187 C
HETATM   27  C19 UNL     1      28.124   7.821 -14.196  1.00  0.00     0.095 C
HETATM   28  C20 UNL     1      26.513   9.671 -13.714  1.00  0.00     0.044 C
HETATM   29  O4  UNL     1      27.158   7.102 -16.172  1.00  0.00    -0.339 OA
HETATM   30  C18 UNL     1      28.288   6.959 -15.390  1.00  0.00     0.112 C
HETATM   31  N2  UNL     1      29.294   6.211 -15.662  1.00  0.00    -0.384 N
ATOM     32  H22 UNL     1      29.407   5.618 -16.484  1.00  0.00     0.157 HD
ATOM     33  H21 UNL     1      30.129   6.107 -15.084  1.00  0.00     0.157 HD
ENDBRANCH  21  22
ENDBRANCH   4  21
TORSDOF 5
ENDMDL