MODEL 1
REMARK VINA RESULT: -7.060899332      0.000      0.000
REMARK  6 active torsions:
REMARK  status: ('A' for Active; 'I' for Inactive)
REMARK    1  A    between atoms: S1_2  and  C2_5
REMARK    2  A    between atoms: C4_9  and  C5_10
REMARK    3  A    between atoms: C9_19  and  N4_20
REMARK    4  A    between atoms: N4_20  and  C10_22
REMARK    5  A    between atoms: C10_22  and  C11_23
REMARK    6  A    between atoms: C10_22  and  C14_26
ROOT
HETATM    1  C5  UNL     1      17.493  11.069 -11.414  1.00  0.00     0.017 A
HETATM    2  C6  UNL     1      16.517  11.812 -12.074  1.00  0.00     0.066 A
HETATM    3  S2  UNL     1      15.079  11.002 -11.699  1.00  0.00    -0.082 SA
HETATM    4  C7  UNL     1      15.705   9.754 -10.730  1.00  0.00     0.089 A
HETATM    5  N2  UNL     1      15.083   8.736 -10.080  1.00  0.00    -0.346 N
ATOM      6  H2  UNL     1      14.071   8.628 -10.145  1.00  0.00     0.167 HD
HETATM    7  C8  UNL     1      15.809   7.873  -9.354  1.00  0.00     0.182 A
HETATM    8  N3  UNL     1      17.135   8.089  -9.320  1.00  0.00    -0.338 N
ATOM      9  H3  UNL     1      17.690   7.436  -8.767  1.00  0.00     0.168 HD
HETATM   10  C9  UNL     1      17.801   9.071  -9.936  1.00  0.00     0.116 A
HETATM   11  C17 UNL     1      17.043   9.996 -10.715  1.00  0.00     0.055 A
ENDROOT
BRANCH   1  12
HETATM   12  C4  UNL     1      18.884  11.518 -11.611  1.00  0.00     0.083 A
HETATM   13  N1  UNL     1      19.628  10.972 -12.568  1.00  0.00    -0.361 N
HETATM   14  C3  UNL     1      20.901  11.331 -12.805  1.00  0.00     0.112 A
ATOM     15  H1  UNL     1      19.212  10.246 -13.151  1.00  0.00     0.165 HD
HETATM   16  C2  UNL     1      21.504  12.305 -12.047  1.00  0.00     0.077 A
HETATM   17  C19 UNL     1      20.778  12.902 -11.043  1.00  0.00     0.069 A
HETATM   18  C18 UNL     1      19.461  12.494 -10.838  1.00  0.00     0.145 A
HETATM   19  F1  UNL     1      18.714  13.059  -9.858  1.00  0.00    -0.204 F
BRANCH  16  20
HETATM   20  S1  UNL     1      23.174  12.770 -12.368  1.00  0.00     0.173 S
HETATM   21  C1  UNL     1      23.956  11.504 -13.299  1.00  0.00     0.167 C
HETATM   22  O1  UNL     1      23.904  13.152 -11.132  1.00  0.00    -0.223 OA
HETATM   23  O2  UNL     1      23.110  14.003 -13.243  1.00  0.00    -0.223 OA
ENDBRANCH  16  20
ENDBRANCH   1  12
BRANCH  10  24
HETATM   24  N4  UNL     1      19.026   9.195  -9.821  1.00  0.00    -0.370 N
ATOM     25  H4  UNL     1      19.314  10.153 -10.021  1.00  0.00     0.161 HD
BRANCH  24  26
HETATM   26  C10 UNL     1      20.156   8.385  -9.490  1.00  0.00     0.091 C
BRANCH  26  27
HETATM   27  C11 UNL     1      20.684   8.724  -8.139  1.00  0.00     0.009 A
HETATM   28  C12 UNL     1      20.012   8.101  -6.922  1.00  0.00     0.007 A
HETATM   29  C13 UNL     1      21.370   7.725  -7.290  1.00  0.00     0.007 A
ENDBRANCH  26  27
BRANCH  26  30
HETATM   30  C14 UNL     1      21.085   8.416 -10.646  1.00  0.00     0.009 A
HETATM   31  C15 UNL     1      22.524   8.268 -10.709  1.00  0.00     0.007 A
HETATM   32  C16 UNL     1      21.777   7.024 -10.891  1.00  0.00     0.007 A
ENDBRANCH  26  30
ENDBRANCH  24  26
ENDBRANCH  10  24
TORSDOF 6
ENDMDL