MODEL 3
REMARK VINA RESULT: -7.592897007      0.956      1.294
REMARK  8 active torsions:
REMARK  status: ('A' for Active; 'I' for Inactive)
REMARK    1  A    between atoms: C2_2  and  C3_3
REMARK    2  A    between atoms: C4_4  and  C5_5
REMARK    3  A    between atoms: C5_5  and  O2_7
REMARK    4  A    between atoms: O2_7  and  C6_8
REMARK    5  A    between atoms: C6_8  and  C7_9
REMARK    6  A    between atoms: C14_17  and  O4_18
REMARK    7  A    between atoms: O4_18  and  C15_19
REMARK    8  A    between atoms: C18_24  and  O6_25
ROOT
HETATM    1  C7  UNL     1      18.433   9.766 -10.141  1.00  0.00    -0.019 A
HETATM    2  C8  UNL     1      19.272  10.727 -10.496  1.00  0.00     0.021 A
HETATM    3  C9  UNL     1      18.946  11.920 -11.269  1.00  0.00     0.079 A
HETATM    4  C10 UNL     1      19.770  11.861 -12.585  1.00  0.00     0.051 C
HETATM    5  C11 UNL     1      19.389  13.174 -10.499  1.00  0.00     0.051 C
HETATM    6  O3  UNL     1      17.629  11.986 -11.642  1.00  0.00    -0.336 OA
HETATM    7  C12 UNL     1      16.684  11.060 -11.307  1.00  0.00     0.086 A
HETATM    8  C13 UNL     1      15.368  11.258 -11.714  1.00  0.00     0.076 A
HETATM    9  C14 UNL     1      14.406  10.341 -11.377  1.00  0.00     0.102 A
HETATM   10  C17 UNL     1      14.749   9.231 -10.637  1.00  0.00     0.079 A
HETATM   11 BR1  UNL     1      13.438   7.921 -10.137  1.00  0.00    -0.045 Br
HETATM   12  C18 UNL     1      16.065   9.028 -10.228  1.00  0.00     0.099 A
HETATM   13  C19 UNL     1      17.052   9.918 -10.549  1.00  0.00     0.040 A
ENDROOT
BRANCH   1  14
HETATM   14  C6  UNL     1      18.890   8.622  -9.364  1.00  0.00     0.218 C
BRANCH  14  15
HETATM   15  O2  UNL     1      20.257   8.368  -9.255  1.00  0.00    -0.314 OA
BRANCH  15  16
HETATM   16  C5  UNL     1      20.901   8.214  -8.021  1.00  0.00     0.283 C
HETATM   17  O1  UNL     1      22.128   7.993  -8.155  1.00  0.00    -0.260 OA
BRANCH  16  18
HETATM   18  C4  UNL     1      20.200   8.305  -6.767  1.00  0.00     0.082 C
HETATM   19  C3  UNL     1      20.230   7.456  -5.802  1.00  0.00     0.005 C
BRANCH  19  20
HETATM   20  C2  UNL     1      20.945   6.213  -5.689  1.00  0.00    -0.010 C
HETATM   21  C1  UNL     1      20.495   5.189  -4.962  1.00  0.00     0.011 C
ENDBRANCH  19  20
ENDBRANCH  16  18
ENDBRANCH  15  16
ENDBRANCH  14  15
ENDBRANCH   1  14
BRANCH  12  22
HETATM   22  O6  UNL     1      16.375   7.918  -9.482  1.00  0.00    -0.358 OA
ATOM     23  H6  UNL     1      17.272   7.781  -9.201  1.00  0.00     0.217 HD
ENDBRANCH  12  22
BRANCH   9  24
HETATM   24  O4  UNL     1      13.109  10.541 -11.784  1.00  0.00    -0.278 OA
BRANCH  24  25
HETATM   25  C15 UNL     1      12.353  11.549 -11.236  1.00  0.00     0.260 C
HETATM   26  C16 UNL     1      12.108  12.766 -12.061  1.00  0.00     0.126 C
HETATM   27  O5  UNL     1      11.877  11.461 -10.070  1.00  0.00    -0.265 OA
ENDBRANCH  24  25
ENDBRANCH   9  24
TORSDOF 8
ENDMDL