MODEL 5
REMARK VINA RESULT: -7.065630089      1.932      4.384
REMARK  7 active torsions:
REMARK  status: ('A' for Active; 'I' for Inactive)
REMARK    1  A    between atoms: C6_6  and  C7_7
REMARK    2  A    between atoms: C6_6  and  S1_17
REMARK    3  A    between atoms: C7_7  and  O2_12
REMARK    4  A    between atoms: N1_8  and  O1_10
REMARK    5  A    between atoms: O2_12  and  C8_13
REMARK    6  A    between atoms: C8_13  and  C9_14
REMARK    7  A    between atoms: S1_17  and  C12_20
ROOT
HETATM    1  C1  UNL     1      23.471   9.418 -12.540  1.00  0.00     0.015 C
HETATM    2  C2  UNL     1      21.967   9.537 -12.248  1.00  0.00    -0.046 C
HETATM    3  C3  UNL     1      21.542   8.301 -11.481  1.00  0.00     0.015 C
HETATM    4  C4  UNL     1      21.257   9.586 -13.553  1.00  0.00     0.011 C
HETATM    5  C5  UNL     1      20.689  10.964 -13.648  1.00  0.00     0.035 C
HETATM    6  C6  UNL     1      21.192  11.794 -12.473  1.00  0.00     0.135 C
HETATM    7  C21 UNL     1      21.682  10.800 -11.484  1.00  0.00     0.043 C
ENDROOT
BRANCH   6   8
HETATM    8  C7  UNL     1      22.321  12.638 -13.029  1.00  0.00     0.162 C
HETATM    9  N1  UNL     1      22.334  13.199 -14.151  1.00  0.00    -0.249 N
ATOM     10  H1  UNL     1      23.169  13.737 -14.382  1.00  0.00     0.196 HD
BRANCH   9  11
HETATM   11  O1  UNL     1      21.370  13.167 -15.077  1.00  0.00    -0.288 OA
ATOM     12  H1  UNL     1      21.484  13.129 -16.019  1.00  0.00     0.244 HD
ENDBRANCH   9  11
BRANCH   8  13
HETATM   13  O2  UNL     1      23.464  12.822 -12.249  1.00  0.00    -0.336 OA
BRANCH  13  14
HETATM   14  C8  UNL     1      24.197  13.989 -12.313  1.00  0.00     0.181 C
BRANCH  14  15
HETATM   15  C9  UNL     1      24.001  14.991 -11.230  1.00  0.00     0.010 A
HETATM   16  C10 UNL     1      23.562  16.388 -11.783  1.00  0.00     0.007 A
HETATM   17  C11 UNL     1      22.689  15.607 -10.907  1.00  0.00     0.007 A
ENDBRANCH  14  15
ENDBRANCH  13  14
ENDBRANCH   8  13
ENDBRANCH   6   8
BRANCH   6  18
HETATM   18  S1  UNL     1      19.930  12.870 -11.935  1.00  0.00     0.195 S
HETATM   19  O3  UNL     1      20.180  13.278 -10.481  1.00  0.00    -0.221 OA
HETATM   20  O4  UNL     1      20.090  14.200 -12.688  1.00  0.00    -0.221 OA
BRANCH  18  21
HETATM   21  C12 UNL     1      18.305  12.345 -12.120  1.00  0.00     0.099 A
HETATM   22  C13 UNL     1      17.404  12.844 -13.018  1.00  0.00     0.029 A
HETATM   23  C14 UNL     1      16.099  12.322 -13.083  1.00  0.00     0.039 A
HETATM   24  C15 UNL     1      15.670  11.303 -12.265  1.00  0.00     0.078 A
HETATM   25  C16 UNL     1      16.576  10.799 -11.364  1.00  0.00     0.015 A
HETATM   26  O5  UNL     1      14.373  10.795 -12.343  1.00  0.00    -0.350 OA
HETATM   27  C17 UNL     1      17.854  11.305 -11.294  1.00  0.00     0.146 A
HETATM   28  C18 UNL     1      16.181   9.695 -10.449  1.00  0.00     0.046 C
HETATM   29  F1  UNL     1      18.748  10.809 -10.404  1.00  0.00    -0.204 F
HETATM   30  C19 UNL     1      14.916   9.025 -10.855  1.00  0.00     0.031 C
HETATM   31  C20 UNL     1      13.848   9.998 -11.302  1.00  0.00     0.176 C
ENDBRANCH  18  21
ENDBRANCH   6  18
TORSDOF 7
ENDMDL