MODEL 5
REMARK VINA RESULT: -7.045822665      1.964      2.826
REMARK  5 active torsions:
REMARK  status: ('A' for Active; 'I' for Inactive)
REMARK    1  A    between atoms: C6_9  and  N2_10
REMARK    2  A    between atoms: C11_15  and  N3_16
REMARK    3  A    between atoms: N3_16  and  C12_18
REMARK    4  A    between atoms: C12_18  and  C13_19
REMARK    5  A    between atoms: C13_19  and  N4_20
ROOT
HETATM    1  C1  UNL     1      14.619  10.445 -12.073  1.00  0.00     0.070 C
HETATM    2  C2  UNL     1      15.221   9.442 -11.158  1.00  0.00     0.033 A
HETATM    3  C3  UNL     1      14.581   8.308 -10.639  1.00  0.00     0.037 A
HETATM    4 BR1  UNL     1      12.771   7.843 -11.027  1.00  0.00    -0.049 Br
HETATM    5  C4  UNL     1      15.447   7.620  -9.836  1.00  0.00     0.070 A
HETATM    6  C5  UNL     1      16.635   8.338  -9.860  1.00  0.00     0.116 A
HETATM    7  N1  UNL     1      17.799   8.100  -9.247  1.00  0.00    -0.326 N
ATOM      8  H1  UNL     1      17.891   7.276  -8.652  1.00  0.00     0.169 HD
HETATM    9  C6  UNL     1      18.879   8.947  -9.401  1.00  0.00     0.135 A
HETATM   10  C11 UNL     1      18.762  10.050 -10.197  1.00  0.00     0.111 A
HETATM   11  C19 UNL     1      17.524  10.268 -10.824  1.00  0.00     0.152 A
HETATM   12  C20 UNL     1      17.340  11.449 -11.642  1.00  0.00     0.120 C
HETATM   13  N5  UNL     1      17.200  12.432 -12.288  1.00  0.00    -0.190 NA
HETATM   14  N6  UNL     1      16.473   9.426 -10.659  1.00  0.00    -0.289 N
ENDROOT
BRANCH  10  15
HETATM   15  N3  UNL     1      19.798  10.950 -10.445  1.00  0.00    -0.383 N
ATOM     16  H3  UNL     1      19.766  11.797  -9.877  1.00  0.00     0.159 HD
BRANCH  15  17
HETATM   17  C12 UNL     1      20.885  10.891 -11.348  1.00  0.00     0.150 C
BRANCH  17  18
HETATM   18  C13 UNL     1      20.954   9.802 -12.347  1.00  0.00     0.292 C
BRANCH  18  19
HETATM   19  N4  UNL     1      22.076  10.078 -13.235  1.00  0.00     0.090 N
HETATM   20  C14 UNL     1      23.241   9.297 -12.977  1.00  0.00     0.272 C
HETATM   21  C15 UNL     1      24.243   9.651 -14.086  1.00  0.00     0.030 C
HETATM   22  C16 UNL     1      24.757  11.057 -13.789  1.00  0.00     0.003 C
HETATM   23  C17 UNL     1      23.729  11.877 -13.023  1.00  0.00     0.030 C
HETATM   24  C18 UNL     1      22.309  11.471 -13.423  1.00  0.00     0.272 C
ENDBRANCH  18  19
ENDBRANCH  17  18
ENDBRANCH  15  17
ENDBRANCH  10  15
BRANCH   9  25
HETATM   25  N2  UNL     1      19.980   8.541  -8.636  1.00  0.00    -0.365 N
HETATM   26  C7  UNL     1      21.291   8.144  -9.033  1.00  0.00     0.124 C
HETATM   27  C8  UNL     1      21.770   7.184  -7.947  1.00  0.00     0.021 C
HETATM   28  C9  UNL     1      21.010   7.554  -6.720  1.00  0.00     0.021 C
HETATM   29  C10 UNL     1      19.907   8.467  -7.170  1.00  0.00     0.124 C
ENDBRANCH   9  25
TORSDOF 5
ENDMDL