MODEL 2
REMARK VINA RESULT: -7.360596074      3.862      4.583
REMARK  6 active torsions:
REMARK  status: ('A' for Active; 'I' for Inactive)
REMARK    1  A    between atoms: C2_2  and  C3_3
REMARK    2  A    between atoms: C2_2  and  C5_12
REMARK    3  A    between atoms: C3_3  and  C4_4
REMARK    4  A    between atoms: C4_4  and  N1_5
REMARK    5  A    between atoms: N1_5  and  N2_7
REMARK    6  A    between atoms: C5_12  and  C7_14
ROOT
HETATM    1  C7  UNL     1      20.144   9.625 -10.821  1.00  0.00     0.139 C
HETATM    2  C8  UNL     1      21.516  10.220 -10.826  1.00  0.00     0.035 C
HETATM    3  C9  UNL     1      21.539  11.285 -11.931  1.00  0.00     0.034 C
HETATM    4  C10 UNL     1      20.537  12.375 -11.648  1.00  0.00     0.146 C
HETATM    5  C11 UNL     1      20.205  13.004 -12.964  1.00  0.00     0.243 C
HETATM    6  O1  UNL     1      19.045  12.866 -13.414  1.00  0.00    -0.272 OA
HETATM    7  N4  UNL     1      21.175  13.735 -13.680  1.00  0.00    -0.311 N
ATOM      8  H4  UNL     1      21.123  13.830 -14.694  1.00  0.00     0.170 HD
HETATM    9  C12 UNL     1      22.252  14.349 -12.918  1.00  0.00     0.122 A
HETATM   10  N5  UNL     1      23.234  15.043 -13.420  1.00  0.00    -0.345 N
ATOM     11  H5  UNL     1      23.281  15.200 -14.427  1.00  0.00     0.167 HD
HETATM   12  C13 UNL     1      24.163  15.542 -12.638  1.00  0.00     0.140 A
HETATM   13  S1  UNL     1      23.661  15.025 -11.098  1.00  0.00    -0.084 SA
HETATM   14  C14 UNL     1      22.226  14.163 -11.567  1.00  0.00     0.044 A
HETATM   15  C15 UNL     1      21.181  13.411 -10.806  1.00  0.00     0.129 C
HETATM   16 BR1  UNL     1      19.930  14.720 -10.133  1.00  0.00    -0.084 Br
HETATM   17  C16 UNL     1      19.314  11.887 -11.012  1.00  0.00     0.279 C
HETATM   18  O2  UNL     1      18.303  12.624 -10.989  1.00  0.00    -0.264 OA
HETATM   19  O3  UNL     1      19.227  10.630 -10.430  1.00  0.00    -0.314 OA
ENDROOT
BRANCH   1  20
HETATM   20  C5  UNL     1      19.970   8.465  -9.905  1.00  0.00     0.039 C
HETATM   21  C6  UNL     1      19.073   8.778  -8.729  1.00  0.00     0.017 C
BRANCH  20  22
HETATM   22  C2  UNL     1      21.269   7.875  -9.456  1.00  0.00    -0.081 C
HETATM   23  C1  UNL     1      22.044   7.172 -10.262  1.00  0.00     0.015 C
BRANCH  22  24
HETATM   24  C3  UNL     1      21.724   8.075  -8.054  1.00  0.00     0.055 C
BRANCH  24  25
HETATM   25  C4  UNL     1      21.987   6.818  -7.311  1.00  0.00     0.145 C
BRANCH  25  26
HETATM   26  N1  UNL     1      21.132   6.846  -6.114  1.00  0.00    -0.322 N
ATOM     27  H1  UNL     1      20.648   7.695  -5.825  1.00  0.00     0.181 HD
BRANCH  26  28
HETATM   28  N2  UNL     1      21.029   5.803  -5.482  1.00  0.00    -0.254 N
HETATM   29  N3  UNL     1      20.537   4.930  -4.749  1.00  0.00    -0.331 N
ATOM     30  H32 UNL     1      19.651   5.402  -4.570  1.00  0.00     0.178 HD
ATOM     31  H31 UNL     1      20.452   4.061  -4.221  1.00  0.00     0.178 HD
ATOM     32  H2  UNL     1      21.931   5.375  -5.693  1.00  0.00     0.207 HD
ENDBRANCH  26  28
ENDBRANCH  25  26
ENDBRANCH  24  25
ENDBRANCH  22  24
ENDBRANCH  20  22
ENDBRANCH   1  20
TORSDOF 6
ENDMDL