MODEL 5
REMARK VINA RESULT: -6.817936013      2.662      6.938
REMARK  5 active torsions:
REMARK  status: ('A' for Active; 'I' for Inactive)
REMARK    1  A    between atoms: C4_4  and  C5_5
REMARK    2  A    between atoms: C5_5  and  N1_6
REMARK    3  A    between atoms: N1_6  and  C6_8
REMARK    4  A    between atoms: C10_16  and  N4_17
REMARK    5  A    between atoms: C19_26  and  C20_27
ROOT
HETATM    1  C1  UNL     1      20.197  18.772 -10.097  1.00  0.00     0.048 C
HETATM    2  C2  UNL     1      20.615  17.372 -10.419  1.00  0.00    -0.056 A
HETATM    3  C3  UNL     1      21.913  17.048 -10.781  1.00  0.00     0.035 A
HETATM    4  C4  UNL     1      22.275  15.750 -11.074  1.00  0.00     0.054 A
HETATM    5  N2  UNL     1      21.366  14.762 -11.016  1.00  0.00    -0.228 N
HETATM    6  N3  UNL     1      21.464  13.445 -11.249  1.00  0.00    -0.123 N
ATOM      7  H3  UNL     1      22.319  12.964 -11.529  1.00  0.00     0.206 HD
HETATM    8  C10 UNL     1      20.276  12.850 -11.061  1.00  0.00     0.697 A
HETATM    9  N5  UNL     1      19.431  13.844 -10.701  1.00  0.00    -0.173 N
ATOM     10  H5  UNL     1      18.442  13.720 -10.485  1.00  0.00     0.186 HD
HETATM   11  C21 UNL     1      20.083  15.018 -10.670  1.00  0.00     0.143 A
HETATM   12  C22 UNL     1      19.714  16.328 -10.373  1.00  0.00     0.057 A
ENDROOT
BRANCH   8  13
HETATM   13  N4  UNL     1      19.974  11.460 -11.210  1.00  0.00    -0.216 N
HETATM   14  C11 UNL     1      18.558  11.200 -11.377  1.00  0.00     0.141 C
HETATM   15  C12 UNL     1      18.117  10.461 -10.111  1.00  0.00     0.020 C
HETATM   16  C13 UNL     1      18.222   8.949 -10.295  1.00  0.00     0.002 C
HETATM   17  C14 UNL     1      19.374   8.369  -9.552  1.00  0.00     0.010 C
HETATM   18  C15 UNL     1      20.676   8.365 -10.237  1.00  0.00    -0.034 A
HETATM   19  C16 UNL     1      20.800   9.204 -11.452  1.00  0.00     0.030 C
HETATM   20  C18 UNL     1      21.434   6.999 -10.257  1.00  0.00     0.016 A
HETATM   21  C19 UNL     1      21.887   8.195  -9.391  1.00  0.00     0.009 A
HETATM   22  C17 UNL     1      21.165  10.650 -11.158  1.00  0.00     0.142 C
BRANCH  21  23
HETATM   23  C20 UNL     1      21.750   7.950  -7.905  1.00  0.00     0.120 C
HETATM   24 CL1  UNL     1      22.801   6.605  -7.412  1.00  0.00    -0.130 Cl
ENDBRANCH  21  23
ENDBRANCH   8  13
BRANCH   4  25
HETATM   25  C5  UNL     1      23.701  15.454 -11.457  1.00  0.00     0.174 C
BRANCH  25  26
HETATM   26  N1  UNL     1      23.749  15.281 -12.882  1.00  0.00    -0.410 N
ATOM     27  H1  UNL     1      23.094  15.744 -13.512  1.00  0.00     0.154 HD
BRANCH  26  28
HETATM   28  C6  UNL     1      24.785  14.410 -13.351  1.00  0.00     0.102 C
HETATM   29  C7  UNL     1      24.607  13.976 -14.789  1.00  0.00     0.053 C
HETATM   30  C8  UNL     1      23.546  12.910 -14.648  1.00  0.00     0.169 C
HETATM   31  O1  UNL     1      23.450  12.580 -13.322  1.00  0.00    -0.389 OA
HETATM   32  C9  UNL     1      24.558  13.065 -12.648  1.00  0.00     0.192 C
ENDBRANCH  26  28
ENDBRANCH  25  26
ENDBRANCH   4  25
TORSDOF 5
ENDMDL