MODEL 4
REMARK VINA RESULT: -7.711119537      2.499      6.761
REMARK  7 active torsions:
REMARK  status: ('A' for Active; 'I' for Inactive)
REMARK    1  A    between atoms: C2_2  and  O1_3
REMARK    2  A    between atoms: O1_3  and  C3_4
REMARK    3  A    between atoms: C3_4  and  C4_6
REMARK    4  A    between atoms: C7_10  and  O3_11
REMARK    5  A    between atoms: C7_10  and  C8_13
REMARK    6  A    between atoms: C9_14  and  N2_15
REMARK       I    between atoms: N2_15  and  C10_17
REMARK    7  A    between atoms: C10_17  and  C11_19
ROOT
HETATM    1  C8  UNL     1      17.736  11.230 -11.180  1.00  0.00     0.056 A
HETATM    2  C9  UNL     1      17.602  10.235 -10.257  1.00  0.00     0.092 A
HETATM    3  S1  UNL     1      15.981   9.630 -10.556  1.00  0.00    -0.075 SA
HETATM    4  C15 UNL     1      15.559  10.654 -11.838  1.00  0.00    -0.008 A
HETATM    5  C16 UNL     1      16.643  11.440 -12.015  1.00  0.00    -0.028 A
HETATM    6  C17 UNL     1      16.279  12.429 -13.120  1.00  0.00     0.041 C
HETATM    7  C18 UNL     1      14.770  12.329 -13.228  1.00  0.00     0.010 C
HETATM    8  C19 UNL     1      14.425  10.956 -12.812  1.00  0.00     0.047 C
ENDROOT
BRANCH   1   9
HETATM    9  C7  UNL     1      18.859  12.207 -11.009  1.00  0.00     0.151 C
HETATM   10  N1  UNL     1      19.712  12.821 -11.868  1.00  0.00    -0.361 N
HETATM   11  C6  UNL     1      20.658  13.826 -11.292  1.00  0.00     0.126 C
HETATM   12  C20 UNL     1      19.947  12.577 -13.252  1.00  0.00     0.126 C
HETATM   13  C5  UNL     1      22.051  13.238 -11.272  1.00  0.00     0.034 C
HETATM   14  C4  UNL     1      22.235  12.267 -12.428  1.00  0.00     0.088 C
HETATM   15  C21 UNL     1      21.429  12.714 -13.612  1.00  0.00     0.034 C
BRANCH  14  16
HETATM   16  C3  UNL     1      23.652  12.155 -12.849  1.00  0.00     0.263 C
HETATM   17  O2  UNL     1      24.559  12.829 -12.267  1.00  0.00    -0.265 OA
BRANCH  16  18
HETATM   18  O1  UNL     1      24.039  11.325 -13.880  1.00  0.00    -0.322 OA
BRANCH  18  19
HETATM   19  C2  UNL     1      24.528  10.010 -13.701  1.00  0.00     0.174 C
HETATM   20  C1  UNL     1      23.445   9.100 -13.208  1.00  0.00     0.034 C
ENDBRANCH  18  19
ENDBRANCH  16  18
ENDBRANCH  14  16
BRANCH   9  21
HETATM   21  O3  UNL     1      19.093  12.552  -9.742  1.00  0.00    -0.345 OA
ATOM     22  H3  UNL     1      18.872  11.853  -9.137  1.00  0.00     0.219 HD
ENDBRANCH   9  21
ENDBRANCH   1   9
BRANCH   2  23
HETATM   23  N2  UNL     1      18.502   9.523  -9.396  1.00  0.00    -0.314 N
HETATM   24  C10 UNL     1      19.713   8.958  -9.816  1.00  0.00     0.283 C
HETATM   25  O4  UNL     1      20.149   8.963 -10.992  1.00  0.00    -0.265 OA
ATOM     26  H2  UNL     1      18.243   9.421  -8.414  1.00  0.00     0.170 HD
BRANCH  24  27
HETATM   27  C11 UNL     1      20.586   8.285  -8.814  1.00  0.00     0.181 A
HETATM   28  O5  UNL     1      20.392   8.260  -7.538  1.00  0.00    -0.314 OA
HETATM   29  C12 UNL     1      21.335   7.590  -6.928  1.00  0.00     0.146 A
HETATM   30  C13 UNL     1      22.217   7.141  -7.880  1.00  0.00     0.070 A
HETATM   31  C14 UNL     1      21.726   7.597  -9.108  1.00  0.00     0.157 A
HETATM   32  F1  UNL     1      22.328   7.354 -10.286  1.00  0.00    -0.203 F
ENDBRANCH  24  27
ENDBRANCH   2  23
TORSDOF 7
ENDMDL