MODEL 1
REMARK VINA RESULT: -6.737787037      0.000      0.000
REMARK  7 active torsions:
REMARK  status: ('A' for Active; 'I' for Inactive)
REMARK    1  A    between atoms: C3_4  and  O1_5
REMARK    2  A    between atoms: C3_4  and  C4_7
REMARK    3  A    between atoms: C5_9  and  N2_10
REMARK       I    between atoms: N2_10  and  C6_12
REMARK    4  A    between atoms: C6_12  and  C7_14
REMARK    5  A    between atoms: C7_14  and  S2_15
REMARK    6  A    between atoms: S2_15  and  C8_16
REMARK    7  A    between atoms: C9_19  and  C10_20
ROOT
HETATM    1  N2  UNL     1      19.176  12.365 -12.355  1.00  0.00    -0.306 N
ATOM      2  H2  UNL     1      19.795  11.828 -12.961  1.00  0.00     0.171 HD
HETATM    3  C6  UNL     1      19.595  13.586 -11.772  1.00  0.00     0.233 C
HETATM    4  O2  UNL     1      19.015  14.644 -12.154  1.00  0.00    -0.272 OA
ENDROOT
BRANCH   1   5
HETATM    5  C5  UNL     1      17.953  11.949 -12.082  1.00  0.00     0.153 A
HETATM    6  S1  UNL     1      17.432  10.918 -10.843  1.00  0.00    -0.046 SA
HETATM    7  C4  UNL     1      15.692  10.902 -11.215  1.00  0.00     0.097 A
HETATM    8  C16 UNL     1      15.697  11.719 -12.288  1.00  0.00     0.127 A
HETATM    9  N4  UNL     1      16.831  12.233 -12.710  1.00  0.00    -0.326 N
HETATM   10 CL1  UNL     1      14.194  12.133 -13.185  1.00  0.00    -0.063 Cl
ATOM     11  H4  UNL     1      16.841  12.852 -13.521  1.00  0.00     0.169 HD
BRANCH   7  12
HETATM   12  C3  UNL     1      14.756  10.142 -10.433  1.00  0.00     0.158 C
HETATM   13  N1  UNL     1      14.615   8.865 -10.021  1.00  0.00    -0.369 N
HETATM   14  C1  UNL     1      13.379   8.599  -9.169  1.00  0.00     0.151 C
HETATM   15  C2  UNL     1      15.384   7.667 -10.208  1.00  0.00     0.151 C
BRANCH  12  16
HETATM   16  O1  UNL     1      13.757  10.932 -10.003  1.00  0.00    -0.345 OA
ATOM     17  H1  UNL     1      13.940  11.855 -10.140  1.00  0.00     0.219 HD
ENDBRANCH  12  16
ENDBRANCH   7  12
ENDBRANCH   1   5
BRANCH   3  18
HETATM   18  C7  UNL     1      20.673  13.608 -10.755  1.00  0.00     0.184 C
BRANCH  18  19
HETATM   19  S2  UNL     1      22.237  13.269 -11.576  1.00  0.00    -0.096 SA
BRANCH  19  20
HETATM   20  C8  UNL     1      22.346  11.505 -11.953  1.00  0.00     0.112 A
HETATM   21  N3  UNL     1      21.683  10.518 -11.373  1.00  0.00    -0.348 N
HETATM   22  C9  UNL     1      21.878   9.301 -11.762  1.00  0.00     0.021 A
ATOM     23  H3  UNL     1      21.022  10.716 -10.621  1.00  0.00     0.167 HD
HETATM   24  C15 UNL     1      22.777   9.090 -12.777  1.00  0.00     0.077 A
HETATM   25  S3  UNL     1      23.295  10.686 -13.110  1.00  0.00    -0.075 SA
BRANCH  22  26
HETATM   26  C10 UNL     1      21.156   8.120 -11.145  1.00  0.00     0.036 C
HETATM   27  C11 UNL     1      20.290   8.567 -10.009  1.00  0.00     0.011 C
HETATM   28  C12 UNL     1      20.934   8.121  -8.733  1.00  0.00     0.001 C
HETATM   29  C13 UNL     1      22.161   7.337  -9.085  1.00  0.00     0.001 C
HETATM   30  C14 UNL     1      22.163   7.151 -10.570  1.00  0.00     0.011 C
ENDBRANCH  22  26
ENDBRANCH  19  20
ENDBRANCH  18  19
ENDBRANCH   3  18
TORSDOF 7
ENDMDL