MODEL 3
REMARK VINA RESULT: -7.010233389      3.480      4.908
REMARK  5 active torsions:
REMARK  status: ('A' for Active; 'I' for Inactive)
REMARK    1  A    between atoms: C5_9  and  C6_10
REMARK    2  A    between atoms: C9_14  and  S2_15
REMARK    3  A    between atoms: S2_15  and  N2_18
REMARK    4  A    between atoms: C12_21  and  C13_22
REMARK    5  A    between atoms: C13_22  and  C14_23
ROOT
HETATM    1  S2  UNL     1      23.654  15.296 -12.093  1.00  0.00     0.271 S
HETATM    2  O2  UNL     1      24.890  15.637 -12.899  1.00  0.00    -0.199 OA
HETATM    3  O3  UNL     1      24.042  15.423 -10.620  1.00  0.00    -0.199 OA
ENDROOT
BRANCH   1   4
HETATM    4  C9  UNL     1      22.557  16.659 -12.375  1.00  0.00     0.131 A
HETATM    5  C6  UNL     1      21.226  16.725 -12.110  1.00  0.00     0.010 A
HETATM    6  C7  UNL     1      20.598  17.897 -12.413  1.00  0.00     0.021 A
HETATM    7  C8  UNL     1      21.365  18.888 -12.949  1.00  0.00     0.052 A
HETATM    8  S1  UNL     1      22.911  18.195 -13.026  1.00  0.00    -0.087 SA
BRANCH   5   9
HETATM    9  C5  UNL     1      20.471  15.591 -11.494  1.00  0.00     0.047 A
HETATM   10  C1  UNL     1      20.547  15.373 -10.132  1.00  0.00     0.256 A
HETATM   11  O1  UNL     1      21.229  16.178  -9.462  1.00  0.00    -0.267 OA
HETATM   12  N1  UNL     1      19.917  14.347  -9.546  1.00  0.00    -0.330 N
HETATM   13  C2  UNL     1      19.182  13.486 -10.285  1.00  0.00     0.133 A
ATOM     14  H1  UNL     1      19.992  14.213  -8.537  1.00  0.00     0.168 HD
HETATM   15  C3  UNL     1      19.091  13.678 -11.647  1.00  0.00     0.132 A
HETATM   16  F1  UNL     1      18.359  12.804 -12.363  1.00  0.00    -0.205 F
HETATM   17  C4  UNL     1      19.731  14.726 -12.256  1.00  0.00     0.061 A
ENDBRANCH   5   9
ENDBRANCH   1   4
BRANCH   1  18
HETATM   18  N2  UNL     1      23.039  13.807 -12.474  1.00  0.00    -0.286 N
HETATM   19  C10 UNL     1      22.686  13.468 -13.755  1.00  0.00     0.076 C
HETATM   20  C11 UNL     1      22.153  12.074 -13.944  1.00  0.00     0.050 C
HETATM   21  C12 UNL     1      21.688  11.384 -12.720  1.00  0.00    -0.002 C
HETATM   22  C17 UNL     1      22.351  11.754 -11.430  1.00  0.00     0.026 C
HETATM   23  C18 UNL     1      23.477  12.766 -11.595  1.00  0.00     0.141 C
BRANCH  21  24
HETATM   24  C13 UNL     1      21.999   9.890 -12.925  1.00  0.00     0.069 C
BRANCH  24  25
HETATM   25  C14 UNL     1      21.834   9.151 -11.636  1.00  0.00     0.046 A
HETATM   26  N3  UNL     1      22.597   8.357 -11.062  1.00  0.00    -0.367 N
HETATM   27  C15 UNL     1      22.292   7.756  -9.867  1.00  0.00     0.072 A
ATOM     28  H3  UNL     1      23.492   8.142 -11.499  1.00  0.00     0.165 HD
HETATM   29  C16 UNL     1      20.949   8.135  -9.318  1.00  0.00     0.125 A
HETATM   30  S3  UNL     1      20.376   9.278 -10.604  1.00  0.00    -0.112 SA
ENDBRANCH  24  25
ENDBRANCH  21  24
ENDBRANCH   1  18
TORSDOF 5
ENDMDL