MODEL 5
REMARK VINA RESULT: -6.107580897      2.686      5.163
REMARK  7 active torsions:
REMARK  status: ('A' for Active; 'I' for Inactive)
REMARK    1  A    between atoms: C3_3  and  C5_5
REMARK    2  A    between atoms: C5_5  and  O2_7
REMARK    3  A    between atoms: O2_7  and  C6_8
REMARK    4  A    between atoms: C17_19  and  O3_20
REMARK    5  A    between atoms: O3_20  and  C18_21
REMARK    6  A    between atoms: C20_24  and  O5_25
REMARK    7  A    between atoms: C20_24  and  C21_27
ROOT
HETATM    1  C21 UNL     1     -10.784  -7.396   6.650  1.00  0.00     0.057 C
HETATM    2  C22 UNL     1     -10.613  -6.683   7.891  1.00  0.00     0.098 C
HETATM    3  N1  UNL     1     -10.455  -6.114   8.907  1.00  0.00    -0.192 NA
HETATM    4  C23 UNL     1     -10.061  -8.529   6.571  1.00  0.00    -0.010 C
HETATM    5  C24 UNL     1      -9.177  -9.026   7.617  1.00  0.00     0.037 C
ENDROOT
BRANCH   1   6
HETATM    6  C20 UNL     1     -11.656  -6.942   5.572  1.00  0.00     0.148 C
HETATM    7  C6  UNL     1     -10.951  -6.383   4.356  1.00  0.00     0.175 C
HETATM    8  C7  UNL     1     -10.556  -7.389   3.335  1.00  0.00     0.050 C
HETATM    9  C8  UNL     1     -11.636  -7.743   2.351  1.00  0.00    -0.014 C
HETATM   10  C9  UNL     1     -11.545  -9.264   2.108  1.00  0.00     0.020 C
HETATM   11  C10 UNL     1     -12.995  -7.462   2.805  1.00  0.00    -0.069 C
HETATM   12  C13 UNL     1     -11.500  -7.113   1.018  1.00  0.00    -0.003 C
HETATM   13  C11 UNL     1     -13.746  -7.155   1.759  1.00  0.00    -0.022 C
HETATM   14  C15 UNL     1     -13.648  -7.464   4.151  1.00  0.00     0.044 C
HETATM   15  C12 UNL     1     -12.951  -7.206   0.515  1.00  0.00     0.032 C
HETATM   16  C16 UNL     1     -14.852  -8.383   4.162  1.00  0.00     0.017 C
HETATM   17  C17 UNL     1     -12.696  -7.981   5.213  1.00  0.00     0.182 C
HETATM   18  C14 UNL     1     -11.100  -5.700   0.943  1.00  0.00     0.011 C
BRANCH   7  19
HETATM   19  O2  UNL     1      -9.936  -5.509   4.744  1.00  0.00    -0.309 OA
BRANCH  19  20
HETATM   20  C5  UNL     1      -8.633  -5.605   4.335  1.00  0.00     0.289 C
HETATM   21  O1  UNL     1      -8.366  -4.944   3.269  1.00  0.00    -0.260 OA
BRANCH  20  22
HETATM   22  C3  UNL     1      -7.628  -6.373   5.018  1.00  0.00     0.009 C
HETATM   23  C2  UNL     1      -7.059  -6.001   6.130  1.00  0.00    -0.018 C
HETATM   24  C1  UNL     1      -7.398  -4.730   6.813  1.00  0.00     0.036 C
HETATM   25  C4  UNL     1      -7.209  -7.682   4.407  1.00  0.00     0.054 C
ENDBRANCH  20  22
ENDBRANCH  19  20
ENDBRANCH   7  19
BRANCH  17  26
HETATM   26  O3  UNL     1     -13.510  -8.163   6.376  1.00  0.00    -0.312 OA
BRANCH  26  27
HETATM   27  C18 UNL     1     -13.470  -9.272   7.170  1.00  0.00     0.255 C
HETATM   28  C19 UNL     1     -13.177 -10.581   6.529  1.00  0.00     0.126 C
HETATM   29  O4  UNL     1     -13.683  -9.131   8.402  1.00  0.00    -0.266 OA
ENDBRANCH  26  27
ENDBRANCH  17  26
BRANCH   6  30
HETATM   30  O5  UNL     1     -12.385  -5.837   6.093  1.00  0.00    -0.379 OA
ATOM     31  H5  UNL     1     -12.777  -6.171   6.891  1.00  0.00     0.211 HD
ENDBRANCH   6  30
ENDBRANCH   1   6
TORSDOF 7
ENDMDL