MODEL 3
REMARK VINA RESULT: -6.800954914      2.157      6.913
REMARK  5 active torsions:
REMARK  status: ('A' for Active; 'I' for Inactive)
REMARK    1  A    between atoms: C14_16  and  O3_17
REMARK    2  A    between atoms: C14_16  and  C20_24
REMARK    3  A    between atoms: O3_17  and  C15_18
REMARK    4  A    between atoms: C15_18  and  C16_20
REMARK    5  A    between atoms: C22_27  and  O6_28
ROOT
HETATM    1  C1  UNL     1     -14.647  -6.530   0.365  1.00  0.00     0.017 C
HETATM    2  C2  UNL     1     -13.455  -6.623   0.479  1.00  0.00    -0.082 C
HETATM    3  C3  UNL     1     -12.022  -6.735   0.616  1.00  0.00    -0.002 C
HETATM    4  C4  UNL     1     -11.367  -7.434   1.549  1.00  0.00    -0.051 C
HETATM    5  C5  UNL     1      -9.932  -7.330   1.400  1.00  0.00     0.053 C
HETATM    6  C6  UNL     1      -9.737  -6.239   0.361  1.00  0.00     0.017 C
HETATM    7  C7  UNL     1     -11.029  -6.180  -0.348  1.00  0.00     0.049 C
HETATM    8  C8  UNL     1      -9.170  -6.960   2.646  1.00  0.00     0.096 C
HETATM    9  C9  UNL     1      -8.225  -5.811   2.298  1.00  0.00     0.049 C
HETATM   10  C10 UNL     1      -8.246  -8.084   3.040  1.00  0.00     0.049 C
HETATM   11  O1  UNL     1      -9.889  -6.558   3.721  1.00  0.00    -0.229 OA
HETATM   12  O2  UNL     1     -11.130  -6.264   3.546  1.00  0.00    -0.225 OA
HETATM   13  C11 UNL     1     -11.949  -7.386   3.902  1.00  0.00     0.132 C
HETATM   14  C12 UNL     1     -13.299  -6.774   4.320  1.00  0.00     0.048 C
HETATM   15  C13 UNL     1     -13.523  -7.250   5.710  1.00  0.00     0.053 C
HETATM   16  C14 UNL     1     -12.189  -7.276   6.303  1.00  0.00     0.159 C
HETATM   17  C22 UNL     1     -11.385  -7.895   5.119  1.00  0.00     0.199 C
HETATM   18  C23 UNL     1     -12.135  -8.158   2.653  1.00  0.00     0.052 C
HETATM   19  C24 UNL     1     -11.787  -9.581   2.579  1.00  0.00     0.018 C
ENDROOT
BRANCH  17  20
HETATM   20  O6  UNL     1     -11.377  -9.230   5.386  1.00  0.00    -0.389 OA
ATOM     21  H6  UNL     1     -11.152  -9.556   6.249  1.00  0.00     0.210 HD
ENDBRANCH  17  20
BRANCH  16  22
HETATM   22  O3  UNL     1     -12.018  -8.109   7.425  1.00  0.00    -0.296 OA
BRANCH  22  23
HETATM   23  C15 UNL     1     -13.023  -8.484   8.279  1.00  0.00     0.289 C
HETATM   24  O4  UNL     1     -13.289  -9.715   8.308  1.00  0.00    -0.260 OA
BRANCH  23  25
HETATM   25  C16 UNL     1     -13.781  -7.593   9.116  1.00  0.00     0.009 C
HETATM   26  C17 UNL     1     -15.285  -7.528   8.963  1.00  0.00     0.054 C
HETATM   27  C18 UNL     1     -13.231  -6.824  10.029  1.00  0.00    -0.018 C
HETATM   28  C19 UNL     1     -11.784  -6.789  10.294  1.00  0.00     0.036 C
ENDBRANCH  23  25
ENDBRANCH  22  23
ENDBRANCH  16  22
BRANCH  16  29
HETATM   29  C20 UNL     1     -11.724  -5.932   6.658  1.00  0.00     0.160 C
HETATM   30  C21 UNL     1     -10.255  -5.607   6.824  1.00  0.00     0.094 C
HETATM   31  O5  UNL     1     -12.460  -4.960   6.851  1.00  0.00    -0.295 OA
ENDBRANCH  16  29
TORSDOF 5
ENDMDL