MODEL 2
REMARK VINA RESULT: -6.378572807      0.531      1.209
REMARK  6 active torsions:
REMARK  status: ('A' for Active; 'I' for Inactive)
REMARK    1  A    between atoms: O1_2  and  C2_3
REMARK    2  A    between atoms: C2_3  and  C5_6
REMARK    3  A    between atoms: N1_10  and  C9_11
REMARK       I    between atoms: N2_14  and  C12_15
REMARK    4  A    between atoms: C12_15  and  O3_17
REMARK    5  A    between atoms: O3_17  and  C13_18
REMARK    6  A    between atoms: C19_24  and  C20_25
ROOT
HETATM    1  C5  UNL     1     -10.916  -7.539   2.546  1.00  0.00     0.048 C
HETATM    2  C6  UNL     1     -10.939  -6.268   3.348  1.00  0.00     0.011 C
HETATM    3  C7  UNL     1      -9.698  -5.498   3.037  1.00  0.00     0.020 C
HETATM    4  C8  UNL     1      -8.966  -6.045   1.875  1.00  0.00     0.118 C
HETATM    5  N1  UNL     1      -9.748  -6.487   0.777  1.00  0.00    -0.397 N
HETATM    6  C19 UNL     1     -10.891  -7.292   1.116  1.00  0.00     0.143 C
ENDROOT
BRANCH   5   7
HETATM    7  C9  UNL     1      -8.994  -6.957  -0.339  1.00  0.00     0.083 C
HETATM    8  C10 UNL     1      -9.256  -6.286  -1.641  1.00  0.00     0.045 C
HETATM    9  C11 UNL     1      -8.583  -7.048  -2.746  1.00  0.00     0.130 C
HETATM   10  N2  UNL     1      -7.605  -8.007  -2.299  1.00  0.00    -0.328 N
HETATM   11  C12 UNL     1      -7.417  -9.195  -3.034  1.00  0.00     0.363 C
HETATM   12  C17 UNL     1      -6.787  -7.821  -1.113  1.00  0.00     0.130 C
HETATM   13  O2  UNL     1      -8.114  -9.383  -4.064  1.00  0.00    -0.238 OA
HETATM   14  C18 UNL     1      -7.526  -6.995  -0.071  1.00  0.00     0.045 C
BRANCH  11  15
HETATM   15  O3  UNL     1      -6.500 -10.175  -2.680  1.00  0.00    -0.294 OA
BRANCH  15  16
HETATM   16  C13 UNL     1      -5.314 -10.410  -3.382  1.00  0.00     0.061 C
HETATM   17  C14 UNL     1      -4.965  -9.152  -4.159  1.00  0.00     0.046 C
HETATM   18  C15 UNL     1      -5.417 -11.536  -4.380  1.00  0.00     0.046 C
HETATM   19  C16 UNL     1      -4.177 -10.690  -2.426  1.00  0.00     0.046 C
ENDBRANCH  15  16
ENDBRANCH  11  15
ENDBRANCH   5   7
BRANCH   6  20
HETATM   20  C20 UNL     1     -12.083  -6.671   0.484  1.00  0.00     0.073 A
HETATM   21  N3  UNL     1     -13.183  -7.247   0.010  1.00  0.00    -0.361 N
HETATM   22  C21 UNL     1     -14.122  -6.537  -0.516  1.00  0.00     0.096 A
ATOM     23  H3  UNL     1     -13.285  -8.260   0.062  1.00  0.00     0.165 HD
HETATM   24  C22 UNL     1     -13.936  -5.172  -0.565  1.00  0.00     0.068 A
HETATM   25  S1  UNL     1     -12.400  -5.021   0.163  1.00  0.00    -0.085 SA
ENDBRANCH   6  20
BRANCH   1  26
HETATM   26  C2  UNL     1     -11.899  -8.489   3.142  1.00  0.00     0.059 C
HETATM   27  C3  UNL     1     -11.979  -9.817   2.497  1.00  0.00     0.046 C
HETATM   28  C4  UNL     1     -13.283  -7.910   3.350  1.00  0.00     0.046 C
BRANCH  26  29
HETATM   29  O1  UNL     1     -11.429  -8.692   4.472  1.00  0.00    -0.385 OA
HETATM   30  C1  UNL     1     -12.373  -9.226   5.301  1.00  0.00     0.202 C
ENDBRANCH  26  29
ENDBRANCH   1  26
TORSDOF 6
ENDMDL