MODEL 4
REMARK VINA RESULT: -6.347062558      2.328      4.472
REMARK  6 active torsions:
REMARK  status: ('A' for Active; 'I' for Inactive)
REMARK    1  A    between atoms: C2_2  and  C3_3
REMARK    2  A    between atoms: C16_20  and  C18_22
REMARK    3  A    between atoms: C18_22  and  C19_23
REMARK    4  A    between atoms: C19_23  and  C20_24
REMARK    5  A    between atoms: C22_26  and  O5_27
REMARK    6  A    between atoms: O5_27  and  C23_28
ROOT
HETATM    1  C3  UNL     1      -9.996  -8.466   5.124  1.00  0.00     0.038 C
HETATM    2  C4  UNL     1     -11.390  -9.067   4.916  1.00  0.00     0.024 C
HETATM    3  C5  UNL     1     -12.122  -8.145   4.107  1.00  0.00     0.002 C
HETATM    4  C6  UNL     1     -12.132  -7.011   4.945  1.00  0.00     0.123 C
HETATM    5  C7  UNL     1     -13.263  -7.453   5.904  1.00  0.00     0.260 C
HETATM    6  O1  UNL     1     -13.282  -7.576   7.124  1.00  0.00    -0.265 OA
HETATM    7  O2  UNL     1     -14.262  -7.671   4.980  1.00  0.00    -0.312 OA
HETATM    8  C8  UNL     1     -13.568  -7.941   3.808  1.00  0.00     0.171 C
HETATM    9  C9  UNL     1     -13.465  -6.746   2.835  1.00  0.00     0.167 C
HETATM   10  O3  UNL     1     -14.345  -7.014   1.733  1.00  0.00    -0.313 OA
HETATM   11  C10 UNL     1     -14.010  -6.071   0.781  1.00  0.00     0.259 C
HETATM   12  O4  UNL     1     -14.739  -5.400   0.006  1.00  0.00    -0.265 OA
HETATM   13  C11 UNL     1     -12.555  -5.985   0.832  1.00  0.00     0.118 C
HETATM   14  C12 UNL     1     -12.124  -6.372   2.258  1.00  0.00     0.032 C
HETATM   15  C13 UNL     1     -11.038  -7.391   2.225  1.00  0.00     0.008 C
HETATM   16  C14 UNL     1     -11.734  -8.565   2.767  1.00  0.00    -0.002 C
HETATM   17  C15 UNL     1     -11.136  -9.868   2.493  1.00  0.00     0.011 C
HETATM   18  C16 UNL     1      -9.683  -7.144   2.828  1.00  0.00    -0.012 C
HETATM   19  C17 UNL     1      -9.534  -5.602   2.620  1.00  0.00     0.018 C
HETATM   20  C22 UNL     1      -9.348  -7.584   4.158  1.00  0.00     0.148 C
ENDROOT
BRANCH  18  21
HETATM   21  C18 UNL     1      -8.727  -7.615   1.764  1.00  0.00     0.012 C
BRANCH  21  22
HETATM   22  C19 UNL     1      -7.909  -6.827   0.912  1.00  0.00     0.000 C
BRANCH  22  23
HETATM   23  C20 UNL     1      -8.245  -7.217  -0.575  1.00  0.00    -0.005 C
HETATM   24  C21 UNL     1      -9.391  -6.365  -1.065  1.00  0.00     0.005 C
ENDBRANCH  22  23
ENDBRANCH  21  22
ENDBRANCH  18  21
BRANCH  20  25
HETATM   25  O5  UNL     1      -7.959  -7.813   4.387  1.00  0.00    -0.315 OA
BRANCH  25  26
HETATM   26  C23 UNL     1      -7.110  -7.019   5.143  1.00  0.00     0.255 C
HETATM   27  C24 UNL     1      -7.472  -5.673   5.656  1.00  0.00     0.126 C
HETATM   28  O6  UNL     1      -5.971  -7.473   5.405  1.00  0.00    -0.266 OA
ENDBRANCH  25  26
ENDBRANCH  20  25
BRANCH   1  29
HETATM   29  C2  UNL     1      -9.171  -9.632   5.568  1.00  0.00    -0.030 C
HETATM   30  C1  UNL     1      -9.617 -10.852   5.736  1.00  0.00     0.007 C
ENDBRANCH   1  29
TORSDOF 6
ENDMDL