MODEL 5
REMARK VINA RESULT: -7.541112329      3.122      5.710
REMARK  6 active torsions:
REMARK  status: ('A' for Active; 'I' for Inactive)
REMARK    1  A    between atoms: O1_2  and  N1_3
REMARK    2  A    between atoms: C16_20  and  O3_21
REMARK    3  A    between atoms: O3_21  and  C17_22
REMARK    4  A    between atoms: C17_22  and  C18_24
REMARK    5  A    between atoms: C18_24  and  C19_25
REMARK    6  A    between atoms: C19_25  and  C20_26
ROOT
HETATM    1  N1  UNL     1     -13.424  -6.812   4.427  1.00  0.00    -0.275 N
ATOM      2  H1  UNL     1     -13.821  -5.971   4.006  1.00  0.00     0.193 HD
HETATM    3  C2  UNL     1     -12.226  -7.146   4.161  1.00  0.00     0.015 C
HETATM    4  C3  UNL     1     -11.485  -8.332   4.680  1.00  0.00     0.065 C
HETATM    5  C4  UNL     1     -10.260  -7.604   5.205  1.00  0.00     0.030 C
HETATM    6  C5  UNL     1      -9.109  -8.475   5.498  1.00  0.00    -0.062 C
HETATM    7  C6  UNL     1      -8.365  -8.327   6.592  1.00  0.00    -0.015 C
HETATM    8  C7  UNL     1      -7.268  -9.301   6.682  1.00  0.00     0.107 C
HETATM    9  C8  UNL     1      -7.140  -9.786   5.303  1.00  0.00     0.142 C
HETATM   10  O2  UNL     1      -6.218 -10.226   4.703  1.00  0.00    -0.296 OA
HETATM   11  C9  UNL     1      -8.536  -9.598   4.753  1.00  0.00     0.041 C
HETATM   12  C10 UNL     1      -9.199 -10.915   4.889  1.00  0.00     0.028 C
HETATM   13  C11 UNL     1      -8.341  -9.117   3.328  1.00  0.00     0.022 C
HETATM   14  C12 UNL     1      -7.826  -7.733   3.388  1.00  0.00     0.007 C
HETATM   15  C13 UNL     1      -8.674  -6.565   3.534  1.00  0.00    -0.005 C
HETATM   16  C14 UNL     1      -8.782  -5.767   2.218  1.00  0.00     0.008 C
HETATM   17  C15 UNL     1      -9.047  -6.622   1.049  1.00  0.00     0.033 C
HETATM   18  C16 UNL     1     -10.572  -6.609   0.825  1.00  0.00     0.132 C
HETATM   19  C21 UNL     1     -11.306  -7.166   1.979  1.00  0.00     0.044 C
HETATM   20  C22 UNL     1     -11.204  -6.486   3.271  1.00  0.00     0.045 C
HETATM   21  C23 UNL     1     -10.008  -6.572   4.132  1.00  0.00    -0.024 C
HETATM   22  C24 UNL     1     -10.122  -5.229   4.932  1.00  0.00     0.017 C
ENDROOT
BRANCH  18  23
HETATM   23  O3  UNL     1     -10.871  -5.302   0.452  1.00  0.00    -0.316 OA
BRANCH  23  24
HETATM   24  C17 UNL     1     -11.083  -4.865  -0.844  1.00  0.00     0.259 C
HETATM   25  O4  UNL     1     -10.840  -5.704  -1.744  1.00  0.00    -0.265 OA
BRANCH  24  26
HETATM   26  C18 UNL     1     -11.556  -3.527  -1.213  1.00  0.00     0.121 C
BRANCH  26  27
HETATM   27  C19 UNL     1     -12.999  -3.254  -0.884  1.00  0.00     0.123 C
BRANCH  27  28
HETATM   28  C20 UNL     1     -13.821  -3.011  -2.088  1.00  0.00     0.172 C
HETATM   29  O5  UNL     1     -13.334  -2.679  -3.186  1.00  0.00    -0.648 OA
HETATM   30  O6  UNL     1     -15.201  -3.156  -1.995  1.00  0.00    -0.648 OA
ENDBRANCH  27  28
ENDBRANCH  26  27
ENDBRANCH  24  26
ENDBRANCH  23  24
ENDBRANCH  18  23
BRANCH   1  31
HETATM   31  O1  UNL     1     -14.175  -7.563   5.264  1.00  0.00    -0.285 OA
HETATM   32  C1  UNL     1     -14.565  -7.186   6.557  1.00  0.00     0.237 C
ENDBRANCH   1  31
TORSDOF 6
ENDMDL