MODEL 5
REMARK VINA RESULT: -7.953764253      2.443      4.683
REMARK  5 active torsions:
REMARK  status: ('A' for Active; 'I' for Inactive)
REMARK    1  A    between atoms: O1_2  and  C2_3
REMARK    2  A    between atoms: C7_8  and  O2_9
REMARK    3  A    between atoms: O2_9  and  C8_10
REMARK    4  A    between atoms: C8_10  and  C9_11
REMARK    5  A    between atoms: C9_11  and  O3_13
ROOT
HETATM    1  C2  UNL     1     -11.567  -5.829   0.610  1.00  0.00     0.102 A
HETATM    2  C3  UNL     1     -12.863  -5.963   0.960  1.00  0.00     0.040 A
HETATM    3  C4  UNL     1     -13.218  -6.973   1.786  1.00  0.00     0.010 A
HETATM    4  C5  UNL     1     -12.350  -7.896   2.314  1.00  0.00    -0.049 A
HETATM    5  C6  UNL     1     -11.005  -7.743   1.942  1.00  0.00    -0.013 A
HETATM    6  C7  UNL     1     -10.598  -6.735   1.104  1.00  0.00     0.109 A
HETATM    7  C11 UNL     1     -10.021  -8.662   2.523  1.00  0.00     0.083 C
HETATM    8  C12 UNL     1      -9.314  -8.141   3.744  1.00  0.00     0.100 C
HETATM    9  C13 UNL     1      -8.178  -7.220   3.484  1.00  0.00     0.041 C
HETATM   10  C14 UNL     1      -7.347  -7.361   4.766  1.00  0.00     0.003 C
HETATM   11  C15 UNL     1      -7.742  -8.654   5.397  1.00  0.00     0.003 C
HETATM   12  C16 UNL     1      -8.553  -9.358   4.307  1.00  0.00     0.041 C
HETATM   13  O4  UNL     1     -10.113  -7.704   4.754  1.00  0.00    -0.229 OA
HETATM   14  O5  UNL     1     -11.175  -7.020   4.407  1.00  0.00    -0.229 OA
HETATM   15  C17 UNL     1     -12.221  -7.535   5.219  1.00  0.00     0.097 C
HETATM   16  C18 UNL     1     -11.545  -7.804   6.556  1.00  0.00     0.048 C
HETATM   17  C19 UNL     1     -12.570  -8.079   7.637  1.00  0.00     0.081 C
HETATM   18  C20 UNL     1     -13.269  -6.769   7.803  1.00  0.00     0.127 C
HETATM   19  O6  UNL     1     -13.350  -6.193   8.866  1.00  0.00    -0.298 OA
HETATM   20  C21 UNL     1     -13.874  -6.185   6.609  1.00  0.00     0.081 C
HETATM   21  C22 UNL     1     -13.374  -6.612   5.294  1.00  0.00     0.048 C
HETATM   22  C23 UNL     1     -12.542  -8.881   4.626  1.00  0.00     0.046 C
HETATM   23  C24 UNL     1     -12.856  -8.944   3.195  1.00  0.00     0.042 C
ENDROOT
BRANCH   6  24
HETATM   24  O2  UNL     1      -9.318  -6.471   0.664  1.00  0.00    -0.345 OA
BRANCH  24  25
HETATM   25  C8  UNL     1      -8.538  -7.063  -0.281  1.00  0.00     0.207 C
BRANCH  25  26
HETATM   26  C9  UNL     1      -8.421  -6.606  -1.667  1.00  0.00     0.138 C
HETATM   27  C10 UNL     1      -7.834  -7.778  -2.480  1.00  0.00     0.041 C
BRANCH  26  28
HETATM   28  O3  UNL     1      -9.601  -6.297  -2.330  1.00  0.00    -0.394 OA
ATOM     29  H3  UNL     1      -9.766  -6.747  -3.149  1.00  0.00     0.210 HD
ENDBRANCH  26  28
ENDBRANCH  25  26
ENDBRANCH  24  25
ENDBRANCH   6  24
BRANCH   1  30
HETATM   30  O1  UNL     1     -11.161  -4.787  -0.249  1.00  0.00    -0.353 OA
HETATM   31  C1  UNL     1     -12.065  -3.999  -0.954  1.00  0.00     0.210 C
ENDBRANCH   1  30
TORSDOF 5
ENDMDL