MODEL 1
REMARK VINA RESULT: -8.314837145      0.000      0.000
REMARK  5 active torsions:
REMARK  status: ('A' for Active; 'I' for Inactive)
REMARK    1  A    between atoms: C5_5  and  C6_6
REMARK    2  A    between atoms: C6_6  and  C7_7
REMARK    3  A    between atoms: C7_7  and  C8_8
REMARK    4  A    between atoms: C8_8  and  N1_9
REMARK    5  A    between atoms: C23_27  and  O4_28
ROOT
HETATM    1  N1  UNL     1     -11.324  -7.451   1.888  1.00  0.00    -0.354 N
HETATM    2  C9  UNL     1     -11.759  -6.736   3.023  1.00  0.00     0.068 C
HETATM    3  C10 UNL     1     -10.693  -6.672   4.075  1.00  0.00     0.045 C
HETATM    4  C11 UNL     1     -10.466  -5.259   4.573  1.00  0.00     0.007 C
HETATM    5  C12 UNL     1      -9.700  -5.321   5.852  1.00  0.00     0.027 C
HETATM    6  C13 UNL     1     -10.496  -5.753   7.048  1.00  0.00     0.167 C
HETATM    7  O1  UNL     1     -11.423  -4.837   7.478  1.00  0.00    -0.389 OA
HETATM    8  C14 UNL     1     -12.738  -5.182   7.342  1.00  0.00     0.193 C
HETATM    9  C15 UNL     1     -13.091  -6.586   7.730  1.00  0.00     0.193 C
HETATM   10  O2  UNL     1     -13.436  -7.287   6.582  1.00  0.00    -0.387 OA
HETATM   11  C16 UNL     1     -13.932  -8.547   6.798  1.00  0.00     0.193 C
HETATM   12  C17 UNL     1     -13.941  -9.294   5.477  1.00  0.00     0.193 C
HETATM   13  O3  UNL     1     -12.658  -9.634   5.052  1.00  0.00    -0.389 OA
HETATM   14  C18 UNL     1     -12.724  -9.942   3.715  1.00  0.00     0.172 C
HETATM   15  C19 UNL     1     -11.455  -9.652   2.944  1.00  0.00     0.071 C
HETATM   16  C20 UNL     1     -11.714  -8.794   1.733  1.00  0.00     0.070 C
ENDROOT
BRANCH   1  17
HETATM   17  C8  UNL     1     -10.247  -6.948   1.134  1.00  0.00     0.068 C
BRANCH  17  18
HETATM   18  C7  UNL     1     -10.556  -6.395  -0.209  1.00  0.00     0.049 C
BRANCH  18  19
HETATM   19  C6  UNL     1     -10.832  -4.925  -0.252  1.00  0.00     0.044 C
BRANCH  19  20
HETATM   20  C5  UNL     1     -12.191  -4.533  -0.605  1.00  0.00    -0.045 A
HETATM   21  C4  UNL     1     -12.419  -3.779  -1.752  1.00  0.00     0.009 A
HETATM   22  C3  UNL     1     -11.610  -3.265  -2.749  1.00  0.00     0.047 A
HETATM   23  C24 UNL     1     -13.716  -3.389  -2.080  1.00  0.00     0.119 A
HETATM   24  C2  UNL     1     -12.437  -2.591  -3.633  1.00  0.00     0.051 A
HETATM   25  C1  UNL     1     -11.944  -1.888  -4.859  1.00  0.00     0.077 C
HETATM   26  O5  UNL     1     -13.657  -2.695  -3.196  1.00  0.00    -0.312 OA
HETATM   27  C23 UNL     1     -14.775  -3.748  -1.275  1.00  0.00     0.100 A
HETATM   28  C22 UNL     1     -14.581  -4.489  -0.144  1.00  0.00     0.040 A
HETATM   29  C21 UNL     1     -13.274  -4.862   0.157  1.00  0.00     0.011 A
BRANCH  27  30
HETATM   30  O4  UNL     1     -16.064  -3.356  -1.609  1.00  0.00    -0.358 OA
ATOM     31  H4  UNL     1     -16.489  -3.761  -2.356  1.00  0.00     0.217 HD
ENDBRANCH  27  30
ENDBRANCH  19  20
ENDBRANCH  18  19
ENDBRANCH  17  18
ENDBRANCH   1  17
TORSDOF 5
ENDMDL