MODEL 3
REMARK VINA RESULT: -7.680383319      3.379      4.596
REMARK  6 active torsions:
REMARK  status: ('A' for Active; 'I' for Inactive)
REMARK    1  A    between atoms: C2_2  and  C4_4
REMARK    2  A    between atoms: C7_7  and  N1_8
REMARK       I    between atoms: N1_8  and  C8_10
REMARK    3  A    between atoms: C8_10  and  C9_12
REMARK    4  A    between atoms: C10_16  and  C11_17
REMARK       I    between atoms: N3_21  and  C15_22
REMARK    5  A    between atoms: C15_22  and  O4_24
REMARK    6  A    between atoms: O4_24  and  C16_25
ROOT
HETATM    1  C9  UNL     1     -12.856  -7.328   1.895  1.00  0.00     0.196 A
HETATM    2  N2  UNL     1     -12.043  -8.357   2.221  1.00  0.00    -0.238 N
ATOM      3  H2  UNL     1     -11.427  -8.850   1.575  1.00  0.00     0.196 HD
HETATM    4  O2  UNL     1     -12.172  -8.621   3.495  1.00  0.00    -0.222 OA
HETATM    5  C10 UNL     1     -13.042  -7.808   4.043  1.00  0.00     0.154 A
HETATM    6  N4  UNL     1     -13.469  -7.003   3.047  1.00  0.00    -0.318 N
ATOM      7  H4  UNL     1     -14.156  -6.256   3.153  1.00  0.00     0.169 HD
ENDROOT
BRANCH   1   8
HETATM    8  C8  UNL     1     -13.008  -6.734   0.583  1.00  0.00     0.287 C
HETATM    9  N1  UNL     1     -13.076  -5.333   0.415  1.00  0.00    -0.350 N
ATOM     10  H1  UNL     1     -13.015  -4.743   1.245  1.00  0.00     0.163 HD
HETATM   11  O1  UNL     1     -13.080  -7.475  -0.418  1.00  0.00    -0.264 OA
BRANCH   9  12
HETATM   12  C7  UNL     1     -13.225  -4.696  -0.860  1.00  0.00     0.084 C
HETATM   13  C6  UNL     1     -11.873  -4.359  -1.410  1.00  0.00     0.025 C
HETATM   14  C5  UNL     1     -11.904  -3.067  -2.195  1.00  0.00     0.007 C
HETATM   15  C4  UNL     1     -13.187  -2.982  -2.968  1.00  0.00    -0.011 C
HETATM   16  C22 UNL     1     -14.386  -2.881  -2.055  1.00  0.00     0.007 C
HETATM   17  C21 UNL     1     -14.070  -3.451  -0.687  1.00  0.00     0.025 C
BRANCH  15  18
HETATM   18  C2  UNL     1     -13.186  -1.791  -3.881  1.00  0.00    -0.019 C
HETATM   19  C1  UNL     1     -12.110  -1.925  -4.926  1.00  0.00     0.010 C
HETATM   20  C3  UNL     1     -14.557  -1.630  -4.523  1.00  0.00     0.010 C
ENDBRANCH  15  18
ENDBRANCH   9  12
ENDBRANCH   1   8
BRANCH   5  21
HETATM   21  C11 UNL     1     -13.473  -7.781   5.482  1.00  0.00     0.081 C
HETATM   22  C12 UNL     1     -12.772  -8.815   6.295  1.00  0.00     0.016 C
HETATM   23  C13 UNL     1     -13.492  -8.964   7.617  1.00  0.00     0.021 C
HETATM   24  C14 UNL     1     -14.166  -7.662   8.032  1.00  0.00     0.128 C
HETATM   25  N3  UNL     1     -13.417  -6.553   7.516  1.00  0.00    -0.327 N
HETATM   26  C15 UNL     1     -12.882  -5.579   8.372  1.00  0.00     0.363 C
HETATM   27  C20 UNL     1     -13.210  -6.428   6.100  1.00  0.00     0.141 C
HETATM   28  O3  UNL     1     -12.217  -4.584   7.987  1.00  0.00    -0.238 OA
BRANCH  26  29
HETATM   29  O4  UNL     1     -13.082  -5.702   9.738  1.00  0.00    -0.294 OA
BRANCH  29  30
HETATM   30  C16 UNL     1     -12.084  -6.210  10.574  1.00  0.00     0.061 C
HETATM   31  C17 UNL     1     -10.900  -6.741   9.814  1.00  0.00     0.046 C
HETATM   32  C18 UNL     1     -11.569  -5.033  11.414  1.00  0.00     0.046 C
HETATM   33  C19 UNL     1     -12.657  -7.283  11.487  1.00  0.00     0.046 C
ENDBRANCH  29  30
ENDBRANCH  26  29
ENDBRANCH   5  21
TORSDOF 6
ENDMDL