MODEL 5
REMARK VINA RESULT: -6.657124591      2.403      4.991
REMARK  3 active torsions:
REMARK  status: ('A' for Active; 'I' for Inactive)
REMARK    1  A    between atoms: C5_7  and  C6_8
REMARK    2  A    between atoms: C6_8  and  N2_9
REMARK    3  A    between atoms: C13_17  and  C14_18
ROOT
HETATM    1  C1  UNL     1     -14.128  -6.457   0.359  1.00  0.00     0.232 C
HETATM    2  N1  UNL     1     -13.881  -6.832   1.431  1.00  0.00    -0.404 NA
HETATM    3  C2  UNL     1     -13.636  -7.328   2.706  1.00  0.00     0.227 A
HETATM    4  O1  UNL     1     -14.589  -7.947   3.393  1.00  0.00    -0.286 OA
HETATM    5  C3  UNL     1     -14.163  -8.336   4.532  1.00  0.00     0.061 A
HETATM    6  C4  UNL     1     -14.989  -9.044   5.550  1.00  0.00     0.077 C
HETATM    7  C5  UNL     1     -12.791  -7.963   4.641  1.00  0.00     0.001 A
HETATM    8  C13 UNL     1     -12.510  -7.312   3.470  1.00  0.00     0.025 A
ENDROOT
BRANCH   8   9
HETATM    9  C14 UNL     1     -11.200  -6.645   3.181  1.00  0.00     0.060 C
HETATM   10  C15 UNL     1     -10.673  -7.340   1.939  1.00  0.00     0.176 C
HETATM   11  C16 UNL     1     -10.733  -8.812   2.385  1.00  0.00     0.073 C
HETATM   12  C17 UNL     1      -9.241  -7.115   1.594  1.00  0.00     0.136 C
HETATM   13  N3  UNL     1     -10.785  -9.924   2.751  1.00  0.00    -0.196 NA
HETATM   14  N4  UNL     1      -8.822  -6.706   0.462  1.00  0.00    -0.382 N
HETATM   15  O3  UNL     1      -8.378  -7.400   2.626  1.00  0.00    -0.301 OA
ATOM     16  H42 UNL     1      -9.463  -6.495  -0.304  1.00  0.00     0.158 HD
ATOM     17  H41 UNL     1      -7.842  -6.553   0.226  1.00  0.00     0.158 HD
HETATM   18  C18 UNL     1      -8.764  -6.952   3.846  1.00  0.00     0.056 C
HETATM   19  C19 UNL     1      -7.764  -6.932   4.717  1.00  0.00     0.006 C
HETATM   20  C24 UNL     1     -10.176  -6.525   4.185  1.00  0.00     0.053 C
HETATM   21  C20 UNL     1      -7.819  -6.485   6.171  1.00  0.00     0.029 C
HETATM   22  C21 UNL     1      -7.940  -4.946   6.136  1.00  0.00     0.004 C
HETATM   23  C22 UNL     1      -8.578  -4.625   4.782  1.00  0.00     0.001 C
HETATM   24  C23 UNL     1      -9.995  -5.088   4.669  1.00  0.00     0.012 C
ENDBRANCH   8   9
BRANCH   7  25
HETATM   25  C6  UNL     1     -12.126  -8.497   5.847  1.00  0.00     0.159 C
BRANCH  25  26
HETATM   26  N2  UNL     1     -12.260  -7.511   6.957  1.00  0.00    -0.406 N
HETATM   27  C7  UNL     1     -12.565  -8.090   8.208  1.00  0.00     0.117 C
HETATM   28  C8  UNL     1     -13.544  -7.397   9.092  1.00  0.00     0.021 C
HETATM   29  C9  UNL     1     -13.110  -6.143   9.749  1.00  0.00     0.028 C
HETATM   30  C10 UNL     1     -11.715  -5.703   9.495  1.00  0.00     0.167 C
HETATM   31  O2  UNL     1     -11.389  -5.481   8.205  1.00  0.00    -0.390 OA
HETATM   32  C11 UNL     1     -12.319  -5.092   7.313  1.00  0.00     0.187 C
HETATM   33  C12 UNL     1     -12.941  -6.324   6.633  1.00  0.00     0.143 C
ENDBRANCH  25  26
ENDBRANCH   7  25
TORSDOF 3
ENDMDL