MODEL 4
REMARK VINA RESULT: -9.047790262      2.241      3.618
REMARK  7 active torsions:
REMARK  status: ('A' for Active; 'I' for Inactive)
REMARK    1  A    between atoms: C11_12  and  C12_13
REMARK    2  A    between atoms: C12_13  and  C13_14
REMARK    3  A    between atoms: C13_14  and  C14_15
REMARK    4  A    between atoms: C14_15  and  C15_16
REMARK    5  A    between atoms: C15_16  and  O2_17
REMARK    6  A    between atoms: C15_16  and  C16_19
REMARK    7  A    between atoms: C17_20  and  C18_21
ROOT
HETATM    1  C1  UNL     1     -12.398  -9.018   2.959  1.00  0.00     0.055 C
HETATM    2  C2  UNL     1     -12.276  -7.540   2.779  1.00  0.00     0.125 C
HETATM    3  C3  UNL     1     -13.050  -6.885   3.929  1.00  0.00     0.055 C
HETATM    4  O1  UNL     1     -12.841  -7.163   1.540  1.00  0.00    -0.332 OA
HETATM    5  C4  UNL     1     -12.586  -6.148   0.643  1.00  0.00     0.083 A
HETATM    6  C5  UNL     1     -13.677  -5.615   0.005  1.00  0.00     0.077 A
HETATM    7  C6  UNL     1     -13.599  -4.591  -0.925  1.00  0.00     0.107 A
HETATM    8  C7  UNL     1     -12.351  -4.071  -1.233  1.00  0.00     0.106 A
HETATM    9  C8  UNL     1     -11.250  -4.601  -0.597  1.00  0.00     0.054 A
HETATM   10  C9  UNL     1     -11.350  -5.621   0.326  1.00  0.00     0.001 A
HETATM   11  C10 UNL     1     -10.074  -6.037   0.882  1.00  0.00     0.025 C
HETATM   12  C11 UNL     1      -9.823  -6.726   2.033  1.00  0.00    -0.008 C
HETATM   13  C24 UNL     1     -10.862  -7.116   2.947  1.00  0.00     0.189 C
HETATM   14  O4  UNL     1     -10.522  -7.100   4.157  1.00  0.00    -0.289 OA
HETATM   15  O5  UNL     1     -12.555  -3.066  -2.185  1.00  0.00    -0.323 OA
HETATM   16  C25 UNL     1     -13.939  -2.928  -2.455  1.00  0.00     0.352 A
HETATM   17  O6  UNL     1     -14.567  -3.928  -1.665  1.00  0.00    -0.323 OA
ENDROOT
BRANCH  12  18
HETATM   18  C12 UNL     1      -8.399  -6.956   2.244  1.00  0.00     0.042 C
BRANCH  18  19
HETATM   19  C13 UNL     1      -7.874  -8.330   2.155  1.00  0.00     0.008 C
BRANCH  19  20
HETATM   20  C14 UNL     1      -6.536  -8.670   2.683  1.00  0.00     0.045 C
BRANCH  20  21
HETATM   21  C15 UNL     1      -5.586  -9.284   1.673  1.00  0.00     0.196 C
BRANCH  21  22
HETATM   22  O2  UNL     1      -5.743 -10.671   1.746  1.00  0.00    -0.383 OA
ATOM     23  H2  UNL     1      -5.838 -10.991   0.857  1.00  0.00     0.211 HD
ENDBRANCH  21  22
BRANCH  21  24
HETATM   24  C16 UNL     1      -6.070  -8.794   0.352  1.00  0.00    -0.074 C
HETATM   25  C17 UNL     1      -6.471  -8.382  -0.708  1.00  0.00    -0.091 C
BRANCH  25  26
HETATM   26  C18 UNL     1      -6.973  -7.863  -1.984  1.00  0.00     0.134 C
HETATM   27  C19 UNL     1      -8.181  -7.027  -1.694  1.00  0.00     0.025 C
HETATM   28  C20 UNL     1      -9.038  -6.947  -2.932  1.00  0.00     0.002 C
HETATM   29  C21 UNL     1      -8.243  -7.161  -4.188  1.00  0.00     0.007 C
HETATM   30  C22 UNL     1      -7.860  -8.622  -4.246  1.00  0.00     0.079 C
HETATM   31  C23 UNL     1      -7.254  -8.970  -2.937  1.00  0.00     0.142 C
HETATM   32  O3  UNL     1      -7.018 -10.137  -2.705  1.00  0.00    -0.297 OA
ENDBRANCH  25  26
ENDBRANCH  21  24
ENDBRANCH  20  21
ENDBRANCH  19  20
ENDBRANCH  18  19
ENDBRANCH  12  18
TORSDOF 7
ENDMDL