MODEL 1
REMARK VINA RESULT: -3.465314689      0.000      0.000
REMARK  4 active torsions:
REMARK  status: ('A' for Active; 'I' for Inactive)
REMARK    1  A    between atoms: N1_1  and  C1_5
REMARK    2  A    between atoms: C2_9  and  C3_10
REMARK    3  A    between atoms: C3_10  and  N3_11
REMARK    4  A    between atoms: N3_11  and  C4_14
ROOT
HETATM    1  C1  UNL     1     -64.929  29.740  17.647  1.00  0.00     0.412 A
HETATM    2  N2  UNL     1     -64.057  28.672  17.253  1.00  0.00    -0.035 N
ATOM      3  H21 UNL     1     -63.258  28.584  16.625  1.00  0.00     0.280 HD
ATOM      4  H22 UNL     1     -64.154  27.830  16.685  1.00  0.00     0.280 HD
HETATM    5  C2  UNL     1     -64.247  29.014  18.746  1.00  0.00     0.271 A
ENDROOT
BRANCH   5   6
HETATM    6  C3  UNL     1     -64.907  27.860  19.419  1.00  0.00     0.269 C
BRANCH   6   7
HETATM    7  N3  UNL     1     -66.196  28.179  19.982  1.00  0.00    -0.069 N
ATOM      8  H32 UNL     1     -66.170  29.007  20.578  1.00  0.00     0.277 HD
ATOM      9  H31 UNL     1     -66.852  28.529  19.285  1.00  0.00     0.277 HD
BRANCH   7  10
HETATM   10  C4  UNL     1     -66.689  27.016  20.671  1.00  0.00     0.186 A
HETATM   11  C5  UNL     1     -66.445  26.789  22.102  1.00  0.00     0.035 A
HETATM   12  C6  UNL     1     -65.724  25.934  21.079  1.00  0.00     0.035 A
ENDBRANCH   7  10
ENDBRANCH   6   7
ENDBRANCH   5   6
BRANCH   1  13
HETATM   13  N1  UNL     1     -64.451  31.051  17.235  1.00  0.00    -0.048 N
ATOM     14  H13 UNL     1     -63.552  31.262  17.667  1.00  0.00     0.276 HD
ATOM     15  H12 UNL     1     -64.170  31.044  16.255  1.00  0.00     0.276 HD
ATOM     16  H11 UNL     1     -65.123  31.797  17.414  1.00  0.00     0.276 HD
ENDBRANCH   1  13
TORSDOF 4
ENDMDL