MODEL 5
REMARK VINA RESULT: -3.987048474      1.724      3.737
REMARK  3 active torsions:
REMARK  status: ('A' for Active; 'I' for Inactive)
REMARK    1  A    between atoms: N1_2  and  N2_3
REMARK    2  A    between atoms: N2_3  and  C2_4
REMARK    3  A    between atoms: N3_7  and  O1_8
ROOT
HETATM    1  C2  UNL     1     -63.550  27.982  17.647  1.00  0.00     0.246 A
HETATM    2  C3  UNL     1     -63.449  26.840  16.765  1.00  0.00     0.038 A
HETATM    3  C4  UNL     1     -62.376  26.406  17.373  1.00  0.00     0.119 A
HETATM    4  N3  UNL     1     -62.387  27.468  18.268  1.00  0.00    -0.245 N
ENDROOT
BRANCH   1   5
HETATM    5  N2  UNL     1     -64.767  27.934  18.442  1.00  0.00    -0.117 NA
BRANCH   5   6
HETATM    6  N1  UNL     1     -65.522  29.066  18.282  1.00  0.00    -0.151 NA
HETATM    7  C1  UNL     1     -64.878  30.117  17.544  1.00  0.00     0.154 C
ENDBRANCH   5   6
ENDBRANCH   1   5
BRANCH   4   8
HETATM    8  O1  UNL     1     -61.604  27.847  19.306  1.00  0.00    -0.282 OA
HETATM    9  C5  UNL     1     -60.305  27.361  19.178  1.00  0.00     0.238 C
ENDBRANCH   4   8
TORSDOF 3
ENDMDL