MODEL 3
REMARK VINA RESULT: -3.876035825      0.613      1.149
REMARK  5 active torsions:
REMARK  status: ('A' for Active; 'I' for Inactive)
REMARK    1  A    between atoms: N1_1  and  C1_5
REMARK    2  A    between atoms: C1_5  and  C2_6
REMARK    3  A    between atoms: C2_6  and  C3_7
REMARK    4  A    between atoms: C3_7  and  N2_8
REMARK    5  A    between atoms: N2_8  and  C4_10
ROOT
HETATM    1  N2  UNL     1     -63.955  28.061  18.994  1.00  0.00    -0.225 N
ATOM      2  H2  UNL     1     -64.135  28.973  18.574  1.00  0.00     0.177 HD
ENDROOT
BRANCH   1   3
HETATM    3  C3  UNL     1     -62.670  27.495  18.771  1.00  0.00     0.140 C
BRANCH   3   4
HETATM    4  C2  UNL     1     -62.469  26.963  17.383  1.00  0.00     0.047 C
BRANCH   4   5
HETATM    5  C1  UNL     1     -63.412  27.623  16.398  1.00  0.00     0.231 C
BRANCH   5   6
HETATM    6  N1  UNL     1     -62.672  28.488  15.501  1.00  0.00    -0.079 N
ATOM      7  H13 UNL     1     -61.672  28.477  15.700  1.00  0.00     0.274 HD
ATOM      8  H12 UNL     1     -62.641  28.115  14.552  1.00  0.00     0.274 HD
ATOM      9  H11 UNL     1     -63.057  29.433  15.527  1.00  0.00     0.274 HD
ENDBRANCH   5   6
ENDBRANCH   4   5
ENDBRANCH   3   4
ENDBRANCH   1   3
BRANCH   1  10
HETATM   10  C4  UNL     1     -64.912  27.540  19.670  1.00  0.00     0.693 A
HETATM   11  N3  UNL     1     -66.103  28.149  19.837  1.00  0.00    -0.185 N
HETATM   12  C5  UNL     1     -66.886  27.344  20.592  1.00  0.00     0.215 A
ATOM     13  H3  UNL     1     -66.368  29.058  19.460  1.00  0.00     0.185 HD
HETATM   14  N4  UNL     1     -66.173  26.240  20.888  1.00  0.00    -0.281 N
HETATM   15  N5  UNL     1     -64.987  26.381  20.322  1.00  0.00    -0.131 N
ATOM     16  H4  UNL     1     -66.489  25.445  21.445  1.00  0.00     0.188 HD
ATOM     17  H5  UNL     1     -64.234  25.696  20.377  1.00  0.00     0.205 HD
ENDBRANCH   1  10
TORSDOF 5
ENDMDL