MODEL 1
REMARK VINA RESULT: -4.033001138      0.000      0.000
REMARK  4 active torsions:
REMARK  status: ('A' for Active; 'I' for Inactive)
REMARK    1  A    between atoms: N1_1  and  N2_4
REMARK    2  A    between atoms: N2_4  and  C1_5
REMARK    3  A    between atoms: C1_5  and  C2_6
REMARK    4  A    between atoms: C2_6  and  C3_7
ROOT
HETATM    1  C3  UNL     1     -63.785  27.319  17.516  1.00  0.00     0.014 C
HETATM    2  C4  UNL     1     -62.570  26.405  17.405  1.00  0.00     0.034 C
HETATM    3  C5  UNL     1     -61.591  27.165  18.286  1.00  0.00     0.232 C
HETATM    4  N3  UNL     1     -62.377  27.838  19.284  1.00  0.00    -0.075 N
ATOM      5  H31 UNL     1     -62.180  28.838  19.330  1.00  0.00     0.277 HD
ATOM      6  H32 UNL     1     -62.095  27.596  20.234  1.00  0.00     0.277 HD
HETATM    7  C6  UNL     1     -63.760  27.561  19.033  1.00  0.00     0.237 C
ENDROOT
BRANCH   1   8
HETATM    8  C2  UNL     1     -63.522  28.660  16.875  1.00  0.00     0.024 C
BRANCH   8   9
HETATM    9  C1  UNL     1     -64.524  29.703  17.305  1.00  0.00     0.135 C
BRANCH   9  10
HETATM   10  N2  UNL     1     -64.075  31.024  16.882  1.00  0.00    -0.148 NA
BRANCH  10  11
HETATM   11  N1  UNL     1     -63.676  31.033  15.558  1.00  0.00    -0.348 N
ATOM     12  H12 UNL     1     -64.305  31.255  14.787  1.00  0.00     0.172 HD
ATOM     13  H11 UNL     1     -62.690  30.795  15.457  1.00  0.00     0.172 HD
ENDBRANCH  10  11
ENDBRANCH   9  10
ENDBRANCH   8   9
ENDBRANCH   1   8
TORSDOF 4
ENDMDL