MODEL 4
REMARK VINA RESULT: -3.289058072      2.134      4.202
REMARK  5 active torsions:
REMARK  status: ('A' for Active; 'I' for Inactive)
REMARK    1  A    between atoms: N1_1  and  C1_5
REMARK    2  A    between atoms: C1_5  and  C2_6
REMARK    3  A    between atoms: C2_6  and  C3_7
REMARK    4  A    between atoms: C5_9  and  C6_10
REMARK    5  A    between atoms: C6_10  and  N2_11
ROOT
HETATM    1  C3  UNL     1     -64.331  27.059  18.736  1.00  0.00     0.190 C
HETATM    2  C4  UNL     1     -63.281  27.347  17.714  1.00  0.00     0.067 C
HETATM    3  C5  UNL     1     -62.376  27.563  18.904  1.00  0.00     0.213 C
HETATM    4  N3  UNL     1     -63.258  26.692  19.658  1.00  0.00    -0.065 N
ATOM      5  H31 UNL     1     -63.016  25.713  19.816  1.00  0.00     0.278 HD
ATOM      6  H32 UNL     1     -63.371  26.808  20.665  1.00  0.00     0.278 HD
ENDROOT
BRANCH   1   7
HETATM    7  C2  UNL     1     -65.047  28.257  19.260  1.00  0.00     0.060 C
BRANCH   7   8
HETATM    8  C1  UNL     1     -66.454  27.968  19.724  1.00  0.00     0.231 C
BRANCH   8   9
HETATM    9  N1  UNL     1     -66.336  27.555  21.126  1.00  0.00    -0.079 N
ATOM     10  H13 UNL     1     -66.806  28.184  21.777  1.00  0.00     0.274 HD
ATOM     11  H12 UNL     1     -66.876  26.720  21.352  1.00  0.00     0.274 HD
ATOM     12  H11 UNL     1     -65.337  27.456  21.303  1.00  0.00     0.274 HD
ENDBRANCH   8   9
ENDBRANCH   7   8
ENDBRANCH   1   7
BRANCH   3  13
HETATM   13  C6  UNL     1     -60.990  27.014  18.689  1.00  0.00     0.262 C
BRANCH  13  14
HETATM   14  N2  UNL     1     -59.991  27.694  19.489  1.00  0.00    -0.077 N
ATOM     15  H23 UNL     1     -59.523  28.423  18.949  1.00  0.00     0.274 HD
ATOM     16  H22 UNL     1     -60.428  28.275  20.205  1.00  0.00     0.274 HD
ATOM     17  H21 UNL     1     -59.314  27.053  19.901  1.00  0.00     0.274 HD
ENDBRANCH  13  14
ENDBRANCH   3  13
TORSDOF 5
ENDMDL