MODEL 2
REMARK VINA RESULT: -3.911514794      0.805      1.358
REMARK  4 active torsions:
REMARK  status: ('A' for Active; 'I' for Inactive)
REMARK    1  A    between atoms: N1_1  and  C1_5
REMARK    2  A    between atoms: C1_5  and  C2_6
REMARK    3  A    between atoms: C2_6  and  C3_7
REMARK    4  A    between atoms: C3_7  and  N2_8
ROOT
HETATM    1  N2  UNL     1     -63.428  26.585  19.587  1.00  0.00    -0.362 N
ATOM      2  H2  UNL     1     -63.070  25.671  19.865  1.00  0.00     0.162 HD
HETATM    3  C4  UNL     1     -64.609  26.965  19.947  1.00  0.00     0.171 C
HETATM    4  N3  UNL     1     -65.242  28.219  19.630  1.00  0.00    -0.361 N
ATOM      5  H3  UNL     1     -64.770  29.092  19.394  1.00  0.00     0.162 HD
HETATM    6  C5  UNL     1     -66.675  28.009  19.707  1.00  0.00     0.142 C
HETATM    7  C6  UNL     1     -66.777  27.033  20.861  1.00  0.00     0.142 C
HETATM    8  N4  UNL     1     -65.567  26.262  20.730  1.00  0.00    -0.361 N
ATOM      9  H4  UNL     1     -65.418  25.340  21.141  1.00  0.00     0.162 HD
ENDROOT
BRANCH   1  10
HETATM   10  C3  UNL     1     -62.621  27.480  18.782  1.00  0.00     0.124 C
BRANCH  10  11
HETATM   11  C2  UNL     1     -62.434  26.942  17.383  1.00  0.00     0.047 C
BRANCH  11  12
HETATM   12  C1  UNL     1     -63.393  27.689  16.474  1.00  0.00     0.231 C
BRANCH  12  13
HETATM   13  N1  UNL     1     -62.678  28.478  15.483  1.00  0.00    -0.079 N
ATOM     14  H13 UNL     1     -61.688  28.563  15.716  1.00  0.00     0.274 HD
ATOM     15  H12 UNL     1     -62.589  27.978  14.599  1.00  0.00     0.274 HD
ATOM     16  H11 UNL     1     -63.111  29.393  15.353  1.00  0.00     0.274 HD
ENDBRANCH  12  13
ENDBRANCH  11  12
ENDBRANCH  10  11
ENDBRANCH   1  10
TORSDOF 4
ENDMDL