MODEL 4
REMARK VINA RESULT: -3.420806065      2.049      2.854
REMARK  5 active torsions:
REMARK  status: ('A' for Active; 'I' for Inactive)
REMARK    1  A    between atoms: O1_2  and  C2_3
REMARK    2  A    between atoms: C2_3  and  C3_4
REMARK    3  A    between atoms: C2_3  and  C4_13
REMARK    4  A    between atoms: C3_4  and  N1_5
REMARK    5  A    between atoms: C3_4  and  N2_9
ROOT
HETATM    1  C3  UNL     1     -64.813  28.436  19.295  1.00  0.00     0.406 C
ENDROOT
BRANCH   1   2
HETATM    2  C2  UNL     1     -64.503  28.810  17.837  1.00  0.00     0.182 C
BRANCH   2   3
HETATM    3  O1  UNL     1     -64.071  30.136  17.885  1.00  0.00    -0.386 OA
HETATM    4  C1  UNL     1     -64.742  30.933  16.965  1.00  0.00     0.202 C
ENDBRANCH   2   3
BRANCH   2   5
HETATM    5  C4  UNL     1     -63.301  27.988  17.392  1.00  0.00     0.018 A
HETATM    6  C5  UNL     1     -62.965  28.048  15.890  1.00  0.00     0.008 A
HETATM    7  C6  UNL     1     -63.462  26.796  16.548  1.00  0.00     0.008 A
ENDBRANCH   2   5
ENDBRANCH   1   2
BRANCH   1   8
HETATM    8  N1  UNL     1     -64.256  27.147  19.619  1.00  0.00    -0.048 N
ATOM      9  H13 UNL     1     -64.633  26.781  20.492  1.00  0.00     0.276 HD
ATOM     10  H12 UNL     1     -64.594  26.420  18.989  1.00  0.00     0.276 HD
ATOM     11  H11 UNL     1     -63.236  27.190  19.635  1.00  0.00     0.276 HD
ENDBRANCH   1   8
BRANCH   1  12
HETATM   12  N2  UNL     1     -66.235  28.403  19.519  1.00  0.00    -0.048 N
ATOM     13  H23 UNL     1     -66.503  27.635  20.135  1.00  0.00     0.276 HD
ATOM     14  H22 UNL     1     -66.544  29.182  20.101  1.00  0.00     0.276 HD
ATOM     15  H21 UNL     1     -66.739  28.369  18.632  1.00  0.00     0.276 HD
ENDBRANCH   1  12
TORSDOF 5
ENDMDL