MODEL 2
REMARK VINA RESULT: -3.889459514      1.265      1.624
REMARK  5 active torsions:
REMARK  status: ('A' for Active; 'I' for Inactive)
REMARK    1  A    between atoms: C2_2  and  C3_3
REMARK    2  A    between atoms: C3_3  and  N1_4
REMARK    3  A    between atoms: C3_3  and  N2_8
REMARK    4  A    between atoms: N2_8  and  C4_11
REMARK    5  A    between atoms: C5_13  and  N3_14
ROOT
HETATM    1  N2  UNL     1     -61.639  26.903  17.745  1.00  0.00    -0.012 N
ATOM      2  H21 UNL     1     -61.117  27.348  16.990  1.00  0.00     0.283 HD
ATOM      3  H22 UNL     1     -61.382  25.934  17.555  1.00  0.00     0.283 HD
ENDROOT
BRANCH   1   4
HETATM    4  C3  UNL     1     -63.053  27.116  17.615  1.00  0.00     0.405 C
BRANCH   4   5
HETATM    5  C2  UNL     1     -63.536  28.018  18.714  1.00  0.00     0.024 C
HETATM    6  C1  UNL     1     -64.558  28.819  18.514  1.00  0.00     0.010 C
ENDBRANCH   4   5
BRANCH   4   7
HETATM    7  N1  UNL     1     -63.427  27.737  16.354  1.00  0.00    -0.047 N
ATOM      8  H13 UNL     1     -62.948  28.622  16.187  1.00  0.00     0.277 HD
ATOM      9  H12 UNL     1     -63.067  27.238  15.540  1.00  0.00     0.277 HD
ATOM     10  H11 UNL     1     -64.443  27.825  16.351  1.00  0.00     0.277 HD
ENDBRANCH   4   7
ENDBRANCH   1   4
BRANCH   1  11
HETATM   11  C4  UNL     1     -61.187  27.333  19.035  1.00  0.00     0.382 A
HETATM   12  O1  UNL     1     -60.016  28.047  19.135  1.00  0.00    -0.319 OA
HETATM   13  C5  UNL     1     -60.012  26.688  19.649  1.00  0.00     0.377 A
BRANCH  13  14
HETATM   14  N3  UNL     1     -59.997  26.595  21.076  1.00  0.00    -0.049 N
ATOM     15  H33 UNL     1     -59.210  27.131  21.444  1.00  0.00     0.277 HD
ATOM     16  H32 UNL     1     -60.780  27.124  21.460  1.00  0.00     0.277 HD
ATOM     17  H31 UNL     1     -59.988  25.658  21.479  1.00  0.00     0.277 HD
ENDBRANCH  13  14
ENDBRANCH   1  11
TORSDOF 5
ENDMDL