MODEL 1
REMARK VINA RESULT: -3.970410644      0.000      0.000
REMARK  4 active torsions:
REMARK  status: ('A' for Active; 'I' for Inactive)
REMARK    1  A    between atoms: N1_1  and  C1_5
REMARK    2  A    between atoms: C1_5  and  C2_6
REMARK    3  A    between atoms: C2_6  and  C3_7
REMARK    4  A    between atoms: C3_7  and  C4_8
ROOT
HETATM    1  C4  UNL     1     -63.858  28.141  17.489  1.00  0.00     0.096 A
HETATM    2  N2  UNL     1     -64.599  28.040  18.599  1.00  0.00    -0.340 N
ATOM      3  H2  UNL     1     -64.641  27.221  19.206  1.00  0.00     0.168 HD
HETATM    4  C5  UNL     1     -65.281  29.187  18.794  1.00  0.00     0.198 A
HETATM    5  N3  UNL     1     -64.964  30.008  17.801  1.00  0.00    -0.295 N
ATOM      6  H3  UNL     1     -65.322  30.955  17.672  1.00  0.00     0.187 HD
HETATM    7  N4  UNL     1     -64.110  29.394  17.008  1.00  0.00    -0.288 N
ATOM      8  H4  UNL     1     -63.699  29.793  16.164  1.00  0.00     0.188 HD
ENDROOT
BRANCH   1   9
HETATM    9  C3  UNL     1     -62.943  27.212  16.820  1.00  0.00     0.079 C
BRANCH   9  10
HETATM   10  C2  UNL     1     -62.084  26.405  17.722  1.00  0.00     0.034 C
BRANCH  10  11
HETATM   11  C1  UNL     1     -61.056  27.143  18.503  1.00  0.00     0.230 C
BRANCH  11  12
HETATM   12  N1  UNL     1     -61.401  26.969  19.922  1.00  0.00    -0.079 N
ATOM     13  H13 UNL     1     -60.734  27.408  20.557  1.00  0.00     0.274 HD
ATOM     14  H12 UNL     1     -62.220  27.507  20.207  1.00  0.00     0.274 HD
ATOM     15  H11 UNL     1     -61.504  25.966  20.078  1.00  0.00     0.274 HD
ENDBRANCH  11  12
ENDBRANCH  10  11
ENDBRANCH   9  10
ENDBRANCH   1   9
TORSDOF 4
ENDMDL