MODEL 3
REMARK VINA RESULT: -7.108891825      1.444      3.157
REMARK  9 active torsions:
REMARK  status: ('A' for Active; 'I' for Inactive)
REMARK    1  A    between atoms: C2_2  and  C3_3
REMARK    2  A    between atoms: C3_3  and  C4_4
REMARK    3  A    between atoms: C4_4  and  C5_5
REMARK    4  A    between atoms: C5_5  and  C6_6
REMARK    5  A    between atoms: C6_6  and  C7_7
REMARK    6  A    between atoms: C7_7  and  N1_8
REMARK    7  A    between atoms: N1_8  and  C8_10
REMARK    8  A    between atoms: C11_15  and  C12_16
REMARK    9  A    between atoms: C19_23  and  N3_25
ROOT
HETATM    1  C8  UNL     1      16.995  22.694  48.005  1.00  0.00     0.117 A
HETATM    2  C9  UNL     1      15.689  22.269  48.101  1.00  0.00     0.136 A
HETATM    3  N2  UNL     1      14.732  22.966  48.782  1.00  0.00    -0.370 N
ATOM      4  H2  UNL     1      13.773  22.622  48.829  1.00  0.00     0.164 HD
HETATM    5  C10 UNL     1      15.077  24.111  49.389  1.00  0.00     0.113 A
HETATM    6  C11 UNL     1      16.374  24.547  49.303  1.00  0.00     0.034 A
HETATM    7  N4  UNL     1      17.325  23.839  48.613  1.00  0.00    -0.343 N
ATOM      8  H4  UNL     1      18.283  24.185  48.563  1.00  0.00     0.167 HD
ENDROOT
BRANCH   6   9
HETATM    9  C12 UNL     1      16.821  25.810  49.922  1.00  0.00     0.003 C
HETATM   10  C13 UNL     1      18.228  26.018  49.312  1.00  0.00     0.022 C
HETATM   11  C14 UNL     1      16.013  27.019  49.682  1.00  0.00     0.024 C
HETATM   12  C15 UNL     1      15.269  27.625  50.814  1.00  0.00    -0.044 C
HETATM   13  C16 UNL     1      13.795  27.236  50.904  1.00  0.00     0.015 C
HETATM   14  C17 UNL     1      15.205  29.149  50.566  1.00  0.00     0.015 C
HETATM   15  C18 UNL     1      15.841  27.437  52.169  1.00  0.00     0.047 C
HETATM   16  C19 UNL     1      17.198  26.806  52.185  1.00  0.00     0.122 C
HETATM   17  C20 UNL     1      17.514  26.438  53.611  1.00  0.00     0.046 C
HETATM   18  C21 UNL     1      17.090  25.521  51.382  1.00  0.00     0.053 C
BRANCH  16  19
HETATM   19  N3  UNL     1      18.212  27.699  51.680  1.00  0.00    -0.071 N
ATOM     20  H33 UNL     1      18.045  27.934  50.702  1.00  0.00     0.275 HD
ATOM     21  H32 UNL     1      18.122  28.630  52.086  1.00  0.00     0.275 HD
ATOM     22  H31 UNL     1      19.150  27.323  51.817  1.00  0.00     0.275 HD
ENDBRANCH  16  19
ENDBRANCH   6   9
BRANCH   1  23
HETATM   23  N1  UNL     1      17.842  21.961  47.299  1.00  0.00    -0.375 N
ATOM     24  H1  UNL     1      18.149  22.253  46.371  1.00  0.00     0.161 HD
BRANCH  23  25
HETATM   25  C7  UNL     1      18.321  20.718  47.900  1.00  0.00     0.121 C
BRANCH  25  26
HETATM   26  C6  UNL     1      17.847  19.527  47.128  1.00  0.00     0.020 C
BRANCH  26  27
HETATM   27  C5  UNL     1      17.604  18.297  47.978  1.00  0.00     0.002 C
BRANCH  27  28
HETATM   28  C4  UNL     1      16.301  17.690  47.522  1.00  0.00     0.000 C
BRANCH  28  29
HETATM   29  C3  UNL     1      15.225  18.679  47.224  1.00  0.00    -0.000 C
BRANCH  29  30
HETATM   30  C2  UNL     1      14.250  18.783  48.363  1.00  0.00    -0.005 C
HETATM   31  C1  UNL     1      13.021  19.576  48.088  1.00  0.00     0.005 C
ENDBRANCH  29  30
ENDBRANCH  28  29
ENDBRANCH  27  28
ENDBRANCH  26  27
ENDBRANCH  25  26
ENDBRANCH  23  25
ENDBRANCH   1  23
TORSDOF 9
ENDMDL