MODEL 3
REMARK VINA RESULT: -6.576978286      1.871      6.971
REMARK  9 active torsions:
REMARK  status: ('A' for Active; 'I' for Inactive)
REMARK    1  A    between atoms: C2_2  and  O1_3
REMARK    2  A    between atoms: C2_2  and  C3_5
REMARK    3  A    between atoms: C3_5  and  C4_6
REMARK    4  A    between atoms: C4_6  and  C5_7
REMARK    5  A    between atoms: C9_11  and  C10_12
REMARK    6  A    between atoms: C10_12  and  C11_13
REMARK    7  A    between atoms: C11_13  and  O2_15
REMARK    8  A    between atoms: C18_22  and  C19_23
REMARK    9  A    between atoms: C19_23  and  C20_24
ROOT
HETATM    1  C5  UNL     1      16.040  20.391  47.681  1.00  0.00    -0.006 C
HETATM    2  C6  UNL     1      15.969  18.925  48.009  1.00  0.00    -0.010 C
HETATM    3  C7  UNL     1      15.331  18.257  46.840  1.00  0.00     0.006 C
HETATM    4  C8  UNL     1      16.230  17.644  45.842  1.00  0.00     0.010 C
HETATM    5  C9  UNL     1      17.460  18.387  45.438  1.00  0.00    -0.034 C
HETATM    6  C13 UNL     1      17.091  19.902  45.446  1.00  0.00     0.015 C
HETATM    7  C14 UNL     1      17.185  20.577  46.740  1.00  0.00    -0.009 C
HETATM    8  C15 UNL     1      18.449  20.321  47.500  1.00  0.00     0.010 C
HETATM    9  C16 UNL     1      18.475  18.810  47.696  1.00  0.00    -0.009 C
HETATM   10  C17 UNL     1      17.270  18.292  48.378  1.00  0.00     0.010 C
HETATM   11  C18 UNL     1      18.662  18.272  46.268  1.00  0.00     0.001 C
ENDROOT
BRANCH   1  12
HETATM   12  C4  UNL     1      16.070  21.309  48.844  1.00  0.00     0.008 C
BRANCH  12  13
HETATM   13  C3  UNL     1      15.189  22.522  48.667  1.00  0.00     0.032 C
BRANCH  13  14
HETATM   14  C2  UNL     1      15.962  23.822  48.767  1.00  0.00     0.114 C
HETATM   15  C1  UNL     1      16.866  23.824  49.976  1.00  0.00     0.039 C
BRANCH  14  16
HETATM   16  O1  UNL     1      15.011  24.835  48.959  1.00  0.00    -0.396 OA
ATOM     17  H1  UNL     1      15.226  25.538  48.357  1.00  0.00     0.210 HD
ENDBRANCH  14  16
ENDBRANCH  13  14
ENDBRANCH  12  13
ENDBRANCH   1  12
BRANCH   5  18
HETATM   18  C10 UNL     1      17.765  18.160  43.977  1.00  0.00     0.041 C
BRANCH  18  19
HETATM   19  C11 UNL     1      16.894  17.273  43.191  1.00  0.00     0.114 C
HETATM   20  C12 UNL     1      17.639  15.948  42.849  1.00  0.00     0.039 C
BRANCH  19  21
HETATM   21  O2  UNL     1      16.707  17.771  41.860  1.00  0.00    -0.396 OA
ATOM     22  H2  UNL     1      17.502  18.169  41.524  1.00  0.00     0.210 HD
ENDBRANCH  19  21
ENDBRANCH  18  19
ENDBRANCH   5  18
BRANCH  11  23
HETATM   23  C19 UNL     1      19.447  17.022  46.310  1.00  0.00     0.039 C
BRANCH  23  24
HETATM   24  C20 UNL     1      20.401  17.047  45.085  1.00  0.00     0.145 A
HETATM   25  C21 UNL     1      20.900  15.659  44.743  1.00  0.00     0.200 A
HETATM   26  O3  UNL     1      21.700  16.669  45.267  1.00  0.00    -0.381 OA
ENDBRANCH  23  24
ENDBRANCH  11  23
TORSDOF 9
ENDMDL