MODEL 5
REMARK VINA RESULT: -7.019803329      3.983      7.988
REMARK  9 active torsions:
REMARK  status: ('A' for Active; 'I' for Inactive)
REMARK    1  A    between atoms: C4_4  and  C5_5
REMARK    2  A    between atoms: C4_4  and  C11_11
REMARK    3  A    between atoms: C5_5  and  C6_6
REMARK    4  A    between atoms: C6_6  and  C7_7
REMARK    5  A    between atoms: C7_7  and  C8_8
REMARK    6  A    between atoms: C11_11  and  C12_12
REMARK    7  A    between atoms: C12_12  and  C13_13
REMARK    8  A    between atoms: C19_20  and  O2_21
REMARK    9  A    between atoms: C21_24  and  O3_25
ROOT
HETATM    1  C1  UNL     1      18.687  22.938  48.940  1.00  0.00     0.017 C
HETATM    2  C2  UNL     1      18.133  24.041  49.419  1.00  0.00    -0.060 C
HETATM    3  C3  UNL     1      17.090  23.994  50.479  1.00  0.00     0.048 C
HETATM    4  C4  UNL     1      15.814  24.516  49.898  1.00  0.00    -0.011 C
HETATM    5  C19 UNL     1      16.032  25.668  48.946  1.00  0.00     0.129 C
HETATM    6  C20 UNL     1      17.358  26.333  49.089  1.00  0.00     0.068 C
HETATM    7  C21 UNL     1      18.521  25.384  48.927  1.00  0.00     0.149 C
ENDROOT
BRANCH   4   8
HETATM    8  C5  UNL     1      14.796  24.879  50.953  1.00  0.00     0.012 C
BRANCH   8   9
HETATM    9  C6  UNL     1      15.392  25.438  52.221  1.00  0.00     0.001 C
BRANCH   9  10
HETATM   10  C7  UNL     1      14.247  26.160  52.933  1.00  0.00     0.004 C
BRANCH  10  11
HETATM   11  C8  UNL     1      14.269  27.634  52.680  1.00  0.00    -0.023 C
HETATM   12  C9  UNL     1      15.605  28.122  52.170  1.00  0.00     0.009 C
HETATM   13  C10 UNL     1      13.133  28.014  51.786  1.00  0.00     0.009 C
ENDBRANCH  10  11
ENDBRANCH   9  10
ENDBRANCH   8   9
ENDBRANCH   4   8
BRANCH   4  14
HETATM   14  C11 UNL     1      15.187  23.428  49.055  1.00  0.00     0.015 C
BRANCH  14  15
HETATM   15  C12 UNL     1      14.785  22.193  49.766  1.00  0.00     0.037 C
BRANCH  15  16
HETATM   16  C13 UNL     1      14.642  21.107  48.713  1.00  0.00     0.144 C
HETATM   17  C14 UNL     1      13.931  19.920  49.236  1.00  0.00     0.001 C
HETATM   18  C15 UNL     1      13.965  18.829  48.451  1.00  0.00    -0.026 C
HETATM   19  C16 UNL     1      14.702  18.945  47.170  1.00  0.00     0.058 C
HETATM   20  C17 UNL     1      15.882  19.857  47.233  1.00  0.00     0.121 C
HETATM   21  C18 UNL     1      17.148  19.004  47.257  1.00  0.00     0.040 C
HETATM   22  O1  UNL     1      15.919  20.680  48.330  1.00  0.00    -0.377 OA
ENDBRANCH  15  16
ENDBRANCH  14  15
ENDBRANCH   4  14
BRANCH   5  23
HETATM   23  O2  UNL     1      15.031  26.621  49.093  1.00  0.00    -0.395 OA
ATOM     24  H2  UNL     1      14.226  26.327  48.683  1.00  0.00     0.210 HD
ENDBRANCH   5  23
BRANCH   7  25
HETATM   25  O3  UNL     1      18.968  25.292  47.633  1.00  0.00    -0.391 OA
ATOM     26  H3  UNL     1      19.736  25.840  47.518  1.00  0.00     0.210 HD
ENDBRANCH   7  25
TORSDOF 9
ENDMDL