MODEL 2
REMARK VINA RESULT: -7.895023738      3.615      9.945
REMARK  7 active torsions:
REMARK  status: ('A' for Active; 'I' for Inactive)
REMARK    1  A    between atoms: C2_2  and  C4_4
REMARK    2  A    between atoms: C4_4  and  C5_5
REMARK    3  A    between atoms: C5_5  and  N1_7
REMARK    4  A    between atoms: N1_7  and  C7_10
REMARK    5  A    between atoms: C7_10  and  C8_11
REMARK    6  A    between atoms: C11_14  and  C12_15
REMARK    7  A    between atoms: N2_19  and  C16_20
ROOT
HETATM    1  C8  UNL     1      15.237  22.669  49.030  1.00  0.00     0.079 A
HETATM    2  C9  UNL     1      14.635  21.428  49.050  1.00  0.00     0.037 A
HETATM    3  C10 UNL     1      15.441  20.606  48.299  1.00  0.00     0.036 A
HETATM    4  C11 UNL     1      16.487  21.348  47.851  1.00  0.00     0.059 A
HETATM    5  O1  UNL     1      16.304  22.566  48.322  1.00  0.00    -0.317 OA
ENDROOT
BRANCH   4   6
HETATM    6  C12 UNL     1      17.648  20.944  46.997  1.00  0.00     0.071 C
HETATM    7  C13 UNL     1      18.716  20.417  47.899  1.00  0.00     0.015 C
HETATM    8  C14 UNL     1      19.001  18.967  47.830  1.00  0.00     0.031 C
HETATM    9  C15 UNL     1      18.004  18.152  47.036  1.00  0.00     0.273 C
HETATM   10  N2  UNL     1      17.894  18.810  45.753  1.00  0.00     0.098 N
HETATM   11  C21 UNL     1      17.250  20.092  45.857  1.00  0.00     0.284 C
BRANCH  10  12
HETATM   12  C16 UNL     1      17.219  18.004  44.769  1.00  0.00     0.156 C
HETATM   13  C17 UNL     1      15.888  17.459  45.160  1.00  0.00     0.049 C
HETATM   14  C18 UNL     1      18.070  16.910  44.151  1.00  0.00     0.041 C
HETATM   15  C19 UNL     1      18.653  17.991  43.267  1.00  0.00     0.005 C
HETATM   16  C20 UNL     1      17.278  18.670  43.423  1.00  0.00     0.041 C
ENDBRANCH  10  12
ENDBRANCH   4   6
BRANCH   1  17
HETATM   17  C7  UNL     1      14.747  23.923  49.706  1.00  0.00     0.297 C
BRANCH  17  18
HETATM   18  N1  UNL     1      15.050  25.055  48.898  1.00  0.00    -0.066 N
ATOM     19  H12 UNL     1      14.417  25.128  48.101  1.00  0.00     0.278 HD
ATOM     20  H11 UNL     1      15.925  24.931  48.390  1.00  0.00     0.278 HD
BRANCH  18  21
HETATM   21  C5  UNL     1      15.058  26.264  49.680  1.00  0.00     0.182 C
HETATM   22  C6  UNL     1      16.519  26.630  49.908  1.00  0.00     0.040 C
BRANCH  21  23
HETATM   23  C4  UNL     1      14.333  26.054  50.965  1.00  0.00     0.036 C
BRANCH  23  24
HETATM   24  C2  UNL     1      14.275  27.315  51.809  1.00  0.00    -0.021 C
HETATM   25  C1  UNL     1      14.519  26.852  53.249  1.00  0.00     0.009 C
HETATM   26  C3  UNL     1      12.952  28.001  51.745  1.00  0.00     0.009 C
ENDBRANCH  23  24
ENDBRANCH  21  23
ENDBRANCH  18  21
ENDBRANCH  17  18
ENDBRANCH   1  17
TORSDOF 7
ENDMDL