MODEL 3
REMARK VINA RESULT: -8.347474034      5.801      9.309
REMARK  8 active torsions:
REMARK  status: ('A' for Active; 'I' for Inactive)
REMARK    1  A    between atoms: N1_1  and  C1_4
REMARK    2  A    between atoms: C2_7  and  C3_8
REMARK    3  A    between atoms: C3_8  and  N3_9
REMARK    4  A    between atoms: N3_9  and  C4_10
REMARK       I    between atoms: N3_9  and  C11_17
REMARK    5  A    between atoms: C4_10  and  C5_11
REMARK    6  A    between atoms: C5_11  and  C6_12
REMARK    7  A    between atoms: C11_17  and  C12_19
REMARK    8  A    between atoms: C12_19  and  C13_20
ROOT
HETATM    1  N3  UNL     1      16.821  23.422  49.397  1.00  0.00    -0.347 N
HETATM    2  C11 UNL     1      18.079  23.100  48.836  1.00  0.00     0.220 C
HETATM    3  O1  UNL     1      19.122  23.453  49.436  1.00  0.00    -0.273 OA
ENDROOT
BRANCH   1   4
HETATM    4  C3  UNL     1      16.794  24.148  50.647  1.00  0.00     0.183 C
BRANCH   4   5
HETATM    5  C2  UNL     1      15.948  25.355  50.616  1.00  0.00     0.045 A
HETATM    6  N2  UNL     1      16.103  26.320  49.720  1.00  0.00    -0.194 N
HETATM    7  C1  UNL     1      15.303  27.389  49.744  1.00  0.00     0.675 A
ATOM      8  H2  UNL     1      16.832  26.246  49.011  1.00  0.00     0.184 HD
HETATM    9  N4  UNL     1      14.336  27.505  50.670  1.00  0.00    -0.202 N
HETATM   10  C20 UNL     1      14.141  26.546  51.604  1.00  0.00     0.108 A
ATOM     11  H4  UNL     1      13.738  28.331  50.668  1.00  0.00     0.183 HD
HETATM   12  C19 UNL     1      14.966  25.452  51.570  1.00  0.00     0.045 A
BRANCH   7  13
HETATM   13  N1  UNL     1      15.478  28.310  48.863  1.00  0.00    -0.234 N
ATOM     14  H12 UNL     1      16.407  28.495  48.485  1.00  0.00     0.174 HD
ATOM     15  H11 UNL     1      14.669  28.848  48.551  1.00  0.00     0.174 HD
ENDBRANCH   7  13
ENDBRANCH   4   5
ENDBRANCH   1   4
BRANCH   1  16
HETATM   16  C4  UNL     1      15.561  23.060  48.812  1.00  0.00     0.126 C
BRANCH  16  17
HETATM   17  C5  UNL     1      14.701  22.142  49.584  1.00  0.00     0.024 C
BRANCH  17  18
HETATM   18  C6  UNL     1      14.630  20.835  48.804  1.00  0.00    -0.013 C
HETATM   19  C7  UNL     1      13.579  20.898  47.720  1.00  0.00     0.005 C
HETATM   20  C8  UNL     1      13.369  19.438  47.404  1.00  0.00     0.000 C
HETATM   21  C9  UNL     1      13.792  18.654  48.606  1.00  0.00     0.000 C
HETATM   22  C10 UNL     1      14.110  19.706  49.670  1.00  0.00     0.005 C
ENDBRANCH  17  18
ENDBRANCH  16  17
ENDBRANCH   1  16
BRANCH   2  23
HETATM   23  C12 UNL     1      18.232  22.360  47.562  1.00  0.00     0.107 C
BRANCH  23  24
HETATM   24  C13 UNL     1      18.268  20.889  47.678  1.00  0.00    -0.006 C
HETATM   25  C14 UNL     1      17.485  20.117  46.669  1.00  0.00     0.005 C
HETATM   26  C15 UNL     1      17.275  18.727  47.296  1.00  0.00     0.000 C
HETATM   27  C16 UNL     1      18.620  18.080  47.563  1.00  0.00     0.000 C
HETATM   28  C17 UNL     1      19.513  18.943  48.425  1.00  0.00     0.000 C
HETATM   29  C18 UNL     1      19.656  20.293  47.728  1.00  0.00     0.005 C
ENDBRANCH  23  24
ENDBRANCH   2  23
TORSDOF 8
ENDMDL