MODEL 1
REMARK VINA RESULT: -7.814346683      0.000      0.000
REMARK  8 active torsions:
REMARK  status: ('A' for Active; 'I' for Inactive)
REMARK    1  A    between atoms: C1_2  and  C2_3
REMARK       I    between atoms: C1_2  and  N1_10
REMARK    2  A    between atoms: C2_3  and  C3_4
REMARK    3  A    between atoms: N1_10  and  C9_12
REMARK    4  A    between atoms: C9_12  and  C10_13
REMARK    5  A    between atoms: C10_13  and  C11_14
REMARK    6  A    between atoms: C11_14  and  O2_15
REMARK    7  A    between atoms: C11_14  and  C12_17
REMARK    8  A    between atoms: C11_14  and  C16_22
ROOT
HETATM    1  C10 UNL     1      16.072  19.432  46.295  1.00  0.00     0.063 C
ENDROOT
BRANCH   1   2
HETATM    2  C9  UNL     1      16.454  18.038  45.877  1.00  0.00     0.126 C
BRANCH   2   3
HETATM    3  N1  UNL     1      17.764  18.052  45.147  1.00  0.00    -0.361 N
HETATM    4  C1  UNL     1      17.911  17.446  43.906  1.00  0.00     0.217 C
HETATM    5  O1  UNL     1      16.950  16.820  43.351  1.00  0.00    -0.274 OA
ATOM      6  H1  UNL     1      18.566  18.516  45.573  1.00  0.00     0.162 HD
BRANCH   4   7
HETATM    7  C2  UNL     1      19.226  17.522  43.182  1.00  0.00     0.107 C
BRANCH   7   8
HETATM    8  C3  UNL     1      19.945  16.189  43.506  1.00  0.00    -0.006 C
HETATM    9  C4  UNL     1      21.044  15.908  42.518  1.00  0.00     0.005 C
HETATM   10  C5  UNL     1      21.612  14.522  42.872  1.00  0.00     0.000 C
HETATM   11  C6  UNL     1      22.251  14.584  44.249  1.00  0.00     0.000 C
HETATM   12  C7  UNL     1      22.011  15.916  44.887  1.00  0.00     0.000 C
HETATM   13  C8  UNL     1      20.579  16.367  44.888  1.00  0.00     0.005 C
ENDBRANCH   7   8
ENDBRANCH   4   7
ENDBRANCH   2   3
ENDBRANCH   1   2
BRANCH   1  14
HETATM   14  C11 UNL     1      16.489  19.663  47.767  1.00  0.00     0.090 C
BRANCH  14  15
HETATM   15  O2  UNL     1      16.668  18.404  48.304  1.00  0.00    -0.385 OA
ATOM     16  H2  UNL     1      17.336  17.990  47.769  1.00  0.00     0.211 HD
ENDBRANCH  14  15
BRANCH  14  17
HETATM   17  C12 UNL     1      17.709  20.539  47.840  1.00  0.00    -0.017 A
HETATM   18  C13 UNL     1      18.978  20.124  47.951  1.00  0.00     0.018 A
HETATM   19  C14 UNL     1      19.958  21.047  48.059  1.00  0.00     0.050 A
HETATM   20  S1  UNL     1      19.146  22.548  48.008  1.00  0.00    -0.113 SA
HETATM   21  C15 UNL     1      17.515  21.901  47.847  1.00  0.00     0.059 A
ENDBRANCH  14  17
BRANCH  14  22
HETATM   22  C16 UNL     1      15.262  20.168  48.442  1.00  0.00     0.025 C
HETATM   23  C17 UNL     1      14.212  20.818  47.639  1.00  0.00     0.008 C
HETATM   24  C18 UNL     1      12.926  20.008  47.861  1.00  0.00     0.001 C
HETATM   25  C19 UNL     1      13.333  18.782  48.623  1.00  0.00     0.001 C
HETATM   26  C20 UNL     1      14.579  19.224  49.392  1.00  0.00     0.008 C
ENDBRANCH  14  22
ENDBRANCH   1  14
TORSDOF 8
ENDMDL