MODEL 2
REMARK VINA RESULT: -6.801166055      1.796      4.029
REMARK  9 active torsions:
REMARK  status: ('A' for Active; 'I' for Inactive)
REMARK    1  A    between atoms: C2_2  and  C3_3
REMARK    2  A    between atoms: C3_3  and  C5_5
REMARK    3  A    between atoms: C6_6  and  C7_7
REMARK    4  A    between atoms: C12_13  and  O2_14
REMARK    5  A    between atoms: C17_20  and  C18_21
REMARK    6  A    between atoms: C18_21  and  C19_22
REMARK    7  A    between atoms: C19_22  and  C20_23
REMARK    8  A    between atoms: C20_23  and  C21_24
REMARK    9  A    between atoms: C21_24  and  O3_25
ROOT
HETATM    1  C7  UNL     1      17.653  26.441  50.322  1.00  0.00     0.154 C
HETATM    2  O1  UNL     1      18.104  26.510  51.596  1.00  0.00    -0.371 OA
HETATM    3  C8  UNL     1      17.114  26.733  52.512  1.00  0.00     0.061 C
HETATM    4  C9  UNL     1      17.284  25.858  53.767  1.00  0.00     0.046 C
HETATM    5  C10 UNL     1      17.188  28.135  52.991  1.00  0.00     0.046 C
HETATM    6  C11 UNL     1      15.877  26.295  51.833  1.00  0.00     0.060 C
HETATM    7  C12 UNL     1      14.612  26.855  52.283  1.00  0.00     0.129 C
HETATM    8  C13 UNL     1      14.110  28.121  51.726  1.00  0.00     0.011 C
HETATM    9  C14 UNL     1      12.595  28.140  51.843  1.00  0.00     0.012 C
HETATM   10  C15 UNL     1      14.473  28.400  50.297  1.00  0.00     0.007 C
HETATM   11  C16 UNL     1      15.740  27.825  49.833  1.00  0.00     0.013 C
HETATM   12  C17 UNL     1      16.145  26.472  50.385  1.00  0.00    -0.002 C
ENDROOT
BRANCH   1  13
HETATM   13  C6  UNL     1      18.226  25.218  49.725  1.00  0.00     0.002 C
HETATM   14  C5  UNL     1      19.066  25.143  48.729  1.00  0.00    -0.024 C
BRANCH  14  15
HETATM   15  C3  UNL     1      19.666  23.966  48.096  1.00  0.00     0.003 C
HETATM   16  C4  UNL     1      20.472  24.480  46.886  1.00  0.00     0.014 C
BRANCH  15  17
HETATM   17  C2  UNL     1      18.751  22.872  47.676  1.00  0.00     0.003 C
HETATM   18  C1  UNL     1      18.951  21.552  48.331  1.00  0.00     0.006 C
ENDBRANCH  15  17
ENDBRANCH  14  15
ENDBRANCH   1  13
BRANCH  12  19
HETATM   19  C18 UNL     1      15.623  25.346  49.508  1.00  0.00     0.013 C
BRANCH  19  20
HETATM   20  C19 UNL     1      14.781  24.309  50.104  1.00  0.00     0.003 C
BRANCH  20  21
HETATM   21  C20 UNL     1      15.573  22.970  50.095  1.00  0.00     0.026 C
BRANCH  21  22
HETATM   22  C21 UNL     1      14.791  22.068  49.144  1.00  0.00     0.164 C
BRANCH  22  23
HETATM   23  O3  UNL     1      14.858  22.530  47.849  1.00  0.00    -0.401 OA
ATOM     24  H3  UNL     1      14.961  21.815  47.233  1.00  0.00     0.209 HD
ENDBRANCH  22  23
ENDBRANCH  21  22
ENDBRANCH  20  21
ENDBRANCH  19  20
ENDBRANCH  12  19
BRANCH   7  25
HETATM   25  O2  UNL     1      14.636  27.016  53.712  1.00  0.00    -0.395 OA
ATOM     26  H2  UNL     1      14.041  26.392  54.113  1.00  0.00     0.210 HD
ENDBRANCH   7  25
TORSDOF 9
ENDMDL