MODEL 5
REMARK VINA RESULT: -7.518712513      1.659      2.369
REMARK  8 active torsions:
REMARK  status: ('A' for Active; 'I' for Inactive)
REMARK    1  A    between atoms: C2_2  and  C3_3
REMARK    2  A    between atoms: C2_2  and  C6_6
REMARK    3  A    between atoms: C3_3  and  C4_4
REMARK    4  A    between atoms: C9_9  and  O1_10
REMARK    5  A    between atoms: C13_15  and  C14_16
REMARK    6  A    between atoms: C14_16  and  O2_17
REMARK    7  A    between atoms: C14_16  and  C15_19
REMARK    8  A    between atoms: C15_19  and  C16_20
ROOT
HETATM    1  C6  UNL     1      16.200  21.973  48.858  1.00  0.00     0.025 C
HETATM    2  C7  UNL     1      17.412  22.161  47.899  1.00  0.00     0.001 C
HETATM    3  C8  UNL     1      18.661  21.484  48.328  1.00  0.00     0.037 C
HETATM    4  C9  UNL     1      19.831  22.370  47.970  1.00  0.00     0.118 C
HETATM    5  C10 UNL     1      19.769  23.590  48.825  1.00  0.00     0.032 C
HETATM    6  C11 UNL     1      18.375  23.757  49.463  1.00  0.00     0.008 C
HETATM    7  C12 UNL     1      17.378  23.630  48.389  1.00  0.00    -0.002 C
HETATM    8  C13 UNL     1      15.948  23.391  48.621  1.00  0.00     0.031 C
ENDROOT
BRANCH   8   9
HETATM    9  C14 UNL     1      15.138  24.190  49.596  1.00  0.00     0.146 C
BRANCH   9  10
HETATM   10  O2  UNL     1      14.850  25.368  48.944  1.00  0.00    -0.391 OA
ATOM     11  H2  UNL     1      15.567  25.953  49.159  1.00  0.00     0.210 HD
ENDBRANCH   9  10
BRANCH   9  12
HETATM   12  C15 UNL     1      15.582  24.246  50.967  1.00  0.00     0.007 C
BRANCH  12  13
HETATM   13  C16 UNL     1      15.254  25.336  51.899  1.00  0.00     0.030 C
HETATM   14  C17 UNL     1      16.175  26.243  52.542  1.00  0.00     0.046 C
HETATM   15  C18 UNL     1      17.038  27.171  51.766  1.00  0.00     0.065 C
HETATM   16  O3  UNL     1      16.909  25.665  53.610  1.00  0.00    -0.355 OA
HETATM   17  C19 UNL     1      17.309  28.411  52.656  1.00  0.00     0.009 C
HETATM   18  C20 UNL     1      17.903  27.867  53.930  1.00  0.00     0.027 C
HETATM   19  C21 UNL     1      17.217  26.673  54.490  1.00  0.00     0.175 C
ENDBRANCH  12  13
ENDBRANCH   9  12
ENDBRANCH   8   9
BRANCH   1  20
HETATM   20  C2  UNL     1      15.303  20.904  48.435  1.00  0.00    -0.084 C
HETATM   21  C1  UNL     1      14.158  20.740  49.166  1.00  0.00     0.014 C
BRANCH  20  22
HETATM   22  C3  UNL     1      15.501  19.926  47.358  1.00  0.00     0.033 C
BRANCH  22  23
HETATM   23  C4  UNL     1      15.581  18.488  47.745  1.00  0.00    -0.000 C
HETATM   24  C5  UNL     1      17.058  18.115  48.060  1.00  0.00     0.005 C
ENDBRANCH  22  23
ENDBRANCH  20  22
ENDBRANCH   1  20
BRANCH   4  25
HETATM   25  O1  UNL     1      21.048  21.702  48.036  1.00  0.00    -0.396 OA
ATOM     26  H1  UNL     1      21.234  21.367  48.906  1.00  0.00     0.210 HD
ENDBRANCH   4  25
TORSDOF 8
ENDMDL