MODEL 5
REMARK VINA RESULT: -7.748699051      4.380      7.236
REMARK  7 active torsions:
REMARK  status: ('A' for Active; 'I' for Inactive)
REMARK    1  A    between atoms: C2_2  and  C3_3
REMARK    2  A    between atoms: C3_3  and  N1_4
REMARK    3  A    between atoms: C3_3  and  C18_22
REMARK    4  A    between atoms: N1_4  and  C4_6
REMARK    5  A    between atoms: C7_9  and  C8_10
REMARK    6  A    between atoms: C8_10  and  N2_11
REMARK    7  A    between atoms: N2_11  and  C9_13
ROOT
HETATM    1  C4  UNL     1      19.820  23.237  48.635  1.00  0.00     0.081 C
HETATM    2  C5  UNL     1      18.997  22.077  48.229  1.00  0.00     0.025 C
HETATM    3  C6  UNL     1      17.631  22.549  47.726  1.00  0.00     0.008 C
HETATM    4  C7  UNL     1      16.976  23.480  48.684  1.00  0.00     0.003 C
HETATM    5  C16 UNL     1      17.726  23.485  50.001  1.00  0.00     0.008 C
HETATM    6  C17 UNL     1      19.093  24.061  49.681  1.00  0.00     0.025 C
ENDROOT
BRANCH   1   7
HETATM    7  N1  UNL     1      20.321  24.037  47.621  1.00  0.00    -0.388 N
ATOM      8  H1  UNL     1      19.997  23.834  46.676  1.00  0.00     0.159 HD
BRANCH   7   9
HETATM    9  C3  UNL     1      21.217  25.082  47.759  1.00  0.00     0.016 C
BRANCH   9  10
HETATM   10  C2  UNL     1      20.856  26.497  47.608  1.00  0.00     0.053 C
HETATM   11  C1  UNL     1      19.462  26.667  47.054  1.00  0.00     0.011 C
ENDBRANCH   9  10
BRANCH   9  12
HETATM   12  C18 UNL     1      22.551  24.780  47.071  1.00  0.00     0.002 A
HETATM   13  C19 UNL     1      22.611  23.836  46.090  1.00  0.00     0.016 A
HETATM   14  C20 UNL     1      23.830  23.595  45.486  1.00  0.00     0.018 A
HETATM   15  C21 UNL     1      24.923  24.310  45.893  1.00  0.00     0.087 A
HETATM   16  N3  UNL     1      24.871  25.244  46.862  1.00  0.00    -0.374 N
HETATM   17  C22 UNL     1      23.678  25.474  47.448  1.00  0.00     0.101 A
ATOM     18  H3  UNL     1      25.705  25.760  47.143  1.00  0.00     0.164 HD
ENDBRANCH   9  12
ENDBRANCH   7   9
ENDBRANCH   1   7
BRANCH   4  19
HETATM   19  C8  UNL     1      15.496  23.351  48.848  1.00  0.00     0.118 C
BRANCH  19  20
HETATM   20  N2  UNL     1      14.826  22.463  47.979  1.00  0.00    -0.416 N
ATOM     21  H2  UNL     1      14.811  22.606  46.969  1.00  0.00     0.153 HD
BRANCH  20  22
HETATM   22  C9  UNL     1      14.184  21.376  48.581  1.00  0.00     0.081 C
HETATM   23  C10 UNL     1      13.391  20.442  47.685  1.00  0.00     0.029 C
HETATM   24  C11 UNL     1      13.413  19.096  48.365  1.00  0.00    -0.012 C
HETATM   25  C12 UNL     1      14.651  18.383  47.853  1.00  0.00     0.005 C
HETATM   26  C15 UNL     1      13.947  19.442  49.767  1.00  0.00     0.011 C
HETATM   27  C13 UNL     1      15.701  19.450  48.216  1.00  0.00     0.007 C
HETATM   28  C14 UNL     1      15.092  20.347  49.238  1.00  0.00     0.008 C
ENDBRANCH  20  22
ENDBRANCH  19  20
ENDBRANCH   4  19
TORSDOF 7
ENDMDL