MODEL 3
REMARK VINA RESULT: -8.040826435      1.631      2.369
REMARK  6 active torsions:
REMARK  status: ('A' for Active; 'I' for Inactive)
REMARK    1  A    between atoms: C1_2  and  C2_3
REMARK       I    between atoms: C1_2  and  N1_15
REMARK    2  A    between atoms: C2_3  and  C3_4
REMARK    3  A    between atoms: C6_7  and  O2_8
REMARK    4  A    between atoms: O2_8  and  C7_9
REMARK       I    between atoms: N1_15  and  C10_17
REMARK       I    between atoms: C10_17  and  N2_19
REMARK    5  A    between atoms: N2_19  and  S1_21
REMARK    6  A    between atoms: S1_21  and  C11_24
ROOT
HETATM    1  O1  UNL     1      30.470  51.320   4.435  1.00  0.00    -0.273 OA
HETATM    2  C1  UNL     1      30.778  51.855   5.518  1.00  0.00     0.229 C
HETATM    3  N1  UNL     1      31.210  51.236   6.695  1.00  0.00    -0.278 N
ATOM      4  H1  UNL     1      31.408  51.849   7.486  1.00  0.00     0.173 HD
HETATM    5  C10 UNL     1      31.398  49.869   6.903  1.00  0.00     0.336 C
HETATM    6  O3  UNL     1      31.813  49.435   8.045  1.00  0.00    -0.246 OA
HETATM    7  N2  UNL     1      31.149  48.910   5.897  1.00  0.00    -0.232 N
ATOM      8  H2  UNL     1      30.813  49.201   4.979  1.00  0.00     0.183 HD
ENDROOT
BRANCH   7   9
HETATM    9  S1  UNL     1      31.425  47.219   6.240  1.00  0.00     0.267 S
HETATM   10  O4  UNL     1      31.435  46.493   4.927  1.00  0.00    -0.200 OA
HETATM   11  O5  UNL     1      32.739  47.006   6.886  1.00  0.00    -0.200 OA
BRANCH   9  12
HETATM   12  C11 UNL     1      30.088  46.688   7.215  1.00  0.00     0.091 A
HETATM   13  C12 UNL     1      28.934  47.429   7.257  1.00  0.00     0.026 A
HETATM   14  C13 UNL     1      27.879  47.069   8.063  1.00  0.00     0.002 A
HETATM   15  C14 UNL     1      27.978  45.923   8.861  1.00  0.00     0.012 A
HETATM   16  C15 UNL     1      29.127  45.172   8.827  1.00  0.00    -0.024 A
HETATM   17  C16 UNL     1      29.196  44.045   9.610  1.00  0.00     0.012 A
HETATM   18  C20 UNL     1      30.177  45.566   7.997  1.00  0.00    -0.003 A
HETATM   19  C17 UNL     1      30.332  43.249   9.598  1.00  0.00     0.001 A
HETATM   20  C18 UNL     1      31.379  43.620   8.784  1.00  0.00     0.001 A
HETATM   21  C19 UNL     1      31.284  44.749   8.014  1.00  0.00     0.014 A
ENDBRANCH   9  12
ENDBRANCH   7   9
BRANCH   2  22
HETATM   22  C2  UNL     1      30.656  53.369   5.503  1.00  0.00     0.141 C
BRANCH  22  23
HETATM   23  C3  UNL     1      29.457  53.710   6.292  1.00  0.00    -0.049 A
HETATM   24  C4  UNL     1      29.633  54.458   7.431  1.00  0.00     0.010 A
HETATM   25  C5  UNL     1      28.543  54.830   8.207  1.00  0.00     0.037 A
HETATM   26  C6  UNL     1      27.241  54.469   7.876  1.00  0.00     0.078 A
HETATM   27  C8  UNL     1      27.106  53.715   6.723  1.00  0.00     0.037 A
HETATM   28  C9  UNL     1      28.182  53.340   5.942  1.00  0.00     0.010 A
BRANCH  26  29
HETATM   29  O2  UNL     1      26.166  54.851   8.665  1.00  0.00    -0.255 OA
BRANCH  29  30
HETATM   30  C7  UNL     1      25.913  56.260   8.754  1.00  0.00     0.530 C
HETATM   31  F1  UNL     1      26.215  56.887   7.557  1.00  0.00    -0.144 F
HETATM   32  F2  UNL     1      24.532  56.347   8.986  1.00  0.00    -0.144 F
HETATM   33  F3  UNL     1      26.533  56.823   9.838  1.00  0.00    -0.144 F
ENDBRANCH  29  30
ENDBRANCH  26  29
ENDBRANCH  22  23
ENDBRANCH   2  22
TORSDOF 6
ENDMDL