MODEL 4
REMARK VINA RESULT: -7.077779293      1.793      2.040
REMARK  6 active torsions:
REMARK  status: ('A' for Active; 'I' for Inactive)
REMARK    1  A    between atoms: C4_6  and  C5_7
REMARK       I    between atoms: C5_7  and  N2_9
REMARK    2  A    between atoms: N2_9  and  C6_11
REMARK    3  A    between atoms: C9_14  and  C10_15
REMARK    4  A    between atoms: C10_15  and  C12_18
REMARK    5  A    between atoms: C12_18  and  C13_19
REMARK    6  A    between atoms: C13_19  and  O2_22
ROOT
HETATM    1  C5  UNL     1      27.851  46.953   8.149  1.00  0.00     0.275 C
HETATM    2  O1  UNL     1      27.314  46.082   8.879  1.00  0.00    -0.265 OA
HETATM    3  N2  UNL     1      29.202  46.965   7.786  1.00  0.00    -0.351 N
ATOM      4  H2  UNL     1      29.527  47.724   7.187  1.00  0.00     0.163 HD
ENDROOT
BRANCH   3   5
HETATM    5  C6  UNL     1      30.169  45.975   8.202  1.00  0.00     0.084 C
HETATM    6  C7  UNL     1      31.411  46.096   7.399  1.00  0.00     0.026 C
HETATM    7  C8  UNL     1      32.257  44.899   7.247  1.00  0.00     0.010 C
HETATM    8  C9  UNL     1      31.842  43.642   7.899  1.00  0.00     0.025 C
HETATM    9  C16 UNL     1      30.542  43.643   8.616  1.00  0.00     0.010 C
HETATM   10  C17 UNL     1      29.564  44.615   7.938  1.00  0.00     0.026 C
BRANCH   8  11
HETATM   11  C10 UNL     1      32.971  43.207   8.853  1.00  0.00     0.106 C
HETATM   12  C11 UNL     1      33.544  41.935   8.289  1.00  0.00     0.052 C
HETATM   13  F1  UNL     1      32.342  42.992  10.068  1.00  0.00    -0.243 F
BRANCH  11  14
HETATM   14  C12 UNL     1      33.951  44.309   8.875  1.00  0.00     0.080 C
BRANCH  14  15
HETATM   15  C13 UNL     1      34.932  44.394   9.961  1.00  0.00     0.053 C
HETATM   16  C14 UNL     1      36.245  45.013   9.461  1.00  0.00     0.045 C
HETATM   17  C15 UNL     1      34.568  45.044  11.231  1.00  0.00     0.045 C
BRANCH  15  18
HETATM   18  O2  UNL     1      35.306  43.060  10.279  1.00  0.00    -0.391 OA
ATOM     19  H2  UNL     1      34.738  42.778  10.986  1.00  0.00     0.210 HD
ENDBRANCH  15  18
ENDBRANCH  14  15
ENDBRANCH  11  14
ENDBRANCH   8  11
ENDBRANCH   3   5
BRANCH   1  20
HETATM   20  C4  UNL     1      26.951  48.022   7.660  1.00  0.00     0.143 A
HETATM   21  N1  UNL     1      27.260  49.258   7.297  1.00  0.00    -0.348 N
HETATM   22  C3  UNL     1      26.335  50.065   6.891  1.00  0.00     0.036 A
ATOM     23  H1  UNL     1      28.229  49.574   7.338  1.00  0.00     0.166 HD
HETATM   24  C2  UNL     1      26.447  51.510   6.428  1.00  0.00     0.138 C
HETATM   25  C18 UNL     1      25.046  49.593   6.856  1.00  0.00     0.036 A
HETATM   26  C1  UNL     1      27.865  51.900   6.187  1.00  0.00     0.025 C
HETATM   27  C21 UNL     1      25.625  51.529   5.132  1.00  0.00     0.446 C
HETATM   28  N3  UNL     1      24.254  51.463   5.505  1.00  0.00     0.161 N
HETATM   29  F2  UNL     1      25.844  52.670   4.421  1.00  0.00    -0.172 F
HETATM   30  F3  UNL     1      25.966  50.410   4.360  1.00  0.00    -0.172 F
HETATM   31  C19 UNL     1      23.886  50.432   6.405  1.00  0.00     0.328 C
HETATM   32  C20 UNL     1      23.396  51.565   4.343  1.00  0.00     0.318 C
HETATM   33  S1  UNL     1      25.256  47.990   7.418  1.00  0.00    -0.068 SA
ENDBRANCH   1  20
TORSDOF 6
ENDMDL