MODEL 2
REMARK VINA RESULT: -7.175322975      3.759      5.335
REMARK  8 active torsions:
REMARK  status: ('A' for Active; 'I' for Inactive)
REMARK    1  A    between atoms: C1_2  and  C2_4
REMARK    2  A    between atoms: C2_4  and  C3_6
REMARK    3  A    between atoms: C4_7  and  C5_8
REMARK    4  A    between atoms: C8_11  and  N2_12
REMARK    5  A    between atoms: C9_14  and  N3_15
REMARK    6  A    between atoms: C9_14  and  C18_28
REMARK       I    between atoms: N3_15  and  C10_16
REMARK    7  A    between atoms: C10_16  and  C11_18
REMARK    8  A    between atoms: C16_23  and  C17_24
ROOT
HETATM    1  N2  UNL     1      34.707  46.588   6.520  1.00  0.00    -0.329 N
ATOM      2  H2  UNL     1      34.963  46.846   5.567  1.00  0.00     0.168 HD
HETATM    3  C9  UNL     1      35.681  46.125   7.300  1.00  0.00     0.210 C
ENDROOT
BRANCH   3   4
HETATM    4  N3  UNL     1      36.928  46.040   6.751  1.00  0.00    -0.345 NA
HETATM    5  C10 UNL     1      38.172  45.955   6.203  1.00  0.00     0.329 C
HETATM    6  O3  UNL     1      38.589  46.603   5.218  1.00  0.00    -0.251 OA
BRANCH   5   7
HETATM    7  C11 UNL     1      39.181  45.020   6.783  1.00  0.00     0.061 A
HETATM    8  C12 UNL     1      39.141  43.714   6.330  1.00  0.00     0.019 A
HETATM    9  C13 UNL     1      40.013  42.755   6.827  1.00  0.00     0.001 A
HETATM   10  C14 UNL     1      40.926  43.128   7.783  1.00  0.00     0.001 A
HETATM   11  C15 UNL     1      40.969  44.417   8.231  1.00  0.00     0.017 A
HETATM   12  C16 UNL     1      40.069  45.399   7.717  1.00  0.00     0.064 A
BRANCH  12  13
HETATM   13  C17 UNL     1      40.177  46.779   8.211  1.00  0.00     0.418 C
HETATM   14  F1  UNL     1      39.072  47.070   8.982  1.00  0.00    -0.166 F
HETATM   15  F2  UNL     1      40.524  47.718   7.293  1.00  0.00    -0.166 F
HETATM   16  F3  UNL     1      41.238  46.772   9.175  1.00  0.00    -0.166 F
ENDBRANCH  12  13
ENDBRANCH   5   7
ENDBRANCH   3   4
BRANCH   3  17
HETATM   17  C18 UNL     1      35.321  45.764   8.669  1.00  0.00     0.091 A
HETATM   18  C19 UNL     1      34.970  44.452   8.890  1.00  0.00     0.034 A
HETATM   19  C20 UNL     1      34.652  44.078  10.181  1.00  0.00     0.004 A
HETATM   20  C21 UNL     1      34.677  44.970  11.216  1.00  0.00     0.017 A
HETATM   21  C22 UNL     1      35.039  46.290  10.942  1.00  0.00     0.088 A
HETATM   22  N4  UNL     1      35.342  46.622   9.685  1.00  0.00    -0.362 N
ATOM     23  H4  UNL     1      35.603  47.589   9.491  1.00  0.00     0.165 HD
ENDBRANCH   3  17
BRANCH   1  24
HETATM   24  C8  UNL     1      33.378  46.753   6.879  1.00  0.00     0.034 A
HETATM   25  C7  UNL     1      32.948  47.953   7.456  1.00  0.00     0.030 A
HETATM   26  C6  UNL     1      31.609  48.152   7.794  1.00  0.00     0.013 A
HETATM   27  C5  UNL     1      30.686  47.162   7.563  1.00  0.00    -0.036 A
HETATM   28  C24 UNL     1      31.123  45.966   6.990  1.00  0.00     0.013 A
HETATM   29  C23 UNL     1      32.440  45.762   6.652  1.00  0.00     0.030 A
BRANCH  27  30
HETATM   30  C4  UNL     1      29.260  47.346   7.880  1.00  0.00     0.015 C
HETATM   31  C3  UNL     1      28.438  48.091   7.185  1.00  0.00     0.061 C
BRANCH  31  32
HETATM   32  C2  UNL     1      27.046  48.300   7.453  1.00  0.00     0.236 C
HETATM   33  O2  UNL     1      26.366  47.261   7.805  1.00  0.00    -0.283 OA
BRANCH  32  34
HETATM   34  C1  UNL     1      26.318  49.525   7.377  1.00  0.00     0.304 C
HETATM   35  N1  UNL     1      24.912  49.473   6.989  1.00  0.00    -0.054 NA
HETATM   36  O1  UNL     1      26.788  50.672   7.623  1.00  0.00    -0.267 OA
ENDBRANCH  32  34
ENDBRANCH  31  32
ENDBRANCH  27  30
ENDBRANCH   1  24
TORSDOF 8
ENDMDL