MODEL 5
REMARK VINA RESULT: -8.460552228      0.691      1.410
REMARK  10 active torsions:
REMARK  status: ('A' for Active; 'I' for Inactive)
REMARK    1  A    between atoms: C2_2  and  C3_3
REMARK    2  A    between atoms: C6_6  and  C7_7
REMARK       I    between atoms: C7_7  and  N1_9
REMARK    3  A    between atoms: N1_9  and  N2_11
REMARK    4  A    between atoms: N2_11  and  C8_13
REMARK    5  A    between atoms: C8_13  and  O2_14
REMARK    6  A    between atoms: C8_13  and  C9_16
REMARK    7  A    between atoms: C12_19  and  C13_20
REMARK    8  A    between atoms: C14_26  and  O3_27
REMARK    9  A    between atoms: O3_27  and  C15_28
REMARK   10  A    between atoms: C15_28  and  C16_30
ROOT
HETATM    1  C9  UNL     1      33.661  47.195   7.122  1.00  0.00     0.068 A
HETATM    2  C10 UNL     1      34.556  48.014   7.850  1.00  0.00     0.022 A
HETATM    3  C11 UNL     1      35.004  47.630   9.074  1.00  0.00     0.035 A
HETATM    4  C12 UNL     1      34.553  46.411   9.578  1.00  0.00     0.118 A
HETATM    5  N3  UNL     1      33.705  45.652   8.875  1.00  0.00    -0.332 N
ATOM      6  H3  UNL     1      33.396  44.766   9.277  1.00  0.00     0.168 HD
HETATM    7  C14 UNL     1      33.236  46.007   7.649  1.00  0.00     0.166 A
ENDROOT
BRANCH   1   8
HETATM    8  C8  UNL     1      33.272  47.632   5.810  1.00  0.00     0.169 C
BRANCH   8   9
HETATM    9  N2  UNL     1      32.512  48.737   5.446  1.00  0.00    -0.277 N
ATOM     10  H2  UNL     1      32.982  49.596   5.157  1.00  0.00     0.189 HD
BRANCH   9  11
HETATM   11  N1  UNL     1      31.084  48.691   5.470  1.00  0.00    -0.264 N
HETATM   12  C7  UNL     1      30.413  49.373   6.498  1.00  0.00     0.270 C
HETATM   13  O1  UNL     1      31.068  50.001   7.356  1.00  0.00    -0.266 OA
ATOM     14  H1  UNL     1      30.566  48.175   4.759  1.00  0.00     0.190 HD
BRANCH  12  15
HETATM   15  C6  UNL     1      28.945  49.336   6.554  1.00  0.00     0.033 A
HETATM   16  C5  UNL     1      28.299  48.428   7.355  1.00  0.00     0.018 A
HETATM   17  C4  UNL     1      26.927  48.413   7.420  1.00  0.00     0.012 A
HETATM   18  C3  UNL     1      26.133  49.295   6.696  1.00  0.00    -0.037 A
HETATM   19  C23 UNL     1      26.787  50.210   5.888  1.00  0.00     0.012 A
HETATM   20  C22 UNL     1      28.171  50.214   5.833  1.00  0.00     0.018 A
BRANCH  18  21
HETATM   21  C2  UNL     1      24.695  49.207   6.830  1.00  0.00     0.001 C
HETATM   22  C1  UNL     1      24.065  48.069   7.012  1.00  0.00     0.012 C
ENDBRANCH  18  21
ENDBRANCH  12  15
ENDBRANCH   9  11
ENDBRANCH   8   9
BRANCH   8  23
HETATM   23  O2  UNL     1      33.668  46.917   4.796  1.00  0.00    -0.344 OA
ATOM     24  H2  UNL     1      33.026  46.279   4.508  1.00  0.00     0.219 HD
ENDBRANCH   8  23
ENDBRANCH   1   8
BRANCH   7  25
HETATM   25  O3  UNL     1      32.348  45.125   7.026  1.00  0.00    -0.256 OA
BRANCH  25  26
HETATM   26  C15 UNL     1      30.973  45.223   7.241  1.00  0.00     0.299 C
HETATM   27  O4  UNL     1      30.345  45.875   6.341  1.00  0.00    -0.259 OA
BRANCH  26  28
HETATM   28  C16 UNL     1      30.247  44.672   8.351  1.00  0.00     0.040 A
HETATM   29  C17 UNL     1      30.559  43.508   9.008  1.00  0.00     0.017 A
HETATM   30  C18 UNL     1      29.826  43.032  10.078  1.00  0.00     0.001 A
HETATM   31  C19 UNL     1      28.722  43.742  10.531  1.00  0.00     0.000 A
HETATM   32  C20 UNL     1      28.397  44.911   9.883  1.00  0.00     0.001 A
HETATM   33  C21 UNL     1      29.132  45.360   8.833  1.00  0.00     0.017 A
ENDBRANCH  26  28
ENDBRANCH  25  26
ENDBRANCH   7  25
BRANCH   4  34
HETATM   34  C13 UNL     1      35.040  45.974  10.927  1.00  0.00     0.432 C
HETATM   35  F1  UNL     1      36.426  45.762  10.902  1.00  0.00    -0.165 F
HETATM   36  F2  UNL     1      34.467  44.763  11.304  1.00  0.00    -0.165 F
HETATM   37  F3  UNL     1      34.810  46.956  11.852  1.00  0.00    -0.165 F
ENDBRANCH   4  34
TORSDOF 10
ENDMDL