MODEL 1
REMARK VINA RESULT: -7.934878634      0.000      0.000
REMARK  10 active torsions:
REMARK  status: ('A' for Active; 'I' for Inactive)
REMARK    1  A    between atoms: C2_2  and  C3_3
REMARK       I    between atoms: C3_3  and  N1_5
REMARK    2  A    between atoms: N1_5  and  C4_6
REMARK    3  A    between atoms: C9_11  and  C10_12
REMARK    4  A    between atoms: C10_12  and  O2_13
REMARK    5  A    between atoms: C10_12  and  C11_15
REMARK    6  A    between atoms: C12_17  and  N2_18
REMARK    7  A    between atoms: C13_20  and  O3_21
REMARK    8  A    between atoms: C13_20  and  C14_23
REMARK    9  A    between atoms: C17_26  and  C18_27
REMARK   10  A    between atoms: C21_35  and  O4_36
ROOT
HETATM    1  C11 UNL     1      30.078  48.999   6.614  1.00  0.00     0.093 A
HETATM    2  S1  UNL     1      28.707  50.005   6.358  1.00  0.00    -0.047 SA
HETATM    3  C12 UNL     1      29.541  51.579   6.661  1.00  0.00     0.153 A
HETATM    4  N3  UNL     1      30.679  51.142   6.894  1.00  0.00    -0.316 N
ATOM      5  H3  UNL     1      31.385  51.849   7.101  1.00  0.00     0.170 HD
HETATM    6  C21 UNL     1      31.093  49.935   6.911  1.00  0.00     0.162 A
ENDROOT
BRANCH   3   7
HETATM    7  N2  UNL     1      28.907  52.701   6.596  1.00  0.00    -0.317 N
HETATM    8  C13 UNL     1      28.908  53.862   7.104  1.00  0.00     0.152 C
ATOM      9  H2  UNL     1      28.157  52.630   5.909  1.00  0.00     0.170 HD
BRANCH   8  10
HETATM   10  O3  UNL     1      30.179  54.459   6.681  1.00  0.00    -0.345 OA
ATOM     11  H3  UNL     1      29.983  54.901   5.865  1.00  0.00     0.219 HD
ENDBRANCH   8  10
BRANCH   8  12
HETATM   12  C14 UNL     1      28.287  54.835   7.901  1.00  0.00     0.015 A
HETATM   13  C15 UNL     1      29.082  55.522   8.856  1.00  0.00     0.016 A
HETATM   14  C16 UNL     1      28.601  56.541   9.621  1.00  0.00     0.017 A
HETATM   15  C17 UNL     1      27.283  56.940   9.480  1.00  0.00     0.048 A
HETATM   16  C19 UNL     1      26.462  56.308   8.576  1.00  0.00     0.017 A
HETATM   17  C20 UNL     1      26.984  55.278   7.817  1.00  0.00     0.016 A
BRANCH  15  18
HETATM   18  C18 UNL     1      26.751  58.068  10.285  1.00  0.00     0.417 C
HETATM   19  F1  UNL     1      25.872  57.611  11.238  1.00  0.00    -0.166 F
HETATM   20  F2  UNL     1      26.152  58.964   9.426  1.00  0.00    -0.166 F
HETATM   21  F3  UNL     1      27.827  58.740  10.858  1.00  0.00    -0.166 F
ENDBRANCH  15  18
ENDBRANCH   8  12
ENDBRANCH   3   7
BRANCH   1  22
HETATM   22  C10 UNL     1      30.180  47.573   6.622  1.00  0.00     0.100 C
BRANCH  22  23
HETATM   23  C9  UNL     1      29.743  46.525   7.497  1.00  0.00     0.039 A
HETATM   24  C4  UNL     1      30.677  45.622   8.029  1.00  0.00     0.124 A
HETATM   25  C5  UNL     1      30.228  44.753   9.056  1.00  0.00     0.046 A
HETATM   26  C6  UNL     1      28.946  44.757   9.527  1.00  0.00     0.003 A
HETATM   27  C7  UNL     1      28.049  45.631   9.000  1.00  0.00     0.001 A
HETATM   28  C8  UNL     1      28.470  46.506   7.988  1.00  0.00     0.018 A
BRANCH  24  29
HETATM   29  N1  UNL     1      31.870  45.341   7.493  1.00  0.00    -0.366 NA
HETATM   30  C3  UNL     1      33.092  45.065   6.934  1.00  0.00     0.315 C
HETATM   31  O1  UNL     1      33.631  45.714   6.014  1.00  0.00    -0.252 OA
BRANCH  30  32
HETATM   32  C2  UNL     1      33.897  43.896   7.425  1.00  0.00     0.080 C
HETATM   33  C1  UNL     1      33.253  42.802   7.733  1.00  0.00     0.018 C
ENDBRANCH  30  32
ENDBRANCH  24  29
ENDBRANCH  22  23
BRANCH  22  34
HETATM   34  O2  UNL     1      30.874  47.112   5.577  1.00  0.00    -0.358 OA
ATOM     35  H2  UNL     1      31.619  47.662   5.364  1.00  0.00     0.217 HD
ENDBRANCH  22  34
ENDBRANCH   1  22
BRANCH   6  36
HETATM   36  O4  UNL     1      32.385  49.459   7.168  1.00  0.00    -0.345 OA
ATOM     37  H4  UNL     1      32.770  48.842   6.557  1.00  0.00     0.219 HD
ENDBRANCH   6  36
TORSDOF 10
ENDMDL