MODEL 4
REMARK VINA RESULT: -6.598893832      5.042      9.442
REMARK  7 active torsions:
REMARK  status: ('A' for Active; 'I' for Inactive)
REMARK    1  A    between atoms: C2_2  and  C5_5
REMARK    2  A    between atoms: C8_8  and  C9_9
REMARK    3  A    between atoms: N1_14  and  C12_15
REMARK    4  A    between atoms: C12_15  and  C13_16
REMARK    5  A    between atoms: C12_15  and  C14_19
REMARK    6  A    between atoms: C14_19  and  C15_22
REMARK    7  A    between atoms: C15_22  and  O4_25
ROOT
HETATM    1  C9  UNL     1      29.226  46.965   7.128  1.00  0.00     0.036 C
HETATM    2  C10 UNL     1      29.459  48.240   6.967  1.00  0.00     0.079 C
HETATM    3  S1  UNL     1      31.025  49.134   7.159  1.00  0.00    -0.023 SA
HETATM    4  C11 UNL     1      30.541  50.436   5.989  1.00  0.00     0.295 C
HETATM    5  O1  UNL     1      31.329  51.112   5.305  1.00  0.00    -0.259 OA
HETATM    6  N1  UNL     1      29.116  50.459   6.071  1.00  0.00    -0.253 N
HETATM    7  C18 UNL     1      28.524  49.319   6.580  1.00  0.00     0.269 C
HETATM    8  O5  UNL     1      27.270  49.066   6.763  1.00  0.00    -0.266 OA
ENDROOT
BRANCH   6   9
HETATM    9  C12 UNL     1      28.401  51.691   5.593  1.00  0.00     0.272 C
BRANCH   9  10
HETATM   10  C13 UNL     1      27.432  51.322   4.568  1.00  0.00     0.203 C
HETATM   11  O2  UNL     1      27.775  50.821   3.472  1.00  0.00    -0.646 OA
HETATM   12  O3  UNL     1      26.033  51.483   4.697  1.00  0.00    -0.646 OA
ENDBRANCH   9  10
BRANCH   9  13
HETATM   13  C14 UNL     1      27.970  52.497   6.760  1.00  0.00     0.303 C
HETATM   14  F1  UNL     1      29.068  52.523   7.643  1.00  0.00    -0.200 F
HETATM   15  F2  UNL     1      26.845  52.073   7.417  1.00  0.00    -0.200 F
BRANCH  13  16
HETATM   16  C15 UNL     1      27.710  53.937   6.388  1.00  0.00     0.118 C
HETATM   17  C16 UNL     1      27.784  54.702   7.750  1.00  0.00     0.052 C
HETATM   18  C17 UNL     1      28.665  54.521   5.415  1.00  0.00     0.052 C
BRANCH  16  19
HETATM   19  O4  UNL     1      26.367  54.081   6.015  1.00  0.00    -0.384 OA
ATOM     20  H4  UNL     1      26.001  54.839   6.454  1.00  0.00     0.210 HD
ENDBRANCH  16  19
ENDBRANCH  13  16
ENDBRANCH   9  13
ENDBRANCH   6   9
BRANCH   1  21
HETATM   21  C8  UNL     1      30.248  46.030   7.507  1.00  0.00    -0.035 A
HETATM   22  C7  UNL     1      30.184  45.303   8.671  1.00  0.00     0.012 A
HETATM   23  C6  UNL     1      31.200  44.415   9.038  1.00  0.00     0.009 A
HETATM   24  C5  UNL     1      32.310  44.237   8.241  1.00  0.00    -0.051 A
HETATM   25  C20 UNL     1      32.388  44.956   7.072  1.00  0.00     0.009 A
HETATM   26  C19 UNL     1      31.385  45.830   6.714  1.00  0.00     0.012 A
BRANCH  24  27
HETATM   27  C2  UNL     1      33.378  43.286   8.674  1.00  0.00    -0.024 C
HETATM   28  C1  UNL     1      33.388  42.066   7.783  1.00  0.00     0.019 C
HETATM   29  C3  UNL     1      33.168  42.862  10.102  1.00  0.00     0.019 C
HETATM   30  C4  UNL     1      34.732  43.978   8.556  1.00  0.00     0.019 C
ENDBRANCH  24  27
ENDBRANCH   1  21
TORSDOF 7
ENDMDL