MODEL 2
REMARK VINA RESULT: -7.078721216      0.754      1.321
REMARK  9 active torsions:
REMARK  status: ('A' for Active; 'I' for Inactive)
REMARK    1  A    between atoms: C2_2  and  C3_3
REMARK    2  A    between atoms: C3_3  and  C4_4
REMARK    3  A    between atoms: C4_4  and  C5_5
REMARK    4  A    between atoms: C6_6  and  C7_7
REMARK    5  A    between atoms: C13_14  and  C14_15
REMARK    6  A    between atoms: C13_14  and  C15_19
REMARK    7  A    between atoms: C15_19  and  O2_20
REMARK    8  A    between atoms: C20_28  and  C21_29
REMARK    9  A    between atoms: C21_29  and  N2_30
ROOT
HETATM    1  C7  UNL     1      28.157  46.754   7.978  1.00  0.00     0.020 A
HETATM    2  C8  UNL     1      28.130  45.694   8.894  1.00  0.00     0.022 A
HETATM    3  C9  UNL     1      29.312  45.034   9.158  1.00  0.00     0.023 A
HETATM    4  C10 UNL     1      30.421  45.413   8.550  1.00  0.00     0.034 A
HETATM    5  C11 UNL     1      30.530  46.460   7.622  1.00  0.00     0.088 A
HETATM    6  C12 UNL     1      29.332  47.119   7.363  1.00  0.00     0.058 A
HETATM    7  O1  UNL     1      31.656  46.825   7.018  1.00  0.00    -0.325 OA
HETATM    8  C13 UNL     1      33.031  46.708   7.419  1.00  0.00     0.209 C
HETATM    9  C20 UNL     1      33.120  46.109   8.793  1.00  0.00     0.128 C
HETATM   10  S1  UNL     1      32.009  44.640   8.878  1.00  0.00    -0.117 SA
ENDROOT
BRANCH   8  11
HETATM   11  C14 UNL     1      33.422  48.174   7.500  1.00  0.00     0.423 C
HETATM   12  F1  UNL     1      32.581  48.716   8.498  1.00  0.00    -0.168 F
HETATM   13  F2  UNL     1      34.675  48.429   7.932  1.00  0.00    -0.168 F
HETATM   14  F3  UNL     1      33.062  48.882   6.366  1.00  0.00    -0.168 F
ENDBRANCH   8  11
BRANCH   8  15
HETATM   15  C15 UNL     1      33.628  45.929   6.319  1.00  0.00     0.102 C
HETATM   16  C16 UNL     1      34.831  46.669   5.693  1.00  0.00     0.060 C
HETATM   17  C17 UNL     1      34.980  46.056   4.289  1.00  0.00     0.117 C
HETATM   18  N1  UNL     1      35.465  44.729   4.492  1.00  0.00    -0.421 N
HETATM   19  C18 UNL     1      35.396  44.227   5.820  1.00  0.00     0.117 C
ATOM     20  H1  UNL     1      35.842  44.171   3.726  1.00  0.00     0.153 HD
HETATM   21  C19 UNL     1      34.044  44.541   6.492  1.00  0.00     0.060 C
BRANCH  15  22
HETATM   22  O2  UNL     1      32.678  45.989   5.262  1.00  0.00    -0.386 OA
ATOM     23  H2  UNL     1      33.115  46.458   4.562  1.00  0.00     0.210 HD
ENDBRANCH  15  22
ENDBRANCH   8  15
BRANCH   9  24
HETATM   24  C21 UNL     1      34.399  45.738   9.341  1.00  0.00     0.290 C
BRANCH  24  25
HETATM   25  N2  UNL     1      34.248  44.871  10.518  1.00  0.00     0.081 N
HETATM   26  C22 UNL     1      34.928  45.526  11.663  1.00  0.00     0.309 C
HETATM   27  C23 UNL     1      34.945  43.599  10.379  1.00  0.00     0.309 C
ENDBRANCH  24  25
ENDBRANCH   9  24
BRANCH   1  28
HETATM   28  C6  UNL     1      26.936  47.461   7.710  1.00  0.00    -0.067 C
HETATM   29  C5  UNL     1      25.898  48.039   7.508  1.00  0.00    -0.101 C
BRANCH  29  30
HETATM   30  C4  UNL     1      24.601  48.726   7.271  1.00  0.00     0.094 C
BRANCH  30  31
HETATM   31  C3  UNL     1      24.808  49.729   6.123  1.00  0.00     0.012 C
BRANCH  31  32
HETATM   32  C2  UNL     1      25.955  50.654   6.373  1.00  0.00    -0.004 C
HETATM   33  C1  UNL     1      26.845  50.651   5.138  1.00  0.00     0.005 C
ENDBRANCH  31  32
ENDBRANCH  30  31
ENDBRANCH  29  30
ENDBRANCH   1  28
TORSDOF 9
ENDMDL