MODEL 5
REMARK VINA RESULT: -7.473695542      3.743      6.078
REMARK  8 active torsions:
REMARK  status: ('A' for Active; 'I' for Inactive)
REMARK    1  A    between atoms: C5_6  and  C6_7
REMARK    2  A    between atoms: C6_7  and  N1_8
REMARK    3  A    between atoms: N1_8  and  N2_9
REMARK       I    between atoms: N2_9  and  C7_11
REMARK    4  A    between atoms: C7_11  and  C8_13
REMARK    5  A    between atoms: C18_23  and  O3_24
REMARK    6  A    between atoms: C20_27  and  O4_28
REMARK    7  A    between atoms: O4_28  and  C21_29
REMARK    8  A    between atoms: C21_29  and  C22_30
ROOT
HETATM    1  O1  UNL     1      27.979  44.796  10.195  1.00  0.00    -0.292 OA
HETATM    2  C1  UNL     1      29.009  44.245   9.733  1.00  0.00     0.163 C
HETATM    3  C2  UNL     1      29.642  42.963  10.121  1.00  0.00     0.088 C
HETATM    4  C3  UNL     1      31.057  43.138   9.710  1.00  0.00     0.048 C
HETATM    5  C4  UNL     1      31.025  44.171   8.626  1.00  0.00    -0.026 A
HETATM    6  C5  UNL     1      31.996  44.523   7.680  1.00  0.00     0.035 A
HETATM    7  C18 UNL     1      31.693  45.539   6.787  1.00  0.00     0.081 A
HETATM    8  C19 UNL     1      30.428  46.181   6.857  1.00  0.00     0.075 A
HETATM    9  C20 UNL     1      29.486  45.832   7.782  1.00  0.00     0.086 A
HETATM   10  C23 UNL     1      29.819  44.818   8.656  1.00  0.00     0.050 A
ENDROOT
BRANCH   6  11
HETATM   11  C6  UNL     1      33.259  43.818   7.695  1.00  0.00     0.223 C
BRANCH  11  12
HETATM   12  N1  UNL     1      34.353  44.198   7.574  1.00  0.00    -0.335 NA
BRANCH  12  13
HETATM   13  N2  UNL     1      35.570  44.624   7.443  1.00  0.00    -0.203 N
HETATM   14  C7  UNL     1      35.920  46.001   7.408  1.00  0.00     0.255 C
HETATM   15  O2  UNL     1      34.969  46.852   7.513  1.00  0.00    -0.270 OA
ATOM     16  H2  UNL     1      36.316  43.934   7.360  1.00  0.00     0.205 HD
BRANCH  14  17
HETATM   17  C8  UNL     1      37.327  46.423   7.256  1.00  0.00     0.044 C
HETATM   18  C9  UNL     1      37.757  46.316   5.790  1.00  0.00     0.024 C
HETATM   19  C10 UNL     1      39.224  46.627   5.708  1.00  0.00    -0.013 C
HETATM   20  C11 UNL     1      40.019  45.623   6.528  1.00  0.00     0.009 C
HETATM   21  C15 UNL     1      39.480  48.027   6.177  1.00  0.00     0.009 C
HETATM   22  C12 UNL     1      39.633  45.789   7.981  1.00  0.00    -0.013 C
HETATM   23  C13 UNL     1      39.854  47.198   8.452  1.00  0.00     0.009 C
HETATM   24  C17 UNL     1      38.173  45.491   8.110  1.00  0.00     0.024 C
HETATM   25  C14 UNL     1      39.040  48.145   7.625  1.00  0.00    -0.013 C
HETATM   26  C16 UNL     1      37.566  47.851   7.682  1.00  0.00     0.024 C
ENDBRANCH  14  17
ENDBRANCH  12  13
ENDBRANCH  11  12
ENDBRANCH   6  11
BRANCH   7  27
HETATM   27  O3  UNL     1      32.561  45.932   5.863  1.00  0.00    -0.360 OA
ATOM     28  H3  UNL     1      32.279  46.389   5.079  1.00  0.00     0.217 HD
ENDBRANCH   7  27
BRANCH   9  29
HETATM   29  O4  UNL     1      28.253  46.478   7.829  1.00  0.00    -0.341 OA
BRANCH  29  30
HETATM   30  C21 UNL     1      28.222  47.867   7.981  1.00  0.00     0.293 C
BRANCH  30  31
HETATM   31  C22 UNL     1      27.068  48.525   7.303  1.00  0.00     0.408 C
HETATM   32  F1  UNL     1      25.950  47.738   7.215  1.00  0.00    -0.169 F
HETATM   33  F2  UNL     1      27.419  48.870   6.005  1.00  0.00    -0.169 F
HETATM   34  F3  UNL     1      26.682  49.693   7.957  1.00  0.00    -0.169 F
ENDBRANCH  30  31
ENDBRANCH  29  30
ENDBRANCH   9  29
TORSDOF 8
ENDMDL