MODEL 3
REMARK VINA RESULT: -8.224957015      2.132      3.910
REMARK  6 active torsions:
REMARK  status: ('A' for Active; 'I' for Inactive)
REMARK       I    between atoms: C2_2  and  N1_4
REMARK    1  A    between atoms: N1_4  and  C3_6
REMARK    2  A    between atoms: C5_8  and  S1_9
REMARK    3  A    between atoms: S1_9  and  O4_12
REMARK    4  A    between atoms: O4_12  and  N2_13
REMARK       I    between atoms: N2_13  and  C6_15
REMARK    5  A    between atoms: C6_15  and  C7_17
REMARK    6  A    between atoms: C19_29  and  C20_30
ROOT
HETATM    1  S1  UNL     1      28.399  46.257   8.557  1.00  0.00     0.318 S
HETATM    2  O2  UNL     1      29.289  46.918   9.596  1.00  0.00    -0.191 OA
HETATM    3  O3  UNL     1      27.357  45.385   9.191  1.00  0.00    -0.191 OA
ENDROOT
BRANCH   1   4
HETATM    4  C5  UNL     1      27.654  47.577   7.671  1.00  0.00     0.090 A
HETATM    5  C4  UNL     1      26.288  47.851   7.815  1.00  0.00     0.056 A
HETATM    6  C3  UNL     1      25.617  48.853   7.153  1.00  0.00     0.051 A
HETATM    7  C19 UNL     1      26.378  49.640   6.278  1.00  0.00     0.074 A
HETATM    8  C18 UNL     1      27.746  49.386   6.116  1.00  0.00     0.020 A
HETATM    9  C17 UNL     1      28.364  48.371   6.805  1.00  0.00     0.027 A
BRANCH   6  10
HETATM   10  N1  UNL     1      24.249  49.133   7.290  1.00  0.00    -0.327 N
HETATM   11  C2  UNL     1      23.208  48.341   6.833  1.00  0.00     0.218 C
HETATM   12  C1  UNL     1      21.777  48.794   7.064  1.00  0.00     0.117 C
HETATM   13  O1  UNL     1      23.309  47.264   6.235  1.00  0.00    -0.274 OA
ATOM     14  H1  UNL     1      23.998  49.997   7.770  1.00  0.00     0.169 HD
ENDBRANCH   6  10
BRANCH   7  15
HETATM   15  C20 UNL     1      25.805  50.743   5.497  1.00  0.00     0.419 C
HETATM   16  F1  UNL     1      24.809  50.376   4.619  1.00  0.00    -0.166 F
HETATM   17  F2  UNL     1      26.821  51.327   4.719  1.00  0.00    -0.166 F
HETATM   18  F3  UNL     1      25.289  51.735   6.329  1.00  0.00    -0.166 F
ENDBRANCH   7  15
ENDBRANCH   1   4
BRANCH   1  19
HETATM   19  O4  UNL     1      29.400  45.435   7.502  1.00  0.00    -0.144 OA
BRANCH  19  20
HETATM   20  N2  UNL     1      30.638  45.415   7.995  1.00  0.00    -0.213 N
HETATM   21  C6  UNL     1      31.135  44.253   8.626  1.00  0.00     0.272 C
HETATM   22  O5  UNL     1      30.364  43.227   8.705  1.00  0.00    -0.266 OA
ATOM     23  H2  UNL     1      31.229  46.243   7.916  1.00  0.00     0.199 HD
BRANCH  21  24
HETATM   24  C7  UNL     1      32.472  44.164   9.188  1.00  0.00     0.009 C
HETATM   25  C8  UNL     1      33.179  45.281   9.305  1.00  0.00    -0.005 C
HETATM   26  C9  UNL     1      34.535  45.187   9.877  1.00  0.00    -0.029 C
HETATM   27  C10 UNL     1      34.513  45.162  11.391  1.00  0.00     0.019 C
HETATM   28  C11 UNL     1      35.274  46.468   9.462  1.00  0.00     0.019 C
HETATM   29  C12 UNL     1      35.293  44.035   9.284  1.00  0.00     0.022 C
HETATM   30  C13 UNL     1      34.520  42.770   9.184  1.00  0.00    -0.043 C
HETATM   31  C14 UNL     1      35.147  41.602   9.910  1.00  0.00     0.015 C
HETATM   32  C15 UNL     1      34.482  42.387   7.697  1.00  0.00     0.015 C
HETATM   33  C16 UNL     1      33.070  42.881   9.614  1.00  0.00     0.052 C
ENDBRANCH  21  24
ENDBRANCH  19  20
ENDBRANCH   1  19
TORSDOF 6
ENDMDL