MODEL 1
REMARK VINA RESULT: -8.240164087      0.000      0.000
REMARK  7 active torsions:
REMARK  status: ('A' for Active; 'I' for Inactive)
REMARK    1  A    between atoms: C1_2  and  C2_3
REMARK       I    between atoms: C1_2  and  N3_24
REMARK    2  A    between atoms: C2_3  and  C3_4
REMARK    3  A    between atoms: C5_7  and  N1_8
REMARK       I    between atoms: N1_8  and  C6_10
REMARK    4  A    between atoms: C6_10  and  C7_12
REMARK    5  A    between atoms: C11_16  and  C12_17
REMARK    6  A    between atoms: N3_24  and  C14_26
REMARK    7  A    between atoms: C17_29  and  N4_30
ROOT
HETATM    1  C3  UNL     1      37.410  45.363   7.717  1.00  0.00     0.026 A
HETATM    2  C4  UNL     1      37.474  45.388   9.094  1.00  0.00     0.078 A
HETATM    3  S1  UNL     1      35.961  46.039   9.505  1.00  0.00    -0.064 SA
HETATM    4  C5  UNL     1      35.335  46.239   7.921  1.00  0.00     0.151 A
HETATM    5  N2  UNL     1      36.312  45.801   7.154  1.00  0.00    -0.339 N
ATOM      6  H2  UNL     1      36.215  45.803   6.139  1.00  0.00     0.168 HD
ENDROOT
BRANCH   1   7
HETATM    7  C2  UNL     1      38.649  44.901   6.968  1.00  0.00     0.160 C
BRANCH   7   8
HETATM    8  C1  UNL     1      38.569  43.490   6.577  1.00  0.00     0.227 C
HETATM    9  O1  UNL     1      37.493  42.993   6.163  1.00  0.00    -0.273 OA
HETATM   10  N3  UNL     1      39.716  42.671   6.677  1.00  0.00    -0.327 N
ATOM     11  H3  UNL     1      40.580  43.102   7.005  1.00  0.00     0.169 HD
BRANCH  10  12
HETATM   12  C14 UNL     1      39.751  41.279   6.350  1.00  0.00     0.034 A
HETATM   13  C15 UNL     1      39.488  40.323   7.338  1.00  0.00     0.032 A
HETATM   14  C16 UNL     1      39.517  38.988   7.061  1.00  0.00     0.038 A
HETATM   15  C17 UNL     1      39.813  38.550   5.781  1.00  0.00     0.103 A
HETATM   16  C18 UNL     1      40.080  39.462   4.771  1.00  0.00     0.038 A
HETATM   17  C19 UNL     1      40.038  40.813   5.099  1.00  0.00     0.032 A
BRANCH  15  18
HETATM   18  N4  UNL     1      39.881  37.167   5.516  1.00  0.00    -0.116 N
HETATM   19  O3  UNL     1      38.847  36.529   5.256  1.00  0.00    -0.532 OA
HETATM   20  O4  UNL     1      41.086  36.523   5.520  1.00  0.00    -0.532 OA
ENDBRANCH  15  18
ENDBRANCH  10  12
ENDBRANCH   7   8
ENDBRANCH   1   7
BRANCH   4  21
HETATM   21  N1  UNL     1      34.148  46.760   7.581  1.00  0.00    -0.303 N
HETATM   22  C6  UNL     1      33.313  45.769   6.887  1.00  0.00     0.257 C
HETATM   23  O2  UNL     1      33.582  45.464   5.732  1.00  0.00    -0.267 OA
ATOM     24  H1  UNL     1      33.862  47.718   7.778  1.00  0.00     0.171 HD
BRANCH  22  25
HETATM   25  C7  UNL     1      32.195  45.182   7.619  1.00  0.00     0.033 A
HETATM   26  C8  UNL     1      32.154  43.860   8.011  1.00  0.00     0.017 A
HETATM   27  C9  UNL     1      31.064  43.267   8.591  1.00  0.00     0.002 A
HETATM   28  C10 UNL     1      29.911  44.022   8.806  1.00  0.00     0.016 A
HETATM   29  C11 UNL     1      29.909  45.351   8.427  1.00  0.00     0.048 A
HETATM   30  C13 UNL     1      31.023  45.902   7.852  1.00  0.00     0.033 A
BRANCH  29  31
HETATM   31  C12 UNL     1      28.664  46.135   8.617  1.00  0.00     0.417 C
HETATM   32  F1  UNL     1      28.470  46.899   7.458  1.00  0.00    -0.166 F
HETATM   33  F2  UNL     1      27.582  45.277   8.808  1.00  0.00    -0.166 F
HETATM   34  F3  UNL     1      28.844  47.000   9.656  1.00  0.00    -0.166 F
ENDBRANCH  29  31
ENDBRANCH  22  25
ENDBRANCH   4  21
TORSDOF 7
ENDMDL