MODEL 4
REMARK VINA RESULT: -8.725997855      2.496      5.410
REMARK  5 active torsions:
REMARK  status: ('A' for Active; 'I' for Inactive)
REMARK    1  A    between atoms: N2_10  and  C7_11
REMARK    2  A    between atoms: C8_14  and  C9_15
REMARK    3  A    between atoms: C12_18  and  N4_19
REMARK    4  A    between atoms: N4_19  and  C13_20
REMARK    5  A    between atoms: C26_38  and  N8_39
ROOT
HETATM    1  C7  UNL     1      21.165 -34.677  -3.301  1.00  0.00     0.696 A
HETATM    2  N3  UNL     1      21.274 -35.343  -4.463  1.00  0.00    -0.175 N
ATOM      3  H3  UNL     1      20.466 -35.390  -5.084  1.00  0.00     0.186 HD
HETATM    4  C8  UNL     1      22.417 -35.948  -4.833  1.00  0.00     0.146 A
HETATM    5  N7  UNL     1      23.464 -35.868  -4.000  1.00  0.00    -0.175 N
ATOM      6  H7  UNL     1      24.336 -36.323  -4.270  1.00  0.00     0.186 HD
HETATM    7  C26 UNL     1      23.418 -35.218  -2.827  1.00  0.00     0.696 A
HETATM    8  N10 UNL     1      22.249 -34.636  -2.517  1.00  0.00    -0.022 N
ATOM      9  H10 UNL     1      22.182 -34.134  -1.632  1.00  0.00     0.203 HD
ENDROOT
BRANCH   4  10
HETATM   10  C9  UNL     1      22.475 -36.650  -6.108  1.00  0.00     0.009 A
HETATM   11  C10 UNL     1      22.114 -35.997  -7.267  1.00  0.00     0.018 A
HETATM   12  C11 UNL     1      22.147 -36.622  -8.470  1.00  0.00     0.045 A
HETATM   13  C12 UNL     1      22.556 -37.986  -8.598  1.00  0.00     0.109 A
HETATM   14  C24 UNL     1      22.914 -38.607  -7.391  1.00  0.00     0.045 A
HETATM   15  C25 UNL     1      22.876 -37.963  -6.190  1.00  0.00     0.018 A
BRANCH  13  16
HETATM   16  N4  UNL     1      22.572 -38.579  -9.770  1.00  0.00    -0.385 NA
BRANCH  16  17
HETATM   17  C13 UNL     1      22.593 -39.118 -10.829  1.00  0.00     0.207 A
HETATM   18  N5  UNL     1      22.951 -40.449 -10.944  1.00  0.00    -0.327 N
HETATM   19  C14 UNL     1      23.013 -41.109 -12.083  1.00  0.00     0.062 A
ATOM     20  H5  UNL     1      23.183 -40.953 -10.089  1.00  0.00     0.168 HD
HETATM   21  C15 UNL     1      23.387 -42.453 -12.138  1.00  0.00     0.032 A
HETATM   22  C19 UNL     1      22.697 -40.418 -13.229  1.00  0.00     0.066 A
HETATM   23  C16 UNL     1      23.454 -43.130 -13.328  1.00  0.00     0.002 A
HETATM   24  C17 UNL     1      23.137 -42.442 -14.484  1.00  0.00     0.002 A
HETATM   25  C18 UNL     1      22.768 -41.112 -14.413  1.00  0.00     0.032 A
HETATM   26  N6  UNL     1      22.337 -39.130 -13.225  1.00  0.00    -0.316 N
HETATM   27  C20 UNL     1      21.986 -38.257 -14.200  1.00  0.00     0.098 A
HETATM   28  C23 UNL     1      22.283 -38.483 -12.053  1.00  0.00     0.098 A
HETATM   29  C21 UNL     1      21.697 -37.031 -13.678  1.00  0.00     0.020 A
HETATM   30  C22 UNL     1      21.892 -37.187 -12.295  1.00  0.00     0.036 A
ENDBRANCH  16  17
ENDBRANCH  13  16
ENDBRANCH   4  10
BRANCH   1  31
HETATM   31  N2  UNL     1      19.918 -34.070  -2.993  1.00  0.00    -0.216 N
HETATM   32  C6  UNL     1      18.942 -34.796  -2.165  1.00  0.00     0.142 C
HETATM   33  C5  UNL     1      17.782 -33.899  -1.946  1.00  0.00     0.041 C
HETATM   34  C4  UNL     1      18.001 -32.721  -2.862  1.00  0.00     0.060 C
HETATM   35  C1  UNL     1      17.029 -32.673  -3.955  1.00  0.00     0.228 C
HETATM   36  C3  UNL     1      17.738 -31.481  -2.072  1.00  0.00     0.041 C
HETATM   37  C31 UNL     1      19.418 -32.795  -3.379  1.00  0.00     0.160 C
HETATM   38  O1  UNL     1      16.840 -33.546  -4.843  1.00  0.00    -0.273 OA
HETATM   39  N1  UNL     1      16.283 -31.466  -3.901  1.00  0.00    -0.360 N
HETATM   40  C2  UNL     1      16.979 -30.546  -2.995  1.00  0.00     0.124 C
ATOM     41  H1  UNL     1      15.416 -31.274  -4.402  1.00  0.00     0.162 HD
ENDBRANCH   1  31
BRANCH   7  42
HETATM   42  N8  UNL     1      24.547 -35.151  -1.966  1.00  0.00    -0.214 N
HETATM   43  C27 UNL     1      24.872 -36.247  -1.075  1.00  0.00     0.168 C
HETATM   44  C28 UNL     1      25.065 -35.703   0.321  1.00  0.00     0.252 C
HETATM   45  N9  UNL     1      26.110 -34.697   0.288  1.00  0.00    -0.072 N
HETATM   46  C29 UNL     1      25.567 -33.566  -0.472  1.00  0.00     0.252 C
ATOM     47  H92 UNL     1      26.451 -34.437   1.214  1.00  0.00     0.277 HD
ATOM     48  H91 UNL     1      26.996 -35.045  -0.079  1.00  0.00     0.277 HD
HETATM   49  C30 UNL     1      25.420 -33.993  -1.925  1.00  0.00     0.168 C
ENDBRANCH   7  42
TORSDOF 5
ENDMDL