MODEL 2
REMARK VINA RESULT: -8.303670365      0.569      1.139
REMARK  8 active torsions:
REMARK  status: ('A' for Active; 'I' for Inactive)
REMARK    1  A    between atoms: C4_7  and  C5_8
REMARK    2  A    between atoms: C9_18  and  C10_19
REMARK    3  A    between atoms: C11_20  and  C12_21
REMARK    4  A    between atoms: C12_21  and  O1_22
REMARK    5  A    between atoms: C15_28  and  N7_29
REMARK    6  A    between atoms: N7_29  and  C16_31
REMARK    7  A    between atoms: C19_34  and  N8_35
REMARK    8  A    between atoms: C22_38  and  N9_39
ROOT
HETATM    1  C1  UNL     1      24.120 -34.078  -1.260  1.00  0.00     0.178 C
HETATM    2  N1  UNL     1      22.811 -33.994  -1.927  1.00  0.00    -0.292 N
HETATM    3  N2  UNL     1      21.667 -34.482  -1.482  1.00  0.00    -0.309 N
ATOM      4  H2  UNL     1      21.561 -34.985  -0.600  1.00  0.00     0.186 HD
HETATM    5  C2  UNL     1      20.658 -34.232  -2.338  1.00  0.00     0.122 A
HETATM    6  C3  UNL     1      21.194 -33.526  -3.422  1.00  0.00     0.027 A
HETATM    7  C4  UNL     1      20.659 -33.013  -4.578  1.00  0.00     0.021 A
HETATM    8  C14 UNL     1      21.498 -32.361  -5.445  1.00  0.00     0.104 A
HETATM    9  N6  UNL     1      22.810 -32.247  -5.136  1.00  0.00    -0.349 N
ATOM     10  H6  UNL     1      23.418 -31.759  -5.793  1.00  0.00     0.166 HD
HETATM   11  C15 UNL     1      23.358 -32.740  -4.013  1.00  0.00     0.135 A
HETATM   12  C31 UNL     1      22.539 -33.410  -3.106  1.00  0.00     0.107 A
ENDROOT
BRANCH  11  13
HETATM   13  N7  UNL     1      24.579 -32.640  -3.716  1.00  0.00    -0.341 N
ATOM     14  H7  UNL     1      24.830 -31.862  -3.106  1.00  0.00     0.167 HD
BRANCH  13  15
HETATM   15  C16 UNL     1      25.645 -33.481  -4.132  1.00  0.00     0.033 A
HETATM   16  C17 UNL     1      25.395 -34.731  -4.655  1.00  0.00     0.032 A
HETATM   17  C18 UNL     1      26.421 -35.577  -5.077  1.00  0.00     0.031 A
HETATM   18  C19 UNL     1      27.746 -35.221  -4.999  1.00  0.00     0.030 A
HETATM   19  C29 UNL     1      27.980 -33.945  -4.463  1.00  0.00     0.031 A
HETATM   20  C30 UNL     1      26.968 -33.111  -4.048  1.00  0.00     0.032 A
BRANCH  18  21
HETATM   21  N8  UNL     1      28.800 -36.048  -5.410  1.00  0.00    -0.381 N
HETATM   22  C20 UNL     1      29.963 -36.311  -4.629  1.00  0.00     0.125 C
HETATM   23  C21 UNL     1      30.023 -37.765  -4.178  1.00  0.00     0.055 C
HETATM   24  C22 UNL     1      29.395 -38.650  -5.244  1.00  0.00     0.226 C
HETATM   25  C27 UNL     1      29.564 -38.011  -6.607  1.00  0.00     0.055 C
HETATM   26  C28 UNL     1      28.743 -36.718  -6.709  1.00  0.00     0.125 C
BRANCH  24  27
HETATM   27  N9  UNL     1      29.838 -39.997  -5.222  1.00  0.00     0.097 N
HETATM   28  C23 UNL     1      30.451 -40.428  -4.008  1.00  0.00     0.299 C
HETATM   29  C24 UNL     1      31.180 -41.745  -4.310  1.00  0.00     0.198 C
HETATM   30  O2  UNL     1      30.179 -42.674  -4.605  1.00  0.00    -0.388 OA
HETATM   31  C25 UNL     1      29.500 -42.313  -5.767  1.00  0.00     0.198 C
HETATM   32  C26 UNL     1      28.839 -40.945  -5.626  1.00  0.00     0.299 C
ENDBRANCH  24  27
ENDBRANCH  18  21
ENDBRANCH  13  15
ENDBRANCH  11  13
BRANCH   7  33
HETATM   33  C5  UNL     1      19.231 -33.080  -4.798  1.00  0.00     0.061 A
HETATM   34  N3  UNL     1      18.412 -32.205  -4.125  1.00  0.00    -0.351 N
HETATM   35  C6  UNL     1      17.101 -32.164  -4.242  1.00  0.00     0.182 A
ATOM     36  H3  UNL     1      18.851 -31.538  -3.490  1.00  0.00     0.166 HD
HETATM   37  N4  UNL     1      16.509 -33.023  -5.061  1.00  0.00    -0.338 N
HETATM   38  C7  UNL     1      17.255 -33.912  -5.749  1.00  0.00     0.120 A
ATOM     39  H4  UNL     1      15.494 -33.010  -5.170  1.00  0.00     0.168 HD
HETATM   40  N5  UNL     1      16.896 -34.867  -6.594  1.00  0.00    -0.350 N
HETATM   41  C13 UNL     1      18.650 -33.967  -5.634  1.00  0.00     0.056 A
HETATM   42  C8  UNL     1      17.935 -35.555  -7.046  1.00  0.00     0.111 A
ATOM     43  H5  UNL     1      15.930 -35.052  -6.865  1.00  0.00     0.166 HD
HETATM   44  C9  UNL     1      19.065 -34.982  -6.432  1.00  0.00     0.049 A
BRANCH  44  45
HETATM   45  C10 UNL     1      20.410 -35.465  -6.603  1.00  0.00    -0.062 C
HETATM   46  C11 UNL     1      21.552 -35.873  -6.698  1.00  0.00    -0.075 C
BRANCH  46  47
HETATM   47  C12 UNL     1      22.938 -36.368  -6.806  1.00  0.00     0.258 C
BRANCH  47  48
HETATM   48  O1  UNL     1      23.144 -37.423  -5.895  1.00  0.00    -0.389 OA
ATOM     49  H1  UNL     1      22.990 -37.121  -5.008  1.00  0.00     0.210 HD
ENDBRANCH  47  48
ENDBRANCH  46  47
ENDBRANCH  44  45
ENDBRANCH   7  33
TORSDOF 8
ENDMDL