MODEL 2
REMARK VINA RESULT: -8.259716416      7.685     11.802
REMARK  5 active torsions:
REMARK  status: ('A' for Active; 'I' for Inactive)
REMARK    1  A    between atoms: C4_7  and  N3_8
REMARK       I    between atoms: N3_8  and  C5_10
REMARK       I    between atoms: C5_10  and  N4_12
REMARK    2  A    between atoms: N4_12  and  C6_14
REMARK    3  A    between atoms: C9_17  and  C10_18
REMARK    4  A    between atoms: C11_21  and  N6_22
REMARK    5  A    between atoms: C16_30  and  N8_31
ROOT
HETATM    1  N1  UNL     1      24.079 -44.558 -15.208  1.00  0.00    -0.191 NA
HETATM    2  C1  UNL     1      23.635 -43.536 -14.882  1.00  0.00     0.101 C
HETATM    3  C2  UNL     1      23.098 -42.274 -14.466  1.00  0.00     0.071 A
HETATM    4  C3  UNL     1      23.869 -41.152 -14.251  1.00  0.00     0.113 A
HETATM    5  N2  UNL     1      23.343 -39.970 -13.857  1.00  0.00    -0.350 N
ATOM      6  H2  UNL     1      23.973 -39.180 -13.718  1.00  0.00     0.166 HD
HETATM    7  C4  UNL     1      22.031 -39.790 -13.640  1.00  0.00     0.120 A
HETATM    8  C25 UNL     1      21.217 -40.922 -13.853  1.00  0.00     0.020 A
HETATM    9  C26 UNL     1      19.857 -40.756 -13.634  1.00  0.00     0.016 A
HETATM   10  C27 UNL     1      19.025 -41.852 -13.834  1.00  0.00     0.001 A
HETATM   11  C28 UNL     1      19.568 -43.054 -14.237  1.00  0.00     0.001 A
HETATM   12  C29 UNL     1      20.918 -43.237 -14.458  1.00  0.00     0.014 A
HETATM   13  C30 UNL     1      21.739 -42.123 -14.252  1.00  0.00    -0.000 A
ENDROOT
BRANCH   7  14
HETATM   14  N3  UNL     1      21.483 -38.709 -13.249  1.00  0.00    -0.294 N
HETATM   15  C5  UNL     1      21.421 -38.047 -12.051  1.00  0.00     0.326 C
HETATM   16  O1  UNL     1      21.636 -36.774 -12.072  1.00  0.00    -0.247 OA
HETATM   17  N4  UNL     1      21.134 -38.699 -10.830  1.00  0.00    -0.309 N
ATOM     18  H4  UNL     1      20.977 -39.707 -10.836  1.00  0.00     0.170 HD
ATOM     19  H3  UNL     1      20.978 -38.228 -13.994  1.00  0.00     0.172 HD
BRANCH  17  20
HETATM   20  C6  UNL     1      21.058 -38.003  -9.603  1.00  0.00     0.036 A
HETATM   21  C7  UNL     1      22.222 -37.980  -8.812  1.00  0.00     0.030 A
HETATM   22  C8  UNL     1      22.242 -37.350  -7.584  1.00  0.00     0.017 A
HETATM   23  C9  UNL     1      21.140 -36.728  -7.090  1.00  0.00     0.009 A
HETATM   24  C23 UNL     1      19.997 -36.744  -7.851  1.00  0.00     0.017 A
HETATM   25  C24 UNL     1      19.963 -37.379  -9.099  1.00  0.00     0.030 A
BRANCH  23  26
HETATM   26  C10 UNL     1      21.143 -36.046  -5.821  1.00  0.00     0.146 A
HETATM   27  N5  UNL     1      20.194 -35.109  -5.526  1.00  0.00    -0.175 N
HETATM   28  C11 UNL     1      20.165 -34.441  -4.374  1.00  0.00     0.696 A
ATOM     29  H5  UNL     1      19.473 -34.912  -6.220  1.00  0.00     0.186 HD
HETATM   30  N7  UNL     1      21.103 -34.688  -3.455  1.00  0.00    -0.022 N
HETATM   31  C16 UNL     1      22.086 -35.608  -3.678  1.00  0.00     0.696 A
ATOM     32  H7  UNL     1      21.085 -34.180  -2.571  1.00  0.00     0.203 HD
HETATM   33  N9  UNL     1      22.070 -36.254  -4.850  1.00  0.00    -0.175 N
ATOM     34  H9  UNL     1      22.800 -36.945  -5.025  1.00  0.00     0.186 HD
BRANCH  28  35
HETATM   35  N6  UNL     1      19.171 -33.489  -4.123  1.00  0.00    -0.213 N
HETATM   36  C12 UNL     1      18.820 -33.016  -2.798  1.00  0.00     0.167 C
HETATM   37  C13 UNL     1      17.872 -31.867  -2.914  1.00  0.00     0.188 C
HETATM   38  O2  UNL     1      16.759 -32.105  -3.679  1.00  0.00    -0.388 OA
HETATM   39  C14 UNL     1      16.982 -32.847  -4.822  1.00  0.00     0.188 C
HETATM   40  C15 UNL     1      18.428 -32.911  -5.224  1.00  0.00     0.167 C
ENDBRANCH  28  35
BRANCH  31  41
HETATM   41  N8  UNL     1      23.091 -35.846  -2.709  1.00  0.00    -0.214 N
HETATM   42  C17 UNL     1      24.233 -36.734  -2.700  1.00  0.00     0.144 C
HETATM   43  C18 UNL     1      25.320 -35.716  -2.294  1.00  0.00     0.060 C
HETATM   44  C19 UNL     1      24.642 -35.109  -1.074  1.00  0.00     0.081 C
HETATM   45  C20 UNL     1      25.044 -35.747   0.211  1.00  0.00     0.066 C
HETATM   46  O3  UNL     1      25.074 -33.872  -0.676  1.00  0.00    -0.378 OA
HETATM   47  C22 UNL     1      23.165 -35.152  -1.425  1.00  0.00     0.179 C
HETATM   48  C21 UNL     1      25.787 -34.450   0.359  1.00  0.00     0.172 C
ENDBRANCH  31  41
ENDBRANCH  23  26
ENDBRANCH  17  20
ENDBRANCH   7  14
TORSDOF 5
ENDMDL