MODEL 4
REMARK VINA RESULT: -8.523680344      3.822     10.886
REMARK  5 active torsions:
REMARK  status: ('A' for Active; 'I' for Inactive)
REMARK    1  A    between atoms: N2_6  and  C5_7
REMARK    2  A    between atoms: C7_9  and  C8_10
REMARK    3  A    between atoms: C11_15  and  C12_16
REMARK    4  A    between atoms: C14_20  and  N5_21
REMARK    5  A    between atoms: C20_32  and  N7_33
ROOT
HETATM    1  C5  UNL     1      21.446 -35.601  -7.696  1.00  0.00     0.033 A
HETATM    2  C6  UNL     1      22.462 -34.752  -7.313  1.00  0.00     0.041 A
HETATM    3  C7  UNL     1      22.300 -33.778  -6.341  1.00  0.00    -0.020 A
HETATM    4  C19 UNL     1      21.044 -33.659  -5.730  1.00  0.00     0.041 A
HETATM    5  C20 UNL     1      20.011 -34.494  -6.094  1.00  0.00     0.033 A
HETATM    6  C24 UNL     1      20.231 -35.445  -7.065  1.00  0.00     0.058 A
ENDROOT
BRANCH   3   7
HETATM    7  C8  UNL     1      23.391 -32.900  -5.961  1.00  0.00    -0.009 A
HETATM    8  C9  UNL     1      23.224 -31.588  -5.544  1.00  0.00     0.100 A
HETATM    9  N3  UNL     1      24.216 -30.769  -5.193  1.00  0.00    -0.363 N
HETATM   10  C10 UNL     1      25.529 -31.176  -5.219  1.00  0.00     0.061 A
ATOM     11  H3  UNL     1      23.996 -29.817  -4.900  1.00  0.00     0.165 HD
HETATM   12  C11 UNL     1      26.606 -30.422  -4.882  1.00  0.00     0.011 A
HETATM   13  C17 UNL     1      25.758 -32.454  -5.621  1.00  0.00     0.033 A
HETATM   14  C16 UNL     1      27.833 -31.022  -4.979  1.00  0.00     0.065 A
HETATM   15  S1  UNL     1      27.456 -32.590  -5.526  1.00  0.00    -0.099 SA
HETATM   16  C18 UNL     1      24.707 -33.315  -5.991  1.00  0.00     0.034 A
BRANCH  12  17
HETATM   17  C12 UNL     1      26.537 -28.998  -4.420  1.00  0.00     0.009 A
HETATM   18  C13 UNL     1      26.480 -28.724  -3.076  1.00  0.00     0.120 A
HETATM   19  N4  UNL     1      26.417 -27.435  -2.692  1.00  0.00    -0.201 N
HETATM   20  C14 UNL     1      26.412 -26.427  -3.595  1.00  0.00     0.675 A
ATOM     21  H4  UNL     1      26.373 -27.213  -1.698  1.00  0.00     0.183 HD
HETATM   22  N6  UNL     1      26.467 -26.683  -4.911  1.00  0.00    -0.201 N
HETATM   23  C15 UNL     1      26.529 -27.953  -5.313  1.00  0.00     0.120 A
ATOM     24  H6  UNL     1      26.462 -25.922  -5.589  1.00  0.00     0.183 HD
BRANCH  20  25
HETATM   25  N5  UNL     1      26.352 -25.190  -3.224  1.00  0.00    -0.234 N
ATOM     26  H52 UNL     1      26.682 -24.958  -2.286  1.00  0.00     0.174 HD
ATOM     27  H51 UNL     1      25.989 -24.465  -3.843  1.00  0.00     0.174 HD
ENDBRANCH  20  25
ENDBRANCH  12  17
ENDBRANCH   3   7
BRANCH   1  28
HETATM   28  N2  UNL     1      21.646 -36.613  -8.718  1.00  0.00    -0.381 N
HETATM   29  C4  UNL     1      21.023 -36.466  -9.989  1.00  0.00     0.125 C
HETATM   30  C3  UNL     1      20.984 -37.674 -10.856  1.00  0.00     0.048 C
HETATM   31  C2  UNL     1      22.361 -38.347 -10.792  1.00  0.00     0.048 C
HETATM   32  N1  UNL     1      22.387 -39.503 -11.649  1.00  0.00    -0.186 NA
HETATM   33  C26 UNL     1      22.541 -38.796  -9.381  1.00  0.00     0.048 C
HETATM   34  C27 UNL     1      23.355 -37.350 -11.267  1.00  0.00     0.159 C
HETATM   35  C1  UNL     1      21.394 -39.458 -12.695  1.00  0.00     0.132 C
HETATM   36  S2  UNL     1      24.002 -39.479 -12.319  1.00  0.00     0.299 S
HETATM   37  N8  UNL     1      24.598 -38.024 -11.554  1.00  0.00    -0.305 N
HETATM   38  O1  UNL     1      24.796 -40.658 -11.897  1.00  0.00    -0.188 OA
HETATM   39  O2  UNL     1      23.941 -39.306 -13.812  1.00  0.00    -0.188 OA
ATOM     40  H8  UNL     1      25.558 -37.733 -11.364  1.00  0.00     0.173 HD
HETATM   41  C25 UNL     1      22.479 -37.712  -8.373  1.00  0.00     0.125 C
ENDBRANCH   1  28
BRANCH   5  42
HETATM   42  N7  UNL     1      18.759 -34.341  -5.451  1.00  0.00    -0.381 N
HETATM   43  C21 UNL     1      17.371 -34.555  -5.797  1.00  0.00     0.124 C
HETATM   44  C22 UNL     1      17.007 -33.491  -4.782  1.00  0.00     0.040 C
HETATM   45  C23 UNL     1      18.329 -33.899  -4.149  1.00  0.00     0.124 C
ENDBRANCH   5  42
TORSDOF 5
ENDMDL