MODEL 2
REMARK VINA RESULT: -8.401343184      1.035      1.253
REMARK  8 active torsions:
REMARK  status: ('A' for Active; 'I' for Inactive)
REMARK    1  A    between atoms: C2_2  and  C5_5
REMARK    2  A    between atoms: C5_5  and  N2_9
REMARK    3  A    between atoms: C8_12  and  N3_13
REMARK    4  A    between atoms: C11_16  and  O1_17
REMARK    5  A    between atoms: N4_22  and  C15_23
REMARK    6  A    between atoms: C16_26  and  N6_27
REMARK    7  A    between atoms: C17_32  and  N8_33
REMARK    8  A    between atoms: N9_36  and  C20_37
ROOT
HETATM    1  N2  UNL     1      22.218 -36.020  -6.942  1.00  0.00    -0.369 N
HETATM    2  C6  UNL     1      21.981 -34.593  -6.841  1.00  0.00     0.126 C
HETATM    3  C7  UNL     1      20.538 -34.286  -6.505  1.00  0.00     0.055 C
HETATM    4  C8  UNL     1      20.415 -33.185  -5.488  1.00  0.00     0.226 C
HETATM    5  C13 UNL     1      21.088 -33.496  -4.183  1.00  0.00     0.056 C
HETATM    6  C14 UNL     1      20.888 -34.871  -3.681  1.00  0.00     0.143 C
HETATM    7  N4  UNL     1      22.104 -35.667  -3.754  1.00  0.00    -0.215 N
HETATM    8  C28 UNL     1      22.222 -36.826  -4.605  1.00  0.00     0.161 C
HETATM    9  C29 UNL     1      23.013 -36.612  -5.852  1.00  0.00     0.144 C
ENDROOT
BRANCH   7  10
HETATM   10  C15 UNL     1      23.206 -35.273  -2.932  1.00  0.00     0.709 A
HETATM   11  N5  UNL     1      23.555 -35.976  -1.836  1.00  0.00    -0.022 N
HETATM   12  C16 UNL     1      24.563 -35.678  -1.028  1.00  0.00     0.705 A
ATOM     13  H5  UNL     1      23.001 -36.803  -1.611  1.00  0.00     0.203 HD
HETATM   14  N7  UNL     1      25.299 -34.598  -1.308  1.00  0.00    -0.022 N
HETATM   15  C17 UNL     1      25.014 -33.842  -2.387  1.00  0.00     0.709 A
ATOM     16  H7  UNL     1      26.080 -34.345  -0.703  1.00  0.00     0.203 HD
HETATM   17  N10 UNL     1      23.964 -34.193  -3.189  1.00  0.00    -0.021 N
ATOM     18  H10 UNL     1      23.750 -33.620  -4.005  1.00  0.00     0.203 HD
BRANCH  12  19
HETATM   19  N6  UNL     1      24.804 -36.429   0.003  1.00  0.00    -0.234 N
ATOM     20  H62 UNL     1      24.244 -36.377   0.854  1.00  0.00     0.174 HD
ATOM     21  H61 UNL     1      25.573 -37.098  -0.029  1.00  0.00     0.174 HD
ENDBRANCH  12  19
BRANCH  15  22
HETATM   22  N8  UNL     1      25.785 -32.700  -2.693  1.00  0.00    -0.214 N
HETATM   23  C18 UNL     1      25.636 -31.501  -1.914  1.00  0.00     0.160 C
HETATM   24  C19 UNL     1      26.337 -30.358  -2.663  1.00  0.00     0.137 C
HETATM   25  N9  UNL     1      25.975 -30.419  -4.037  1.00  0.00    -0.405 N
HETATM   26  C26 UNL     1      26.308 -31.606  -4.741  1.00  0.00     0.137 C
HETATM   27  C27 UNL     1      26.731 -32.689  -3.774  1.00  0.00     0.160 C
BRANCH  25  28
HETATM   28  C20 UNL     1      26.125 -29.214  -4.774  1.00  0.00     0.079 C
HETATM   29  C21 UNL     1      26.077 -27.948  -3.958  1.00  0.00     0.025 C
HETATM   30  C22 UNL     1      26.743 -26.863  -4.777  1.00  0.00     0.002 C
HETATM   31  C23 UNL     1      26.780 -27.206  -6.229  1.00  0.00     0.000 C
HETATM   32  C24 UNL     1      25.462 -27.826  -6.675  1.00  0.00     0.002 C
HETATM   33  C25 UNL     1      25.140 -29.088  -5.888  1.00  0.00     0.025 C
ENDBRANCH  25  28
ENDBRANCH  15  22
ENDBRANCH   7  10
BRANCH   4  34
HETATM   34  N3  UNL     1      19.020 -32.810  -5.348  1.00  0.00     0.095 N
HETATM   35  C9  UNL     1      18.161 -33.967  -5.510  1.00  0.00     0.275 C
HETATM   36  C10 UNL     1      16.933 -33.546  -4.703  1.00  0.00     0.064 C
HETATM   37  C11 UNL     1      17.585 -32.988  -3.457  1.00  0.00     0.148 C
HETATM   38  C12 UNL     1      18.830 -32.354  -3.987  1.00  0.00     0.304 C
BRANCH  37  39
HETATM   39  O1  UNL     1      17.880 -34.060  -2.602  1.00  0.00    -0.394 OA
ATOM     40  H1  UNL     1      18.210 -33.704  -1.786  1.00  0.00     0.210 HD
ENDBRANCH  37  39
ENDBRANCH   4  34
BRANCH   1  41
HETATM   41  C5  UNL     1      21.729 -36.824  -8.006  1.00  0.00     0.080 C
HETATM   42  N1  UNL     1      20.696 -37.587  -7.883  1.00  0.00    -0.388 N
ATOM     43  H12 UNL     1      20.344 -38.164  -8.647  1.00  0.00     0.157 HD
ATOM     44  H11 UNL     1      20.264 -37.571  -6.958  1.00  0.00     0.157 HD
BRANCH  41  45
HETATM   45  C2  UNL     1      22.367 -36.848  -9.370  1.00  0.00     0.007 C
HETATM   46  C1  UNL     1      23.611 -35.995  -9.430  1.00  0.00     0.022 C
HETATM   47  C3  UNL     1      22.791 -38.276  -9.676  1.00  0.00     0.022 C
HETATM   48  C4  UNL     1      21.423 -36.383 -10.442  1.00  0.00     0.022 C
ENDBRANCH  41  45
ENDBRANCH   1  41
TORSDOF 8
ENDMDL