MODEL 5
REMARK VINA RESULT: -7.845565357      6.025      7.949
REMARK  5 active torsions:
REMARK  status: ('A' for Active; 'I' for Inactive)
REMARK    1  A    between atoms: N2_12  and  C11_13
REMARK    2  A    between atoms: C13_17  and  C14_18
REMARK    3  A    between atoms: C16_20  and  C17_21
REMARK    4  A    between atoms: C22_31  and  N7_32
REMARK    5  A    between atoms: N10_43  and  C26_44
ROOT
HETATM    1  C11 UNL     1      25.708 -30.579  -5.118  1.00  0.00     0.119 A
HETATM    2  C12 UNL     1      24.801 -31.396  -5.815  1.00  0.00     0.137 A
HETATM    3  N3  UNL     1      23.968 -32.216  -5.177  1.00  0.00    -0.360 N
ATOM      4  H3  UNL     1      23.328 -32.788  -5.729  1.00  0.00     0.165 HD
HETATM    5  C13 UNL     1      23.933 -32.325  -3.814  1.00  0.00     0.061 A
HETATM    6  C23 UNL     1      24.803 -31.539  -3.131  1.00  0.00     0.120 A
HETATM    7  N8  UNL     1      25.653 -30.702  -3.801  1.00  0.00    -0.349 N
ATOM      8  H8  UNL     1      26.290 -30.131  -3.245  1.00  0.00     0.167 HD
ENDROOT
BRANCH   1   9
HETATM    9  N2  UNL     1      26.605 -29.744  -5.825  1.00  0.00    -0.356 N
HETATM   10  C4  UNL     1      28.032 -29.722  -5.807  1.00  0.00     0.040 C
HETATM   11  C3  UNL     1      28.746 -30.738  -5.003  1.00  0.00     0.050 C
HETATM   12  C5  UNL     1      28.463 -29.779  -7.280  1.00  0.00     0.050 C
HETATM   13  C7  UNL     1      28.483 -28.363  -5.298  1.00  0.00     0.072 C
HETATM   14  C2  UNL     1      29.280 -31.910  -5.735  1.00  0.00     0.118 C
HETATM   15  N1  UNL     1      29.949 -31.617  -6.966  1.00  0.00    -0.416 N
HETATM   16  C1  UNL     1      29.777 -32.602  -7.989  1.00  0.00     0.143 C
HETATM   17  C6  UNL     1      29.887 -30.264  -7.392  1.00  0.00     0.118 C
HETATM   18  C8  UNL     1      27.526 -27.256  -5.387  1.00  0.00     0.119 C
HETATM   19  C9  UNL     1      26.464 -27.367  -6.447  1.00  0.00     0.061 C
HETATM   20  C24 UNL     1      26.823 -27.036  -4.054  1.00  0.00     0.247 C
HETATM   21  N10 UNL     1      28.141 -25.965  -5.539  1.00  0.00    -0.346 N
HETATM   22  C10 UNL     1      26.023 -28.745  -6.772  1.00  0.00     0.128 C
HETATM   23  O1  UNL     1      26.701 -27.768  -3.077  1.00  0.00    -0.271 OA
HETATM   24  N9  UNL     1      26.307 -25.723  -4.193  1.00  0.00    -0.343 N
HETATM   25  C25 UNL     1      27.122 -24.980  -5.124  1.00  0.00     0.250 C
ATOM     26  H9  UNL     1      25.486 -25.359  -3.709  1.00  0.00     0.164 HD
BRANCH  21  27
HETATM   27  C26 UNL     1      29.397 -25.532  -6.001  1.00  0.00     0.032 A
HETATM   28  C27 UNL     1      29.615 -25.483  -7.383  1.00  0.00     0.029 A
HETATM   29  C28 UNL     1      30.809 -25.107  -7.939  1.00  0.00     0.002 A
HETATM   30  C29 UNL     1      31.864 -24.755  -7.130  1.00  0.00     0.000 A
HETATM   31  C30 UNL     1      31.687 -24.792  -5.770  1.00  0.00     0.002 A
HETATM   32  C31 UNL     1      30.461 -25.179  -5.220  1.00  0.00     0.029 A
ENDBRANCH  21  27
ENDBRANCH   1   9
BRANCH   5  33
HETATM   33  C14 UNL     1      22.922 -33.222  -3.285  1.00  0.00     0.036 A
HETATM   34  C15 UNL     1      21.657 -33.257  -3.920  1.00  0.00     0.032 A
HETATM   35  C16 UNL     1      20.657 -34.086  -3.518  1.00  0.00     0.008 A
HETATM   36  C21 UNL     1      20.943 -34.907  -2.440  1.00  0.00     0.103 A
HETATM   37  N6  UNL     1      22.130 -34.878  -1.840  1.00  0.00    -0.351 N
HETATM   38  C22 UNL     1      23.169 -34.051  -2.222  1.00  0.00     0.111 A
ATOM     39  H6  UNL     1      22.282 -35.504  -1.049  1.00  0.00     0.166 HD
BRANCH  35  40
HETATM   40  C17 UNL     1      19.358 -34.128  -4.163  1.00  0.00     0.061 A
HETATM   41  C18 UNL     1      18.200 -33.564  -3.670  1.00  0.00     0.050 A
HETATM   42  C19 UNL     1      17.180 -33.813  -4.559  1.00  0.00     0.112 A
HETATM   43  N4  UNL     1      17.740 -34.516  -5.560  1.00  0.00    -0.307 N
HETATM   44  C20 UNL     1      16.963 -34.978  -6.720  1.00  0.00     0.177 C
HETATM   45  N5  UNL     1      19.026 -34.698  -5.319  1.00  0.00    -0.299 N
ATOM     46  H5  UNL     1      19.670 -35.201  -5.929  1.00  0.00     0.187 HD
ENDBRANCH  35  40
BRANCH  38  47
HETATM   47  N7  UNL     1      24.229 -34.214  -1.583  1.00  0.00    -0.385 N
ATOM     48  H72 UNL     1      24.847 -33.402  -1.566  1.00  0.00     0.157 HD
ATOM     49  H71 UNL     1      24.532 -35.022  -1.040  1.00  0.00     0.157 HD
ENDBRANCH  38  47
ENDBRANCH   5  33
TORSDOF 5
ENDMDL