MODEL 3
REMARK VINA RESULT: -8.562062795      6.813     10.778
REMARK  5 active torsions:
REMARK  status: ('A' for Active; 'I' for Inactive)
REMARK    1  A    between atoms: N1_1  and  C1_4
REMARK    2  A    between atoms: C5_12  and  N4_13
REMARK    3  A    between atoms: N8_27  and  C12_28
REMARK    4  A    between atoms: N9_36  and  S1_37
REMARK    5  A    between atoms: S1_37  and  C20_40
ROOT
HETATM    1  C1  UNL     1      19.544 -33.393  -4.979  1.00  0.00     0.117 A
HETATM    2  N2  UNL     1      18.256 -33.759  -5.087  1.00  0.00    -0.338 N
ATOM      3  H2  UNL     1      17.573 -33.426  -4.406  1.00  0.00     0.168 HD
HETATM    4  C2  UNL     1      17.862 -34.571  -6.099  1.00  0.00     0.183 A
HETATM    5  N3  UNL     1      18.736 -35.028  -7.013  1.00  0.00    -0.336 N
ATOM      6  H3  UNL     1      18.410 -35.638  -7.763  1.00  0.00     0.168 HD
HETATM    7  C3  UNL     1      20.019 -34.694  -6.950  1.00  0.00     0.141 A
HETATM    8  C4  UNL     1      20.443 -33.857  -5.912  1.00  0.00     0.098 A
HETATM    9  C5  UNL     1      21.781 -33.682  -6.082  1.00  0.00     0.136 A
HETATM   10  N7  UNL     1      22.117 -34.405  -7.193  1.00  0.00    -0.281 N
ATOM     11  H7  UNL     1      23.064 -34.464  -7.568  1.00  0.00     0.189 HD
HETATM   12  N8  UNL     1      21.091 -35.007  -7.716  1.00  0.00    -0.269 N
ENDROOT
BRANCH  12  13
HETATM   13  C12 UNL     1      21.050 -35.859  -8.891  1.00  0.00     0.110 C
HETATM   14  C13 UNL     1      20.421 -37.197  -8.634  1.00  0.00     0.028 C
HETATM   15  C14 UNL     1      21.144 -38.343  -9.240  1.00  0.00     0.011 C
HETATM   16  C15 UNL     1      21.683 -38.133 -10.608  1.00  0.00    -0.038 C
HETATM   17  C16 UNL     1      22.147 -36.711 -10.875  1.00  0.00     0.011 C
HETATM   18  C18 UNL     1      20.720 -38.503 -11.706  1.00  0.00     0.025 C
HETATM   19  C27 UNL     1      22.942 -39.003 -10.734  1.00  0.00     0.025 C
HETATM   20  C17 UNL     1      22.409 -36.098  -9.490  1.00  0.00     0.028 C
HETATM   21  C19 UNL     1      20.953 -39.898 -12.238  1.00  0.00     0.108 C
HETATM   22  N9  UNL     1      22.258 -40.086 -12.785  1.00  0.00    -0.206 NA
HETATM   23  C26 UNL     1      23.268 -39.251 -12.181  1.00  0.00     0.108 C
BRANCH  22  24
HETATM   24  S1  UNL     1      22.337 -39.853 -14.491  1.00  0.00     0.243 S
HETATM   25  O2  UNL     1      23.513 -40.625 -15.060  1.00  0.00    -0.206 OA
HETATM   26  O3  UNL     1      21.043 -40.349 -15.081  1.00  0.00    -0.206 OA
BRANCH  24  27
HETATM   27  C20 UNL     1      22.561 -38.162 -14.827  1.00  0.00     0.074 A
HETATM   28  C21 UNL     1      23.800 -37.590 -14.844  1.00  0.00     0.025 A
HETATM   29  C22 UNL     1      23.934 -36.263 -15.112  1.00  0.00     0.002 A
HETATM   30  C23 UNL     1      22.812 -35.500 -15.366  1.00  0.00     0.000 A
HETATM   31  C24 UNL     1      21.546 -36.065 -15.352  1.00  0.00     0.002 A
HETATM   32  C25 UNL     1      21.420 -37.406 -15.081  1.00  0.00     0.025 A
ENDBRANCH  24  27
ENDBRANCH  22  24
ENDBRANCH  12  13
BRANCH   9  33
HETATM   33  N4  UNL     1      22.660 -32.898  -5.289  1.00  0.00    -0.358 N
HETATM   34  C6  UNL     1      22.888 -31.508  -5.616  1.00  0.00     0.151 C
HETATM   35  C7  UNL     1      24.342 -31.250  -5.967  1.00  0.00     0.197 C
HETATM   36  O1  UNL     1      25.093 -31.104  -4.780  1.00  0.00    -0.333 OA
HETATM   37  C8  UNL     1      24.797 -31.708  -3.550  1.00  0.00     0.168 A
HETATM   38  N5  UNL     1      25.285 -31.274  -2.360  1.00  0.00    -0.331 N
HETATM   39  C10 UNL     1      24.011 -32.797  -3.246  1.00  0.00     0.079 A
HETATM   40  C9  UNL     1      24.805 -32.076  -1.395  1.00  0.00     0.182 A
ATOM     41  H5  UNL     1      25.908 -30.478  -2.223  1.00  0.00     0.168 HD
HETATM   42  N6  UNL     1      24.012 -33.026  -1.921  1.00  0.00    -0.351 N
ATOM     43  H6  UNL     1      23.517 -33.764  -1.421  1.00  0.00     0.166 HD
HETATM   44  C11 UNL     1      23.253 -33.630  -4.192  1.00  0.00     0.186 C
ENDBRANCH   9  33
BRANCH   1  45
HETATM   45  N1  UNL     1      19.877 -32.629  -4.000  1.00  0.00    -0.385 N
ATOM     46  H12 UNL     1      19.858 -32.930  -3.025  1.00  0.00     0.157 HD
ATOM     47  H11 UNL     1      20.169 -31.675  -4.211  1.00  0.00     0.157 HD
ENDBRANCH   1  45
TORSDOF 5
ENDMDL