MODEL 3
REMARK VINA RESULT: -7.609425678      5.439      9.984
REMARK  4 active torsions:
REMARK  status: ('A' for Active; 'I' for Inactive)
REMARK    1  A    between atoms: C2_2  and  N1_3
REMARK       I    between atoms: N1_3  and  C3_5
REMARK    2  A    between atoms: C3_5  and  C4_7
REMARK    3  A    between atoms: C22_31  and  N3_32
REMARK    4  A    between atoms: C24_34  and  O5_35
ROOT
HETATM    1  C4  UNL     1      19.581 -34.679  -6.087  1.00  0.00     0.034 A
HETATM    2  C5  UNL     1      20.490 -35.279  -5.244  1.00  0.00     0.020 A
HETATM    3  C6  UNL     1      21.658 -35.777  -5.770  1.00  0.00     0.040 A
HETATM    4  C7  UNL     1      21.999 -35.721  -7.112  1.00  0.00     0.102 A
HETATM    5  C8  UNL     1      21.087 -35.119  -7.973  1.00  0.00     0.103 A
HETATM    6  C9  UNL     1      19.919 -34.621  -7.433  1.00  0.00     0.056 A
HETATM    7  O2  UNL     1      21.334 -35.018  -9.331  1.00  0.00    -0.348 OA
HETATM    8  C10 UNL     1      21.487 -36.038 -10.285  1.00  0.00     0.178 C
HETATM    9  C11 UNL     1      21.182 -37.419  -9.837  1.00  0.00     0.053 C
HETATM   10  C12 UNL     1      20.646 -38.188 -11.058  1.00  0.00     0.170 C
HETATM   11  O3  UNL     1      21.788 -38.393 -11.862  1.00  0.00    -0.387 OA
HETATM   12  C13 UNL     1      21.466 -38.806 -13.142  1.00  0.00     0.194 C
HETATM   13  C14 UNL     1      21.158 -40.261 -13.205  1.00  0.00    -0.003 C
HETATM   14  C15 UNL     1      22.039 -41.171 -12.833  1.00  0.00    -0.003 C
HETATM   15  C16 UNL     1      23.380 -40.798 -12.331  1.00  0.00     0.194 C
HETATM   16  O4  UNL     1      23.295 -40.704 -10.946  1.00  0.00    -0.386 OA
HETATM   17  C17 UNL     1      23.939 -41.731 -10.297  1.00  0.00     0.195 C
HETATM   18  C18 UNL     1      23.810 -41.523  -8.804  1.00  0.00     0.258 C
HETATM   19  N2  UNL     1      24.986 -40.777  -8.335  1.00  0.00    -0.068 N
ATOM     20  H21 UNL     1      25.851 -41.101  -8.766  1.00  0.00     0.277 HD
ATOM     21  H22 UNL     1      25.222 -40.990  -7.366  1.00  0.00     0.277 HD
HETATM   22  C19 UNL     1      24.756 -39.370  -8.550  1.00  0.00     0.289 C
HETATM   23  C20 UNL     1      25.860 -38.584  -7.938  1.00  0.00     0.039 A
HETATM   24  C21 UNL     1      26.879 -38.949  -7.084  1.00  0.00     0.057 A
HETATM   25  C22 UNL     1      27.659 -37.855  -6.795  1.00  0.00     0.048 A
HETATM   26  C28 UNL     1      27.072 -36.806  -7.509  1.00  0.00     0.120 A
HETATM   27  N4  UNL     1      26.001 -37.262  -8.184  1.00  0.00    -0.354 N
HETATM   28  C29 UNL     1      25.100 -36.527  -9.049  1.00  0.00     0.155 C
HETATM   29  C30 UNL     1      24.221 -35.563  -8.252  1.00  0.00     0.196 C
HETATM   30  O6  UNL     1      23.206 -36.244  -7.573  1.00  0.00    -0.347 OA
ENDROOT
BRANCH  25  31
HETATM   31  N3  UNL     1      28.804 -37.782  -5.965  1.00  0.00    -0.372 N
HETATM   32  C23 UNL     1      29.183 -38.601  -4.821  1.00  0.00     0.161 C
HETATM   33  C24 UNL     1      30.474 -37.903  -4.475  1.00  0.00     0.077 C
HETATM   34  C25 UNL     1      31.104 -37.724  -5.850  1.00  0.00     0.065 C
HETATM   35  C27 UNL     1      30.059 -36.436  -4.619  1.00  0.00     0.065 C
HETATM   36  C26 UNL     1      29.866 -36.848  -6.086  1.00  0.00     0.090 C
BRANCH  33  37
HETATM   37  O5  UNL     1      31.207 -38.276  -3.448  1.00  0.00    -0.388 OA
ATOM     38  H5  UNL     1      30.867 -38.854  -2.776  1.00  0.00     0.210 HD
ENDBRANCH  33  37
ENDBRANCH  25  31
BRANCH   1  39
HETATM   39  C3  UNL     1      18.329 -34.128  -5.585  1.00  0.00     0.251 C
HETATM   40  N1  UNL     1      18.218 -32.940  -4.819  1.00  0.00    -0.357 N
ATOM     41  H1  UNL     1      19.059 -32.413  -4.587  1.00  0.00     0.162 HD
HETATM   42  O1  UNL     1      17.270 -34.752  -5.854  1.00  0.00    -0.268 OA
BRANCH  40  43
HETATM   43  C2  UNL     1      16.921 -32.457  -4.356  1.00  0.00     0.118 C
HETATM   44  C1  UNL     1      17.146 -31.314  -3.401  1.00  0.00     0.026 C
ENDBRANCH  40  43
ENDBRANCH   1  39
TORSDOF 4
ENDMDL