MODEL 5
REMARK VINA RESULT: -8.308545370      3.379      8.000
REMARK  6 active torsions:
REMARK  status: ('A' for Active; 'I' for Inactive)
REMARK    1  A    between atoms: N2_12  and  C10_13
REMARK    2  A    between atoms: C10_13  and  C11_14
REMARK    3  A    between atoms: C11_14  and  N3_15
REMARK    4  A    between atoms: N3_15  and  C12_17
REMARK    5  A    between atoms: C13_20  and  N5_21
REMARK    6  A    between atoms: N5_21  and  C14_23
ROOT
HETATM    1  C11 UNL     1      22.665 -34.724  -1.689  1.00  0.00     0.107 C
ENDROOT
BRANCH   1   2
HETATM    2  C10 UNL     1      23.460 -35.904  -2.122  1.00  0.00     0.107 C
BRANCH   2   3
HETATM    3  N2  UNL     1      23.418 -36.310  -3.450  1.00  0.00    -0.369 N
HETATM    4  C9  UNL     1      22.245 -36.612  -4.120  1.00  0.00     0.066 C
HETATM    5  C8  UNL     1      22.364 -37.619  -5.240  1.00  0.00     0.083 C
HETATM    6  C7  UNL     1      23.468 -37.226  -6.197  1.00  0.00     0.074 C
HETATM    7  O1  UNL     1      23.655 -38.269  -7.116  1.00  0.00    -0.338 OA
HETATM    8  C24 UNL     1      24.739 -37.152  -5.354  1.00  0.00     0.059 C
HETATM    9  C25 UNL     1      23.265 -35.884  -6.807  1.00  0.00     0.054 C
HETATM   10  C5  UNL     1      23.991 -38.287  -8.463  1.00  0.00     0.093 A
HETATM   11  C4  UNL     1      23.563 -37.402  -9.408  1.00  0.00     0.092 A
HETATM   12  C6  UNL     1      24.837 -39.314  -8.828  1.00  0.00     0.064 A
HETATM   13  C3  UNL     1      23.985 -37.542 -10.733  1.00  0.00     0.028 A
HETATM   14  S2  UNL     1      22.507 -35.995  -9.352  1.00  0.00     0.178 S
HETATM   15  C2  UNL     1      24.833 -38.585 -11.061  1.00  0.00     0.028 A
HETATM   16  C1  UNL     1      25.283 -39.497 -10.126  1.00  0.00     0.049 A
HETATM   17  N1  UNL     1      26.147 -40.541 -10.513  1.00  0.00    -0.102 NA
HETATM   18  C26 UNL     1      22.020 -35.787  -7.651  1.00  0.00     0.149 C
HETATM   19  O3  UNL     1      23.348 -34.817  -9.756  1.00  0.00    -0.223 OA
HETATM   20  O4  UNL     1      21.299 -36.163 -10.205  1.00  0.00    -0.223 OA
HETATM   21  C23 UNL     1      24.621 -36.212  -4.206  1.00  0.00     0.130 C
ENDBRANCH   2   3
ENDBRANCH   1   2
BRANCH   1  22
HETATM   22  N3  UNL     1      23.017 -33.467  -2.214  1.00  0.00    -0.349 N
ATOM     23  H3  UNL     1      23.492 -32.849  -1.557  1.00  0.00     0.166 HD
BRANCH  22  24
HETATM   24  C12 UNL     1      22.840 -32.972  -3.377  1.00  0.00     0.140 A
HETATM   25  N4  UNL     1      21.645 -32.988  -3.987  1.00  0.00    -0.175 N
HETATM   26  C13 UNL     1      21.623 -32.419  -5.232  1.00  0.00     0.680 A
ATOM     27  H4  UNL     1      20.815 -33.394  -3.556  1.00  0.00     0.186 HD
HETATM   28  N6  UNL     1      22.661 -31.880  -5.840  1.00  0.00    -0.190 N
HETATM   29  C19 UNL     1      23.902 -31.841  -5.248  1.00  0.00     0.070 A
ATOM     30  H6  UNL     1      22.540 -31.481  -6.771  1.00  0.00     0.184 HD
HETATM   31  C20 UNL     1      25.046 -31.326  -5.745  1.00  0.00     0.039 A
HETATM   32  C22 UNL     1      23.962 -32.401  -4.005  1.00  0.00     0.076 A
HETATM   33  C21 UNL     1      26.162 -31.407  -4.962  1.00  0.00     0.053 A
HETATM   34  S1  UNL     1      25.593 -32.197  -3.560  1.00  0.00    -0.096 SA
BRANCH  26  35
HETATM   35  N5  UNL     1      20.455 -32.453  -5.796  1.00  0.00    -0.221 N
ATOM     36  H5  UNL     1      20.320 -31.955  -6.676  1.00  0.00     0.178 HD
BRANCH  35  37
HETATM   37  C14 UNL     1      19.343 -33.169  -5.228  1.00  0.00     0.103 C
HETATM   38  C15 UNL     1      18.866 -34.257  -6.204  1.00  0.00     0.052 C
HETATM   39  C16 UNL     1      17.418 -34.552  -5.792  1.00  0.00     0.169 C
HETATM   40  O2  UNL     1      17.223 -34.393  -4.434  1.00  0.00    -0.391 OA
HETATM   41  C17 UNL     1      17.220 -33.052  -4.051  1.00  0.00     0.169 C
HETATM   42  C18 UNL     1      18.132 -32.294  -4.997  1.00  0.00     0.052 C
ENDBRANCH  35  37
ENDBRANCH  26  35
ENDBRANCH  22  24
ENDBRANCH   1  22
TORSDOF 6
ENDMDL