MODEL 3
REMARK VINA RESULT: -7.413866990      3.341      4.182
REMARK  7 active torsions:
REMARK  status: ('A' for Active; 'I' for Inactive)
REMARK    1  A    between atoms: C7_8  and  C8_9
REMARK    2  A    between atoms: C8_9  and  C9_10
REMARK    3  A    between atoms: C9_10  and  C10_11
REMARK    4  A    between atoms: N3_37  and  C29_38
REMARK    5  A    between atoms: C29_38  and  O4_39
REMARK    6  A    between atoms: C29_38  and  C30_41
REMARK    7  A    between atoms: C30_41  and  O5_42
ROOT
HETATM    1  N1  UNL     1      21.612 -37.387  -2.620  1.00  0.00    -0.191 NA
HETATM    2  C1  UNL     1      22.539 -36.808  -2.998  1.00  0.00     0.100 C
HETATM    3  C2  UNL     1      23.729 -36.095  -3.462  1.00  0.00     0.051 A
HETATM    4  C3  UNL     1      24.791 -36.796  -3.972  1.00  0.00     0.025 A
HETATM    5  C4  UNL     1      25.894 -36.067  -4.388  1.00  0.00     0.032 A
HETATM    6  C5  UNL     1      25.983 -34.677  -4.317  1.00  0.00     0.044 A
HETATM    7  C6  UNL     1      24.918 -33.976  -3.807  1.00  0.00    -0.012 A
HETATM    8  C7  UNL     1      23.793 -34.716  -3.381  1.00  0.00    -0.028 A
HETATM    9  C20 UNL     1      24.759 -32.519  -3.637  1.00  0.00     0.150 C
HETATM   10  S1  UNL     1      25.427 -31.907  -2.148  1.00  0.00     0.021 S
HETATM   11  O1  UNL     1      25.741 -32.954  -0.966  1.00  0.00    -0.258 OA
HETATM   12  C21 UNL     1      25.285 -30.255  -1.843  1.00  0.00     0.135 C
HETATM   13  C22 UNL     1      26.447 -29.473  -2.442  1.00  0.00     0.180 C
HETATM   14  O2  UNL     1      26.124 -28.975  -3.698  1.00  0.00    -0.388 OA
HETATM   15  C23 UNL     1      26.985 -27.906  -4.008  1.00  0.00     0.193 C
HETATM   16  C24 UNL     1      27.504 -27.984  -5.410  1.00  0.00     0.193 C
HETATM   17  O3  UNL     1      28.892 -28.122  -5.474  1.00  0.00    -0.387 OA
HETATM   18  C25 UNL     1      29.272 -29.035  -6.452  1.00  0.00     0.195 C
HETATM   19  C26 UNL     1      28.943 -30.416  -5.954  1.00  0.00     0.258 C
HETATM   20  N2  UNL     1      28.325 -31.235  -6.958  1.00  0.00    -0.072 N
ATOM     21  H21 UNL     1      28.737 -31.117  -7.883  1.00  0.00     0.277 HD
ATOM     22  H22 UNL     1      27.381 -30.932  -7.198  1.00  0.00     0.277 HD
HETATM   23  C27 UNL     1      28.382 -32.636  -6.466  1.00  0.00     0.252 C
HETATM   24  C28 UNL     1      27.289 -32.905  -5.510  1.00  0.00     0.158 C
HETATM   25  N3  UNL     1      27.253 -34.135  -4.784  1.00  0.00    -0.327 N
ENDROOT
BRANCH   8  26
HETATM   26  C8  UNL     1      22.587 -34.062  -2.810  1.00  0.00     0.041 C
BRANCH  26  27
HETATM   27  C9  UNL     1      21.660 -33.525  -3.871  1.00  0.00     0.014 C
BRANCH  27  28
HETATM   28  C10 UNL     1      20.249 -33.457  -3.373  1.00  0.00    -0.039 C
HETATM   29  C11 UNL     1      20.333 -33.046  -1.904  1.00  0.00     0.014 C
HETATM   30  C12 UNL     1      18.978 -32.822  -1.306  1.00  0.00    -0.013 C
HETATM   31  C13 UNL     1      18.241 -31.765  -2.111  1.00  0.00     0.009 C
HETATM   32  C17 UNL     1      18.227 -34.132  -1.365  1.00  0.00     0.009 C
HETATM   33  C14 UNL     1      18.111 -32.224  -3.538  1.00  0.00    -0.013 C
HETATM   34  C15 UNL     1      17.327 -33.519  -3.539  1.00  0.00     0.009 C
HETATM   35  C19 UNL     1      19.483 -32.433  -4.161  1.00  0.00     0.014 C
HETATM   36  C16 UNL     1      18.145 -34.547  -2.819  1.00  0.00    -0.013 C
HETATM   37  C18 UNL     1      19.507 -34.760  -3.435  1.00  0.00     0.014 C
ENDBRANCH  27  28
ENDBRANCH  26  27
ENDBRANCH   8  26
BRANCH  25  38
HETATM   38  C29 UNL     1      28.474 -34.866  -4.473  1.00  0.00     0.142 C
BRANCH  38  39
HETATM   39  O4  UNL     1      28.756 -34.901  -3.094  1.00  0.00    -0.348 OA
ATOM     40  H4  UNL     1      28.015 -35.185  -2.573  1.00  0.00     0.219 HD
ENDBRANCH  38  39
BRANCH  38  41
HETATM   41  C30 UNL     1      28.746 -36.138  -5.146  1.00  0.00     0.248 C
BRANCH  41  42
HETATM   42  O5  UNL     1      29.248 -37.055  -4.156  1.00  0.00    -0.393 OA
ATOM     43  H5  UNL     1      30.190 -37.113  -4.269  1.00  0.00     0.210 HD
ENDBRANCH  41  42
ENDBRANCH  38  41
ENDBRANCH  25  38
TORSDOF 7
ENDMDL