MODEL 3
REMARK VINA RESULT: -7.819420509      4.017      7.490
REMARK  5 active torsions:
REMARK  status: ('A' for Active; 'I' for Inactive)
REMARK    1  A    between atoms: S1_2  and  N1_5
REMARK    2  A    between atoms: N1_5  and  C2_7
REMARK    3  A    between atoms: C15_22  and  C16_23
REMARK    4  A    between atoms: C17_24  and  C18_25
REMARK    5  A    between atoms: C21_28  and  N3_29
ROOT
HETATM    1  C2  UNL     1      25.274 -34.244  -2.964  1.00  0.00     0.044 A
HETATM    2  C3  UNL     1      24.542 -33.579  -2.009  1.00  0.00     0.032 A
HETATM    3  C4  UNL     1      24.816 -32.210  -1.807  1.00  0.00     0.030 A
HETATM    4  C5  UNL     1      25.759 -31.597  -2.531  1.00  0.00     0.106 A
HETATM    5  C6  UNL     1      26.515 -32.261  -3.508  1.00  0.00     0.058 A
HETATM    6  C7  UNL     1      26.256 -33.578  -3.707  1.00  0.00     0.061 A
HETATM    7  N2  UNL     1      27.561 -31.637  -4.218  1.00  0.00    -0.352 N
ATOM      8  H2  UNL     1      28.438 -32.152  -4.296  1.00  0.00     0.166 HD
HETATM    9  C8  UNL     1      27.511 -30.448  -4.793  1.00  0.00     0.071 C
HETATM   10  C9  UNL     1      28.781 -30.117  -5.404  1.00  0.00    -0.007 A
HETATM   11  C10 UNL     1      29.136 -28.847  -5.748  1.00  0.00     0.014 A
HETATM   12  C11 UNL     1      30.368 -28.504  -6.322  1.00  0.00     0.001 A
HETATM   13  C12 UNL     1      31.254 -29.529  -6.538  1.00  0.00     0.000 A
HETATM   14  C13 UNL     1      30.951 -30.841  -6.209  1.00  0.00     0.001 A
HETATM   15  C14 UNL     1      29.726 -31.123  -5.649  1.00  0.00     0.014 A
HETATM   16  C15 UNL     1      26.458 -29.480  -4.861  1.00  0.00     0.086 C
HETATM   17  N7  UNL     1      25.701 -29.124  -3.793  1.00  0.00    -0.277 N
ATOM     18  H7  UNL     1      24.987 -28.407  -3.914  1.00  0.00     0.179 HD
HETATM   19  S2  UNL     1      25.908 -29.858  -2.201  1.00  0.00     0.265 S
HETATM   20  O4  UNL     1      24.789 -29.455  -1.333  1.00  0.00    -0.200 OA
HETATM   21  O5  UNL     1      27.214 -29.598  -1.608  1.00  0.00    -0.200 OA
ENDROOT
BRANCH  16  22
HETATM   22  C16 UNL     1      26.154 -28.796  -6.089  1.00  0.00     0.075 A
HETATM   23  C17 UNL     1      26.068 -29.585  -7.233  1.00  0.00    -0.004 A
HETATM   24  C23 UNL     1      26.119 -28.978  -8.468  1.00  0.00     0.046 A
HETATM   25  C24 UNL     1      26.250 -27.620  -8.626  1.00  0.00     0.077 A
HETATM   26  N5  UNL     1      26.332 -26.883  -7.529  1.00  0.00    -0.219 N
HETATM   27  C26 UNL     1      26.364 -26.371  -9.392  1.00  0.00     0.139 A
HETATM   28  C25 UNL     1      26.293 -27.405  -6.272  1.00  0.00     0.280 A
HETATM   29  N6  UNL     1      26.439 -25.703  -8.278  1.00  0.00    -0.300 N
HETATM   30  O3  UNL     1      26.405 -26.604  -5.327  1.00  0.00    -0.265 OA
ATOM     31  H6  UNL     1      26.536 -24.715  -8.044  1.00  0.00     0.186 HD
BRANCH  23  32
HETATM   32  C18 UNL     1      25.801 -31.022  -7.286  1.00  0.00    -0.009 A
HETATM   33  C19 UNL     1      26.674 -31.827  -7.966  1.00  0.00     0.017 A
HETATM   34  C20 UNL     1      26.487 -33.168  -8.008  1.00  0.00     0.049 A
HETATM   35  C21 UNL     1      25.421 -33.740  -7.368  1.00  0.00     0.098 A
HETATM   36  N4  UNL     1      24.557 -32.960  -6.697  1.00  0.00    -0.352 N
HETATM   37  C22 UNL     1      24.731 -31.627  -6.648  1.00  0.00     0.102 A
ATOM     38  H4  UNL     1      23.762 -33.383  -6.219  1.00  0.00     0.166 HD
BRANCH  35  39
HETATM   39  N3  UNL     1      25.244 -35.019  -7.408  1.00  0.00    -0.385 N
ATOM     40  H32 UNL     1      24.647 -35.475  -6.719  1.00  0.00     0.157 HD
ATOM     41  H31 UNL     1      25.699 -35.581  -8.128  1.00  0.00     0.157 HD
ENDBRANCH  35  39
ENDBRANCH  23  32
ENDBRANCH  16  22
BRANCH   1  42
HETATM   42  N1  UNL     1      25.057 -35.614  -3.232  1.00  0.00    -0.285 N
ATOM     43  H1  UNL     1      25.671 -36.283  -2.767  1.00  0.00     0.178 HD
BRANCH  42  44
HETATM   44  S1  UNL     1      23.857 -36.241  -4.265  1.00  0.00     0.227 S
HETATM   45  C1  UNL     1      22.570 -37.082  -3.406  1.00  0.00     0.186 C
HETATM   46  O1  UNL     1      23.211 -35.155  -5.096  1.00  0.00    -0.206 OA
HETATM   47  O2  UNL     1      24.511 -37.173  -5.273  1.00  0.00    -0.206 OA
ENDBRANCH  42  44
ENDBRANCH   1  42
TORSDOF 5
ENDMDL