MODEL 5
REMARK VINA RESULT: -8.054951696      3.214      8.114
REMARK  10 active torsions:
REMARK  status: ('A' for Active; 'I' for Inactive)
REMARK    1  A    between atoms: C4_5  and  C5_6
REMARK       I    between atoms: C5_6  and  N2_8
REMARK    2  A    between atoms: N2_8  and  C6_9
REMARK    3  A    between atoms: C9_15  and  C10_16
REMARK    4  A    between atoms: C11_17  and  C12_18
REMARK    5  A    between atoms: C14_21  and  C15_22
REMARK    6  A    between atoms: C15_22  and  O3_23
REMARK    7  A    between atoms: C19_30  and  N5_31
REMARK    8  A    between atoms: N5_31  and  C20_33
REMARK    9  A    between atoms: C25_38  and  O4_39
REMARK   10  A    between atoms: O4_39  and  O5_40
ROOT
HETATM    1  C1  UNL     1      18.624 -33.787  -4.676  1.00  0.00     0.171 C
HETATM    2  N1  UNL     1      19.877 -34.211  -4.103  1.00  0.00    -0.263 N
HETATM    3  C2  UNL     1      20.814 -34.884  -4.912  1.00  0.00     0.053 A
HETATM    4  C3  UNL     1      20.507 -34.756  -6.243  1.00  0.00     0.050 A
HETATM    5  C4  UNL     1      21.308 -35.343  -7.206  1.00  0.00     0.067 A
HETATM    6  C9  UNL     1      22.422 -36.064  -6.908  1.00  0.00     0.035 A
HETATM    7  C16 UNL     1      22.738 -36.196  -5.547  1.00  0.00     0.031 A
HETATM    8  C17 UNL     1      21.952 -35.620  -4.572  1.00  0.00    -0.022 A
HETATM    9  C18 UNL     1      22.465 -35.893  -3.215  1.00  0.00     0.118 C
HETATM   10  C19 UNL     1      22.661 -34.698  -2.376  1.00  0.00     0.097 C
HETATM   11  N6  UNL     1      21.775 -33.838  -2.020  1.00  0.00    -0.256 N
ATOM     12  H6  UNL     1      22.105 -33.071  -1.433  1.00  0.00     0.181 HD
HETATM   13  S2  UNL     1      20.093 -33.822  -2.412  1.00  0.00     0.326 S
HETATM   14  O6  UNL     1      19.327 -34.837  -1.631  1.00  0.00    -0.182 OA
HETATM   15  O7  UNL     1      19.579 -32.436  -2.176  1.00  0.00    -0.182 OA
ENDROOT
BRANCH   6  16
HETATM   16  C10 UNL     1      23.269 -36.668  -7.895  1.00  0.00    -0.059 C
HETATM   17  C11 UNL     1      23.957 -37.201  -8.740  1.00  0.00    -0.043 C
BRANCH  17  18
HETATM   18  C12 UNL     1      24.772 -37.851  -9.775  1.00  0.00     0.094 A
HETATM   19  C13 UNL     1      26.034 -38.318  -9.491  1.00  0.00     0.090 A
HETATM   20  S1  UNL     1      26.512 -38.958 -11.003  1.00  0.00    -0.084 SA
HETATM   21  C14 UNL     1      25.100 -38.596 -11.890  1.00  0.00     0.075 A
HETATM   22  N4  UNL     1      24.339 -38.006 -10.985  1.00  0.00    -0.345 N
ATOM     23  H4  UNL     1      23.409 -37.674 -11.240  1.00  0.00     0.167 HD
BRANCH  21  24
HETATM   24  C15 UNL     1      24.813 -38.884 -13.336  1.00  0.00     0.229 C
BRANCH  24  25
HETATM   25  O3  UNL     1      23.539 -38.380 -13.647  1.00  0.00    -0.394 OA
ATOM     26  H3  UNL     1      23.426 -37.548 -13.202  1.00  0.00     0.209 HD
ENDBRANCH  24  25
ENDBRANCH  21  24
ENDBRANCH  17  18
ENDBRANCH   6  16
BRANCH   5  27
HETATM   27  C5  UNL     1      20.902 -35.169  -8.631  1.00  0.00     0.330 C
HETATM   28  O1  UNL     1      20.634 -33.947  -8.969  1.00  0.00    -0.251 OA
HETATM   29  N2  UNL     1      20.816 -36.156  -9.491  1.00  0.00    -0.339 NA
BRANCH  29  30
HETATM   30  C6  UNL     1      20.719 -37.065 -10.250  1.00  0.00     0.245 A
HETATM   31  C7  UNL     1      19.893 -38.216 -10.155  1.00  0.00     0.093 A
HETATM   32  C8  UNL     1      20.138 -38.965 -11.269  1.00  0.00     0.120 A
HETATM   33  N3  UNL     1      21.045 -38.307 -11.977  1.00  0.00    -0.269 N
HETATM   34  O2  UNL     1      21.388 -37.212 -11.403  1.00  0.00    -0.205 OA
ATOM     35  H3  UNL     1      21.423 -38.630 -12.868  1.00  0.00     0.194 HD
ENDBRANCH  29  30
ENDBRANCH   5  27
BRANCH  10  36
HETATM   36  N5  UNL     1      23.958 -34.409  -1.876  1.00  0.00    -0.343 N
ATOM     37  H5  UNL     1      24.175 -34.685  -0.918  1.00  0.00     0.167 HD
BRANCH  36  38
HETATM   38  C20 UNL     1      24.969 -33.762  -2.627  1.00  0.00     0.070 A
HETATM   39  C21 UNL     1      25.795 -34.473  -3.480  1.00  0.00     0.032 A
HETATM   40  C22 UNL     1      26.784 -33.863  -4.219  1.00  0.00     0.002 A
HETATM   41  C23 UNL     1      26.962 -32.484  -4.106  1.00  0.00     0.003 A
HETATM   42  C24 UNL     1      26.140 -31.797  -3.261  1.00  0.00     0.042 A
HETATM   43  C25 UNL     1      25.156 -32.420  -2.529  1.00  0.00     0.133 A
BRANCH  43  44
HETATM   44  O4  UNL     1      24.339 -31.694  -1.681  1.00  0.00    -0.198 OA
BRANCH  44  45
HETATM   45  O5  UNL     1      24.602 -30.444  -1.345  1.00  0.00    -0.245 OA
ATOM     46  H5  UNL     1      25.455 -30.049  -1.482  1.00  0.00     0.254 HD
ENDBRANCH  44  45
ENDBRANCH  43  44
ENDBRANCH  36  38
ENDBRANCH  10  36
TORSDOF 10
ENDMDL