MODEL 1
REMARK VINA RESULT: -8.814944745      0.000      0.000
REMARK  6 active torsions:
REMARK  status: ('A' for Active; 'I' for Inactive)
REMARK    1  A    between atoms: N1_1  and  C1_4
REMARK    2  A    between atoms: C2_7  and  C3_8
REMARK    3  A    between atoms: C6_11  and  N3_12
REMARK    4  A    between atoms: C14_25  and  N6_26
REMARK    5  A    between atoms: N6_26  and  N7_28
REMARK       I    between atoms: N7_28  and  C15_30
REMARK       I    between atoms: C15_30  and  N8_32
REMARK    6  A    between atoms: C20_40  and  N10_41
ROOT
HETATM    1  C1  UNL     1      19.933 -35.254  -6.805  1.00  0.00     0.118 A
HETATM    2  N2  UNL     1      19.993 -35.944  -7.966  1.00  0.00    -0.327 N
ATOM      3  H2  UNL     1      19.151 -35.984  -8.540  1.00  0.00     0.169 HD
HETATM    4  C2  UNL     1      21.084 -36.578  -8.414  1.00  0.00     0.118 A
HETATM    5  N4  UNL     1      22.185 -36.527  -7.666  1.00  0.00    -0.327 N
ATOM      6  H4  UNL     1      23.032 -36.999  -7.980  1.00  0.00     0.169 HD
HETATM    7  C13 UNL     1      22.186 -35.851  -6.495  1.00  0.00     0.140 A
HETATM    8  N5  UNL     1      23.292 -35.821  -5.738  1.00  0.00    -0.174 N
ATOM      9  H5  UNL     1      24.127 -36.302  -6.070  1.00  0.00     0.186 HD
HETATM   10  C14 UNL     1      23.340 -35.181  -4.560  1.00  0.00     0.700 A
HETATM   11  N9  UNL     1      22.257 -34.547  -4.116  1.00  0.00    -0.174 N
ATOM     12  H9  UNL     1      22.302 -34.064  -3.219  1.00  0.00     0.186 HD
HETATM   13  C20 UNL     1      21.075 -34.523  -4.827  1.00  0.00     0.137 A
HETATM   14  C28 UNL     1      21.046 -35.181  -6.017  1.00  0.00     0.097 A
ENDROOT
BRANCH   4  15
HETATM   15  C3  UNL     1      21.059 -37.309  -9.689  1.00  0.00     0.008 A
HETATM   16  C4  UNL     1      20.008 -38.204  -9.921  1.00  0.00     0.017 A
HETATM   17  C5  UNL     1      19.922 -38.918 -11.084  1.00  0.00     0.030 A
HETATM   18  C6  UNL     1      20.873 -38.769 -12.057  1.00  0.00     0.030 A
HETATM   19  C11 UNL     1      21.915 -37.879 -11.825  1.00  0.00     0.030 A
HETATM   20  C12 UNL     1      22.018 -37.150 -10.655  1.00  0.00     0.017 A
BRANCH  18  21
HETATM   21  N3  UNL     1      20.756 -39.510 -13.257  1.00  0.00    -0.379 N
HETATM   22  C7  UNL     1      19.738 -40.511 -13.367  1.00  0.00     0.133 C
HETATM   23  C8  UNL     1      19.255 -40.744 -14.786  1.00  0.00     0.093 C
HETATM   24  S1  UNL     1      20.666 -41.198 -15.866  1.00  0.00    -0.166 SA
HETATM   25  C9  UNL     1      22.141 -40.558 -14.996  1.00  0.00     0.093 C
HETATM   26  C10 UNL     1      21.689 -39.237 -14.354  1.00  0.00     0.133 C
ENDBRANCH  18  21
ENDBRANCH   4  15
BRANCH   1  27
HETATM   27  N1  UNL     1      18.840 -34.704  -6.440  1.00  0.00    -0.385 N
ATOM     28  H12 UNL     1      18.449 -34.887  -5.516  1.00  0.00     0.157 HD
ATOM     29  H11 UNL     1      18.335 -34.092  -7.080  1.00  0.00     0.157 HD
ENDBRANCH   1  27
BRANCH  13  30
HETATM   30  N10 UNL     1      20.008 -33.769  -4.296  1.00  0.00    -0.364 N
HETATM   31  C21 UNL     1      18.934 -34.092  -3.385  1.00  0.00     0.135 A
HETATM   32  C22 UNL     1      18.305 -32.732  -3.564  1.00  0.00    -0.008 A
HETATM   33  C23 UNL     1      18.149 -31.911  -2.318  1.00  0.00     0.013 C
HETATM   34  C26 UNL     1      16.947 -32.712  -4.183  1.00  0.00     0.013 C
HETATM   35  C27 UNL     1      19.462 -32.427  -4.438  1.00  0.00     0.135 A
HETATM   36  C24 UNL     1      17.286 -30.759  -2.789  1.00  0.00     0.001 C
HETATM   37  C25 UNL     1      16.464 -31.296  -3.942  1.00  0.00     0.001 C
ENDBRANCH  13  30
BRANCH  10  38
HETATM   38  N6  UNL     1      24.462 -35.206  -3.885  1.00  0.00    -0.128 N
ATOM     39  H6  UNL     1      24.939 -36.082  -3.675  1.00  0.00     0.205 HD
BRANCH  38  40
HETATM   40  N7  UNL     1      24.972 -33.980  -3.467  1.00  0.00    -0.237 N
HETATM   41  C15 UNL     1      25.965 -33.280  -4.206  1.00  0.00     0.337 C
HETATM   42  O1  UNL     1      26.431 -33.745  -5.281  1.00  0.00    -0.245 OA
HETATM   43  N8  UNL     1      26.452 -32.040  -3.743  1.00  0.00    -0.329 N
HETATM   44  C16 UNL     1      27.456 -31.341  -4.504  1.00  0.00     0.153 C
HETATM   45  C19 UNL     1      25.924 -31.497  -2.505  1.00  0.00     0.153 C
HETATM   46  C17 UNL     1      27.212 -29.855  -4.517  1.00  0.00     0.187 C
HETATM   47  O2  UNL     1      26.156 -29.508  -3.691  1.00  0.00    -0.388 OA
HETATM   48  C18 UNL     1      26.299 -30.026  -2.406  1.00  0.00     0.187 C
ATOM     49  H7  UNL     1      24.621 -33.569  -2.601  1.00  0.00     0.192 HD
ENDBRANCH  38  40
ENDBRANCH  10  38
TORSDOF 6
ENDMDL