MODEL 1
REMARK VINA RESULT: -9.627024002      0.000      0.000
REMARK  5 active torsions:
REMARK  status: ('A' for Active; 'I' for Inactive)
REMARK    1  A    between atoms: C1_2  and  C2_3
REMARK       I    between atoms: C1_2  and  N5_36
REMARK    2  A    between atoms: C2_3  and  N1_4
REMARK    3  A    between atoms: C10_15  and  O4_16
REMARK    4  A    between atoms: C10_15  and  C11_18
REMARK    5  A    between atoms: C15_24  and  C16_25
ROOT
HETATM    1  N1  UNL     1      21.119 -34.514  -3.442  1.00  0.00    -0.328 N
HETATM    2  C3  UNL     1      22.287 -34.856  -2.705  1.00  0.00     0.053 A
HETATM    3  C4  UNL     1      22.181 -35.667  -1.610  1.00  0.00     0.031 A
HETATM    4  C5  UNL     1      23.280 -36.041  -0.832  1.00  0.00     0.002 A
HETATM    5  C6  UNL     1      24.521 -35.593  -1.153  1.00  0.00     0.002 A
HETATM    6  C7  UNL     1      24.654 -34.771  -2.258  1.00  0.00     0.024 A
HETATM    7  C8  UNL     1      23.561 -34.414  -3.011  1.00  0.00     0.066 A
HETATM    8  S1  UNL     1      23.855 -33.361  -4.381  1.00  0.00     0.129 S
HETATM    9  O2  UNL     1      24.854 -34.201  -5.436  1.00  0.00    -0.244 OA
HETATM   10  C9  UNL     1      22.271 -33.083  -5.079  1.00  0.00     0.280 C
HETATM   11  O3  UNL     1      22.048 -32.071  -5.721  1.00  0.00    -0.277 OA
HETATM   12  C10 UNL     1      21.249 -34.153  -4.833  1.00  0.00     0.239 C
ENDROOT
BRANCH  12  13
HETATM   13  O4  UNL     1      20.033 -33.637  -5.346  1.00  0.00    -0.360 OA
ATOM     14  H4  UNL     1      20.077 -32.694  -5.454  1.00  0.00     0.213 HD
ENDBRANCH  12  13
BRANCH  12  15
HETATM   15  C11 UNL     1      21.571 -35.295  -5.719  1.00  0.00     0.008 A
HETATM   16  C12 UNL     1      22.125 -36.463  -5.285  1.00  0.00     0.015 A
HETATM   17  C13 UNL     1      22.416 -37.511  -6.174  1.00  0.00     0.032 A
HETATM   18  C14 UNL     1      22.137 -37.359  -7.513  1.00  0.00     0.060 A
HETATM   19  N2  UNL     1      22.305 -38.182  -8.591  1.00  0.00    -0.340 N
HETATM   20  C21 UNL     1      21.581 -36.183  -7.938  1.00  0.00     0.061 A
HETATM   21  C15 UNL     1      21.859 -37.530  -9.673  1.00  0.00     0.116 A
ATOM     22  H2  UNL     1      22.698 -39.123  -8.574  1.00  0.00     0.167 HD
HETATM   23  N4  UNL     1      21.420 -36.312  -9.271  1.00  0.00    -0.340 N
ATOM     24  H4  UNL     1      21.025 -35.599  -9.885  1.00  0.00     0.167 HD
HETATM   25  C22 UNL     1      21.296 -35.155  -7.061  1.00  0.00     0.044 A
BRANCH  21  26
HETATM   26  C16 UNL     1      21.816 -37.969 -11.060  1.00  0.00     0.011 A
HETATM   27  C17 UNL     1      20.931 -38.918 -11.520  1.00  0.00     0.032 A
HETATM   28  C18 UNL     1      20.924 -39.305 -12.860  1.00  0.00     0.088 A
HETATM   29  N3  UNL     1      21.805 -38.729 -13.698  1.00  0.00    -0.375 N
HETATM   30  C19 UNL     1      22.686 -37.800 -13.294  1.00  0.00     0.088 A
ATOM     31  H3  UNL     1      21.803 -39.010 -14.679  1.00  0.00     0.164 HD
HETATM   32  C20 UNL     1      22.697 -37.409 -11.955  1.00  0.00     0.032 A
ENDBRANCH  21  26
ENDBRANCH  12  15
BRANCH   1  33
HETATM   33  C2  UNL     1      19.816 -34.499  -2.832  1.00  0.00     0.229 C
BRANCH  33  34
HETATM   34  C1  UNL     1      19.562 -33.185  -2.221  1.00  0.00     0.239 C
HETATM   35  O1  UNL     1      20.456 -32.588  -1.523  1.00  0.00    -0.271 OA
HETATM   36  N5  UNL     1      18.335 -32.457  -2.335  1.00  0.00    -0.329 N
HETATM   37  C23 UNL     1      18.253 -31.178  -1.664  1.00  0.00     0.133 C
HETATM   38  C28 UNL     1      17.337 -33.129  -3.126  1.00  0.00     0.305 C
HETATM   39  C24 UNL     1      17.807 -30.050  -2.550  1.00  0.00     0.064 C
HETATM   40  C25 UNL     1      16.345 -30.153  -2.692  1.00  0.00     0.013 A
HETATM   41  C26 UNL     1      15.485 -29.101  -2.676  1.00  0.00     0.118 A
HETATM   42  C27 UNL     1      15.598 -31.309  -2.862  1.00  0.00     0.166 A
HETATM   43  N6  UNL     1      14.248 -29.639  -2.835  1.00  0.00    -0.309 N
HETATM   44  N7  UNL     1      14.329 -30.945  -2.944  1.00  0.00    -0.280 N
ATOM     45  H6  UNL     1      13.379 -29.104  -2.866  1.00  0.00     0.186 HD
ATOM     46  H7  UNL     1      13.539 -31.578  -3.072  1.00  0.00     0.189 HD
HETATM   47  O5  UNL     1      16.028 -32.612  -2.940  1.00  0.00    -0.314 OA
ENDBRANCH  33  34
ENDBRANCH   1  33
TORSDOF 5
ENDMDL