MODEL 3
REMARK VINA RESULT: -8.309385963      1.914      2.277
REMARK  10 active torsions:
REMARK  status: ('A' for Active; 'I' for Inactive)
REMARK    1  A    between atoms: C2_2  and  N1_3
REMARK    2  A    between atoms: C2_2  and  C3_7
REMARK    3  A    between atoms: C4_8  and  C5_9
REMARK    4  A    between atoms: C6_10  and  C7_11
REMARK    5  A    between atoms: C13_19  and  C14_20
REMARK    6  A    between atoms: C15_21  and  C16_22
REMARK    7  A    between atoms: C25_37  and  N5_38
REMARK    8  A    between atoms: N6_41  and  C28_42
REMARK    9  A    between atoms: C28_42  and  C29_43
REMARK   10  A    between atoms: C29_43  and  O3_44
ROOT
HETATM    1  C5  UNL     1      19.629 -34.685  -5.738  1.00  0.00     0.097 A
HETATM    2  C6  UNL     1      20.871 -35.217  -5.679  1.00  0.00     0.085 A
HETATM    3  N4  UNL     1      21.376 -35.931  -6.738  1.00  0.00    -0.339 N
ATOM      4  H4  UNL     1      22.318 -36.315  -6.663  1.00  0.00     0.167 HD
HETATM    5  C25 UNL     1      20.684 -36.146  -7.864  1.00  0.00     0.107 A
HETATM    6  C32 UNL     1      19.416 -35.616  -7.929  1.00  0.00     0.104 A
HETATM    7  C33 UNL     1      18.866 -34.895  -6.907  1.00  0.00     0.196 A
HETATM    8  O4  UNL     1      17.709 -34.409  -6.961  1.00  0.00    -0.287 OA
ENDROOT
BRANCH   2   9
HETATM    9  C7  UNL     1      21.750 -34.965  -4.516  1.00  0.00     0.077 A
HETATM   10  C8  UNL     1      21.554 -35.796  -3.393  1.00  0.00     0.120 A
HETATM   11  N2  UNL     1      22.350 -35.794  -2.332  1.00  0.00    -0.362 N
HETATM   12  C9  UNL     1      23.402 -34.981  -2.272  1.00  0.00     0.060 A
ATOM     13  H2  UNL     1      22.153 -36.423  -1.553  1.00  0.00     0.165 HD
HETATM   14  C10 UNL     1      24.231 -34.928  -1.191  1.00  0.00     0.032 A
HETATM   15  C24 UNL     1      23.630 -34.130  -3.373  1.00  0.00     0.078 A
HETATM   16  C11 UNL     1      25.283 -34.062  -1.130  1.00  0.00     0.004 A
HETATM   17  C12 UNL     1      25.487 -33.237  -2.196  1.00  0.00     0.023 A
HETATM   18  C13 UNL     1      24.667 -33.247  -3.337  1.00  0.00     0.047 A
HETATM   19  N3  UNL     1      22.799 -34.163  -4.444  1.00  0.00    -0.350 N
ATOM     20  H3  UNL     1      22.992 -33.541  -5.230  1.00  0.00     0.166 HD
BRANCH  18  21
HETATM   21  C14 UNL     1      24.842 -32.214  -4.308  1.00  0.00    -0.059 C
HETATM   22  C15 UNL     1      25.036 -31.398  -5.176  1.00  0.00    -0.061 C
BRANCH  22  23
HETATM   23  C16 UNL     1      25.291 -30.459  -6.233  1.00  0.00     0.021 A
HETATM   24  C17 UNL     1      26.108 -30.832  -7.299  1.00  0.00     0.023 A
HETATM   25  C18 UNL     1      26.389 -29.975  -8.341  1.00  0.00     0.041 A
HETATM   26  C19 UNL     1      25.861 -28.704  -8.358  1.00  0.00     0.102 A
HETATM   27  C20 UNL     1      25.052 -28.308  -7.321  1.00  0.00     0.103 A
HETATM   28  O2  UNL     1      26.120 -27.807  -9.391  1.00  0.00    -0.346 OA
HETATM   29  C21 UNL     1      24.783 -29.185  -6.285  1.00  0.00     0.060 A
HETATM   30  O1  UNL     1      24.542 -27.020  -7.379  1.00  0.00    -0.346 OA
HETATM   31  C22 UNL     1      24.333 -26.341  -8.610  1.00  0.00     0.202 C
HETATM   32  C23 UNL     1      25.337 -26.687  -9.666  1.00  0.00     0.202 C
ENDBRANCH  22  23
ENDBRANCH  18  21
ENDBRANCH   2   9
BRANCH   1  33
HETATM   33  C4  UNL     1      19.083 -33.710  -4.800  1.00  0.00    -0.058 C
HETATM   34  C3  UNL     1      18.610 -33.001  -3.959  1.00  0.00    -0.068 C
BRANCH  34  35
HETATM   35  C2  UNL     1      18.025 -32.206  -2.857  1.00  0.00     0.258 C
HETATM   36  C1  UNL     1      16.992 -31.230  -3.326  1.00  0.00     0.053 C
BRANCH  35  37
HETATM   37  N1  UNL     1      17.307 -33.193  -2.027  1.00  0.00    -0.065 N
ATOM     38  H13 UNL     1      16.896 -32.793  -1.184  1.00  0.00     0.275 HD
ATOM     39  H12 UNL     1      16.436 -33.519  -2.446  1.00  0.00     0.275 HD
ATOM     40  H11 UNL     1      17.973 -33.942  -1.839  1.00  0.00     0.275 HD
ENDBRANCH  35  37
ENDBRANCH  34  35
ENDBRANCH   1  33
BRANCH   5  41
HETATM   41  N5  UNL     1      21.228 -36.903  -8.952  1.00  0.00    -0.364 N
HETATM   42  C26 UNL     1      22.632 -37.215  -8.941  1.00  0.00     0.154 C
HETATM   43  C27 UNL     1      22.943 -38.387  -9.850  1.00  0.00     0.292 C
HETATM   44  N6  UNL     1      22.438 -38.219 -11.180  1.00  0.00     0.093 N
HETATM   45  C30 UNL     1      21.269 -37.429 -11.300  1.00  0.00     0.292 C
HETATM   46  C31 UNL     1      20.426 -37.348 -10.040  1.00  0.00     0.154 C
BRANCH  44  47
HETATM   47  C28 UNL     1      22.474 -39.457 -11.872  1.00  0.00     0.298 C
BRANCH  47  48
HETATM   48  C29 UNL     1      21.613 -39.552 -13.091  1.00  0.00     0.194 C
BRANCH  48  49
HETATM   49  O3  UNL     1      20.625 -40.525 -12.891  1.00  0.00    -0.399 OA
ATOM     50  H3  UNL     1      19.946 -40.176 -12.325  1.00  0.00     0.209 HD
ENDBRANCH  48  49
ENDBRANCH  47  48
ENDBRANCH  44  47
ENDBRANCH   5  41
TORSDOF 10
ENDMDL