MODEL 1
REMARK VINA RESULT: -8.395494725      0.000      0.000
REMARK  7 active torsions:
REMARK  status: ('A' for Active; 'I' for Inactive)
REMARK    1  A    between atoms: S1_2  and  N1_5
REMARK    2  A    between atoms: N1_5  and  C2_7
REMARK    3  A    between atoms: C8_18  and  C9_19
REMARK    4  A    between atoms: C9_19  and  C10_21
REMARK       I    between atoms: C10_21  and  N3_23
REMARK    5  A    between atoms: N3_23  and  C11_25
REMARK    6  A    between atoms: N5_35  and  C18_36
REMARK    7  A    between atoms: C23_41  and  O7_42
ROOT
HETATM    1  C2  UNL     1      19.584 -34.275  -3.681  1.00  0.00     0.043 A
HETATM    2  C3  UNL     1      20.354 -34.224  -2.526  1.00  0.00     0.032 A
HETATM    3  C4  UNL     1      21.728 -34.463  -2.534  1.00  0.00     0.034 A
HETATM    4  C5  UNL     1      22.360 -34.763  -3.730  1.00  0.00     0.065 A
HETATM    5  C6  UNL     1      21.592 -34.812  -4.861  1.00  0.00     0.109 A
HETATM    6  C7  UNL     1      20.232 -34.572  -4.834  1.00  0.00     0.057 A
HETATM    7  S2  UNL     1      22.359 -35.227  -6.374  1.00  0.00     0.266 S
HETATM    8  O3  UNL     1      22.218 -34.086  -7.366  1.00  0.00    -0.200 OA
HETATM    9  O4  UNL     1      21.748 -36.462  -6.976  1.00  0.00    -0.200 OA
HETATM   10  N2  UNL     1      24.011 -35.419  -6.059  1.00  0.00    -0.262 N
ATOM     11  H2  UNL     1      24.639 -35.629  -6.834  1.00  0.00     0.180 HD
HETATM   12  C8  UNL     1      24.508 -35.309  -4.862  1.00  0.00     0.179 A
HETATM   13  N5  UNL     1      23.787 -35.002  -3.702  1.00  0.00    -0.290 N
ENDROOT
BRANCH  12  14
HETATM   14  C9  UNL     1      25.952 -35.509  -4.815  1.00  0.00     0.284 C
HETATM   15  O5  UNL     1      26.517 -36.589  -4.618  1.00  0.00    -0.278 OA
BRANCH  14  16
HETATM   16  C10 UNL     1      26.842 -34.356  -5.013  1.00  0.00     0.301 C
HETATM   17  O6  UNL     1      27.787 -34.109  -4.232  1.00  0.00    -0.264 OA
HETATM   18  N3  UNL     1      26.680 -33.456  -6.103  1.00  0.00    -0.300 N
ATOM     19  H3  UNL     1      26.414 -33.792  -7.029  1.00  0.00     0.171 HD
BRANCH  18  20
HETATM   20  C11 UNL     1      26.887 -32.172  -5.877  1.00  0.00     0.152 A
HETATM   21  N4  UNL     1      26.415 -31.445  -4.869  1.00  0.00    -0.335 N
HETATM   22  C12 UNL     1      26.732 -30.169  -4.812  1.00  0.00     0.051 A
ATOM     23  H4  UNL     1      25.820 -31.867  -4.156  1.00  0.00     0.168 HD
HETATM   24  C13 UNL     1      26.327 -29.244  -3.821  1.00  0.00     0.031 A
HETATM   25  C17 UNL     1      27.531 -29.670  -5.800  1.00  0.00     0.035 A
HETATM   26  C14 UNL     1      26.720 -27.942  -3.866  1.00  0.00     0.002 A
HETATM   27  C15 UNL     1      27.526 -27.433  -4.860  1.00  0.00     0.002 A
HETATM   28  C16 UNL     1      27.929 -28.323  -5.834  1.00  0.00     0.021 A
HETATM   29  S3  UNL     1      27.799 -31.047  -6.774  1.00  0.00    -0.052 SA
ENDBRANCH  18  20
ENDBRANCH  14  16
ENDBRANCH  12  14
BRANCH  13  30
HETATM   30  C18 UNL     1      24.422 -34.851  -2.411  1.00  0.00     0.074 A
HETATM   31  C19 UNL     1      24.618 -35.878  -1.530  1.00  0.00     0.033 A
HETATM   32  C20 UNL     1      25.257 -35.706  -0.311  1.00  0.00     0.002 A
HETATM   33  C21 UNL     1      25.705 -34.453   0.015  1.00  0.00     0.003 A
HETATM   34  C22 UNL     1      25.534 -33.393  -0.831  1.00  0.00     0.039 A
HETATM   35  C23 UNL     1      24.899 -33.589  -2.031  1.00  0.00     0.092 A
BRANCH  35  36
HETATM   36  O7  UNL     1      24.713 -32.516  -2.917  1.00  0.00    -0.358 OA
ATOM     37  H7  UNL     1      25.120 -32.565  -3.774  1.00  0.00     0.217 HD
ENDBRANCH  35  36
ENDBRANCH  13  30
BRANCH   1  38
HETATM   38  N1  UNL     1      18.202 -34.007  -3.529  1.00  0.00    -0.285 N
ATOM     39  H1  UNL     1      17.682 -34.608  -2.889  1.00  0.00     0.178 HD
BRANCH  38  40
HETATM   40  S1  UNL     1      17.327 -32.773  -4.317  1.00  0.00     0.227 S
HETATM   41  C1  UNL     1      16.438 -31.828  -3.119  1.00  0.00     0.186 C
HETATM   42  O1  UNL     1      18.308 -31.829  -4.979  1.00  0.00    -0.206 OA
HETATM   43  O2  UNL     1      16.412 -33.320  -5.382  1.00  0.00    -0.206 OA
ENDBRANCH  38  40
ENDBRANCH   1  38
TORSDOF 7
ENDMDL