MODEL 2
REMARK VINA RESULT: -9.432342981      2.319      4.758
REMARK  6 active torsions:
REMARK  status: ('A' for Active; 'I' for Inactive)
REMARK    1  A    between atoms: C5_9  and  C6_10
REMARK    2  A    between atoms: C8_16  and  C9_17
REMARK       I    between atoms: C9_17  and  N5_19
REMARK    3  A    between atoms: C17_29  and  C18_30
REMARK    4  A    between atoms: N10_42  and  C24_43
REMARK    5  A    between atoms: C24_43  and  C25_44
REMARK    6  A    between atoms: N11_49  and  O2_50
ROOT
HETATM    1  C6  UNL     1      18.218 -32.908  -4.038  1.00  0.00     0.059 A
HETATM    2  C7  UNL     1      17.449 -31.734  -3.880  1.00  0.00     0.124 A
HETATM    3  N3  UNL     1      17.764 -31.244  -2.697  1.00  0.00    -0.310 N
ATOM      4  H3  UNL     1      17.366 -30.391  -2.303  1.00  0.00     0.186 HD
HETATM    5  N4  UNL     1      18.657 -31.994  -2.092  1.00  0.00    -0.295 N
ATOM      6  H4  UNL     1      19.048 -31.812  -1.168  1.00  0.00     0.187 HD
HETATM    7  C8  UNL     1      18.980 -33.054  -2.889  1.00  0.00     0.132 A
ENDROOT
BRANCH   1   8
HETATM    8  C5  UNL     1      18.169 -33.741  -5.245  1.00  0.00     0.121 A
HETATM    9  N2  UNL     1      17.099 -34.340  -5.750  1.00  0.00    -0.349 N
HETATM   10  C4  UNL     1      17.129 -35.098  -6.843  1.00  0.00     0.123 A
ATOM     11  H2  UNL     1      16.205 -34.211  -5.276  1.00  0.00     0.167 HD
HETATM   12  C3  UNL     1      18.341 -35.273  -7.489  1.00  0.00     0.094 A
HETATM   13  N1  UNL     1      18.732 -35.958  -8.571  1.00  0.00    -0.342 N
HETATM   14  C23 UNL     1      19.451 -34.658  -6.973  1.00  0.00     0.139 A
HETATM   15  C2  UNL     1      20.052 -35.797  -8.759  1.00  0.00     0.081 A
ATOM     16  H1  UNL     1      18.119 -36.518  -9.164  1.00  0.00     0.167 HD
HETATM   17  C1  UNL     1      20.855 -36.426  -9.879  1.00  0.00     0.089 C
HETATM   18  N10 UNL     1      20.498 -35.001  -7.783  1.00  0.00    -0.315 N
HETATM   19  N9  UNL     1      19.377 -33.906  -5.874  1.00  0.00    -0.326 N
ATOM     20  H9  UNL     1      20.213 -33.455  -5.503  1.00  0.00     0.169 HD
BRANCH  18  21
HETATM   21  C24 UNL     1      21.837 -34.555  -7.520  1.00  0.00     0.191 C
BRANCH  21  22
HETATM   22  C25 UNL     1      22.815 -35.597  -7.151  1.00  0.00     0.058 A
HETATM   23  C26 UNL     1      22.485 -36.851  -6.687  1.00  0.00     0.029 A
HETATM   24  C27 UNL     1      23.407 -37.833  -6.366  1.00  0.00     0.003 A
HETATM   25  C28 UNL     1      24.745 -37.560  -6.511  1.00  0.00     0.020 A
HETATM   26  C29 UNL     1      25.081 -36.311  -6.973  1.00  0.00     0.123 A
HETATM   27  N11 UNL     1      24.162 -35.388  -7.275  1.00  0.00    -0.239 N
BRANCH  27  28
HETATM   28  O2  UNL     1      24.586 -34.171  -7.762  1.00  0.00    -0.283 OA
ATOM     29  H2  UNL     1      24.352 -33.941  -8.654  1.00  0.00     0.245 HD
ENDBRANCH  27  28
ENDBRANCH  21  22
ENDBRANCH  18  21
ENDBRANCH   1   8
BRANCH   7  30
HETATM   30  C9  UNL     1      19.978 -34.059  -2.549  1.00  0.00     0.279 C
HETATM   31  O1  UNL     1      19.620 -35.136  -1.945  1.00  0.00    -0.265 OA
HETATM   32  N5  UNL     1      21.364 -33.954  -2.835  1.00  0.00    -0.286 N
HETATM   33  C10 UNL     1      22.344 -34.870  -2.238  1.00  0.00     0.048 A
HETATM   34  C22 UNL     1      22.167 -33.123  -3.694  1.00  0.00     0.235 C
HETATM   35  C11 UNL     1      22.323 -35.561  -1.046  1.00  0.00     0.030 A
HETATM   36  C15 UNL     1      23.433 -34.986  -3.069  1.00  0.00    -0.005 A
HETATM   37  C12 UNL     1      23.376 -36.380  -0.653  1.00  0.00     0.002 A
HETATM   38  C13 UNL     1      24.473 -36.507  -1.471  1.00  0.00     0.001 A
HETATM   39  C14 UNL     1      24.483 -35.811  -2.658  1.00  0.00     0.012 A
HETATM   40  C16 UNL     1      23.178 -34.158  -4.252  1.00  0.00     0.162 C
HETATM   41  N6  UNL     1      24.321 -33.542  -4.837  1.00  0.00    -0.365 N
HETATM   42  C17 UNL     1      24.998 -32.511  -4.138  1.00  0.00     0.100 C
ATOM     43  H6  UNL     1      24.650 -33.841  -5.755  1.00  0.00     0.161 HD
HETATM   44  N7  UNL     1      24.302 -31.874  -3.249  1.00  0.00    -0.291 N
HETATM   45  N8  UNL     1      22.981 -32.168  -2.983  1.00  0.00    -0.309 N
ATOM     46  H7  UNL     1      24.750 -31.124  -2.724  1.00  0.00     0.188 HD
ATOM     47  H8  UNL     1      22.540 -31.664  -2.214  1.00  0.00     0.182 HD
BRANCH  42  48
HETATM   48  C18 UNL     1      26.416 -32.204  -4.433  1.00  0.00     0.009 C
HETATM   49  C19 UNL     1      27.212 -33.479  -4.230  1.00  0.00     0.023 C
HETATM   50  C20 UNL     1      26.937 -31.065  -3.621  1.00  0.00     0.023 C
HETATM   51  C21 UNL     1      26.559 -31.837  -5.900  1.00  0.00     0.023 C
ENDBRANCH  42  48
ENDBRANCH   7  30
TORSDOF 6
ENDMDL