MODEL 3
REMARK VINA RESULT: -9.875868482      1.856      2.792
REMARK  5 active torsions:
REMARK  status: ('A' for Active; 'I' for Inactive)
REMARK    1  A    between atoms: N1_1  and  C1_4
REMARK    2  A    between atoms: C9_14  and  C10_15
REMARK       I    between atoms: C10_15  and  N3_17
REMARK    3  A    between atoms: N4_20  and  C13_21
REMARK    4  A    between atoms: C21_35  and  C22_36
REMARK    5  A    between atoms: N10_43  and  C25_45
ROOT
HETATM    1  C13 UNL     1      22.462 -35.528  -4.923  1.00  0.00     0.119 C
HETATM    2  N5  UNL     1      23.144 -36.668  -5.309  1.00  0.00    -0.326 N
ATOM      3  H5  UNL     1      23.746 -37.117  -4.618  1.00  0.00     0.169 HD
HETATM    4  C14 UNL     1      23.070 -37.234  -6.548  1.00  0.00     0.135 A
HETATM    5  N6  UNL     1      23.887 -38.201  -7.003  1.00  0.00    -0.284 N
ATOM      6  H6  UNL     1      24.652 -38.622  -6.475  1.00  0.00     0.188 HD
HETATM    7  N7  UNL     1      23.544 -38.525  -8.249  1.00  0.00    -0.298 N
ATOM      8  H7  UNL     1      24.008 -39.231  -8.819  1.00  0.00     0.187 HD
HETATM    9  C15 UNL     1      22.494 -37.780  -8.645  1.00  0.00     0.063 A
HETATM   10  C16 UNL     1      21.726 -37.667  -9.786  1.00  0.00     0.032 A
HETATM   11  C17 UNL     1      20.690 -36.758  -9.835  1.00  0.00     0.003 A
HETATM   12  C18 UNL     1      20.372 -35.933  -8.772  1.00  0.00     0.012 A
HETATM   13  C19 UNL     1      21.129 -36.044  -7.646  1.00  0.00    -0.019 A
HETATM   14  C20 UNL     1      20.721 -35.169  -6.635  1.00  0.00     0.031 C
HETATM   15  C21 UNL     1      21.235 -35.129  -5.323  1.00  0.00     0.053 C
HETATM   16  C28 UNL     1      22.182 -36.950  -7.563  1.00  0.00     0.048 A
ENDROOT
BRANCH   1  17
HETATM   17  N4  UNL     1      23.194 -34.721  -4.046  1.00  0.00    -0.363 N
HETATM   18  C12 UNL     1      24.123 -35.354  -3.122  1.00  0.00     0.144 C
HETATM   19  C11 UNL     1      25.469 -34.662  -3.138  1.00  0.00     0.146 C
HETATM   20  N3  UNL     1      25.401 -33.279  -3.547  1.00  0.00    -0.345 N
HETATM   21  C10 UNL     1      26.551 -32.671  -4.112  1.00  0.00     0.257 C
HETATM   22  C30 UNL     1      24.156 -32.576  -3.358  1.00  0.00     0.146 C
HETATM   23  O1  UNL     1      27.596 -33.359  -4.241  1.00  0.00    -0.267 OA
HETATM   24  C29 UNL     1      23.068 -33.289  -4.128  1.00  0.00     0.144 C
BRANCH  21  25
HETATM   25  C9  UNL     1      26.608 -31.295  -4.560  1.00  0.00     0.076 A
HETATM   26  C1  UNL     1      26.646 -31.041  -5.910  1.00  0.00     0.115 A
HETATM   27  N2  UNL     1      26.699 -29.778  -6.361  1.00  0.00    -0.341 N
HETATM   28  C2  UNL     1      26.717 -28.714  -5.541  1.00  0.00     0.044 A
ATOM     29  H2  UNL     1      26.726 -29.619  -7.368  1.00  0.00     0.167 HD
HETATM   30  C3  UNL     1      26.774 -27.458  -6.100  1.00  0.00     0.030 A
HETATM   31  C7  UNL     1      26.681 -28.931  -4.182  1.00  0.00    -0.008 A
HETATM   32  C4  UNL     1      26.794 -26.374  -5.248  1.00  0.00     0.002 A
HETATM   33  C5  UNL     1      26.758 -26.559  -3.885  1.00  0.00     0.001 A
HETATM   34  C6  UNL     1      26.702 -27.832  -3.353  1.00  0.00     0.014 A
HETATM   35  C8  UNL     1      26.626 -30.216  -3.704  1.00  0.00     0.034 A
BRANCH  26  36
HETATM   36  N1  UNL     1      26.631 -32.012  -6.758  1.00  0.00    -0.385 N
ATOM     37  H12 UNL     1      27.205 -31.971  -7.601  1.00  0.00     0.157 HD
ATOM     38  H11 UNL     1      26.040 -32.823  -6.577  1.00  0.00     0.157 HD
ENDBRANCH  26  36
ENDBRANCH  21  25
ENDBRANCH   1  17
BRANCH  15  39
HETATM   39  C22 UNL     1      20.364 -34.617  -4.291  1.00  0.00     0.136 A
HETATM   40  N8  UNL     1      20.290 -35.204  -3.101  1.00  0.00    -0.337 N
HETATM   41  C23 UNL     1      19.492 -34.738  -2.141  1.00  0.00     0.199 A
ATOM     42  H8  UNL     1      20.857 -36.032  -2.918  1.00  0.00     0.168 HD
HETATM   43  N9  UNL     1      18.723 -33.658  -2.310  1.00  0.00    -0.188 N
HETATM   44  C24 UNL     1      18.793 -33.054  -3.521  1.00  0.00     0.681 A
ATOM     45  H9  UNL     1      18.116 -33.308  -1.568  1.00  0.00     0.185 HD
HETATM   46  N10 UNL     1      18.078 -32.028  -3.723  1.00  0.00    -0.217 N
HETATM   47  N11 UNL     1      19.593 -33.527  -4.476  1.00  0.00    -0.176 N
ATOM     48  H10 UNL     1      18.150 -31.592  -4.642  1.00  0.00     0.178 HD
ATOM     49  H11 UNL     1      19.624 -33.049  -5.376  1.00  0.00     0.186 HD
BRANCH  46  50
HETATM   50  C25 UNL     1      17.180 -31.420  -2.789  1.00  0.00     0.147 C
HETATM   51  C26 UNL     1      16.952 -29.955  -2.937  1.00  0.00     0.195 C
HETATM   52  O2  UNL     1      15.609 -30.155  -2.619  1.00  0.00    -0.387 OA
HETATM   53  C27 UNL     1      15.725 -31.452  -3.116  1.00  0.00     0.195 C
ENDBRANCH  46  50
ENDBRANCH  15  39
TORSDOF 5
ENDMDL