MODEL 2
REMARK VINA RESULT: -7.955825546      0.599      1.021
REMARK  5 active torsions:
REMARK  status: ('A' for Active; 'I' for Inactive)
REMARK    1  A    between atoms: N1_1  and  S1_4
REMARK    2  A    between atoms: S1_4  and  C1_7
REMARK    3  A    between atoms: C4_10  and  N2_11
REMARK    4  A    between atoms: C18_32  and  C19_33
REMARK    5  A    between atoms: C25_39  and  O5_40
ROOT
HETATM    1  N2  UNL     1      24.737 -33.455  -5.490  1.00  0.00    -0.229 N
HETATM    2  C5  UNL     1      24.922 -34.164  -6.689  1.00  0.00     0.342 A
HETATM    3  O3  UNL     1      25.572 -33.750  -7.696  1.00  0.00    -0.246 OA
HETATM    4  N3  UNL     1      24.242 -35.423  -6.542  1.00  0.00    -0.219 N
HETATM    5  C6  UNL     1      24.251 -36.325  -7.636  1.00  0.00     0.283 C
HETATM    6  O4  UNL     1      24.942 -36.061  -8.667  1.00  0.00    -0.265 OA
HETATM    7  C7  UNL     1      23.491 -37.583  -7.658  1.00  0.00     0.128 A
HETATM    8  N4  UNL     1      23.942 -38.430  -8.605  1.00  0.00    -0.349 N
ATOM      9  H4  UNL     1      24.722 -38.138  -9.194  1.00  0.00     0.166 HD
HETATM   10  C8  UNL     1      23.393 -39.667  -8.806  1.00  0.00     0.043 A
HETATM   11  C9  UNL     1      23.959 -40.482  -9.856  1.00  0.00    -0.009 A
HETATM   12  C10 UNL     1      24.991 -40.011 -10.634  1.00  0.00     0.013 A
HETATM   13  C11 UNL     1      25.539 -40.803 -11.647  1.00  0.00     0.001 A
HETATM   14  C12 UNL     1      25.014 -42.058 -11.837  1.00  0.00     0.000 A
HETATM   15  C13 UNL     1      23.986 -42.562 -11.082  1.00  0.00     0.001 A
HETATM   16  C14 UNL     1      23.472 -41.744 -10.087  1.00  0.00     0.013 A
HETATM   17  C15 UNL     1      22.345 -40.015  -7.991  1.00  0.00     0.033 A
HETATM   18  C16 UNL     1      21.827 -39.210  -7.006  1.00  0.00     0.034 A
HETATM   19  C17 UNL     1      22.431 -37.969  -6.855  1.00  0.00     0.061 A
HETATM   20  N5  UNL     1      21.869 -37.159  -5.836  1.00  0.00    -0.374 N
ATOM     21  H5  UNL     1      20.963 -37.511  -5.526  1.00  0.00     0.160 HD
HETATM   22  C18 UNL     1      22.248 -35.978  -5.134  1.00  0.00     0.181 C
HETATM   23  C25 UNL     1      23.659 -35.552  -5.261  1.00  0.00     0.253 A
HETATM   24  C26 UNL     1      23.957 -34.257  -4.617  1.00  0.00     0.291 A
HETATM   25  O6  UNL     1      23.617 -33.845  -3.481  1.00  0.00    -0.267 OA
ENDROOT
BRANCH   1  26
HETATM   26  C4  UNL     1      25.280 -32.150  -5.251  1.00  0.00     0.047 A
HETATM   27  C3  UNL     1      24.710 -31.047  -5.864  1.00  0.00     0.032 A
HETATM   28  C2  UNL     1      25.190 -29.765  -5.665  1.00  0.00     0.027 A
HETATM   29  C1  UNL     1      26.267 -29.543  -4.836  1.00  0.00     0.079 A
HETATM   30  C28 UNL     1      26.846 -30.628  -4.219  1.00  0.00     0.027 A
HETATM   31  C27 UNL     1      26.356 -31.924  -4.425  1.00  0.00     0.032 A
BRANCH  29  32
HETATM   32  S1  UNL     1      26.863 -27.912  -4.583  1.00  0.00     0.256 S
HETATM   33  O1  UNL     1      26.067 -26.954  -5.409  1.00  0.00    -0.201 OA
HETATM   34  O2  UNL     1      26.702 -27.492  -3.144  1.00  0.00    -0.201 OA
BRANCH  32  35
HETATM   35  N1  UNL     1      28.532 -27.759  -4.991  1.00  0.00    -0.324 N
ATOM     36  H12 UNL     1      28.916 -27.900  -5.926  1.00  0.00     0.169 HD
ATOM     37  H11 UNL     1      29.060 -27.510  -4.154  1.00  0.00     0.169 HD
ENDBRANCH  32  35
ENDBRANCH  29  32
ENDBRANCH   1  26
BRANCH  23  38
HETATM   38  O5  UNL     1      24.481 -36.479  -4.550  1.00  0.00    -0.361 OA
ATOM     39  H5  UNL     1      25.282 -36.011  -4.346  1.00  0.00     0.213 HD
ENDBRANCH  23  38
BRANCH  22  40
HETATM   40  C19 UNL     1      21.250 -34.929  -5.439  1.00  0.00    -0.030 A
HETATM   41  C20 UNL     1      21.165 -34.404  -6.718  1.00  0.00     0.009 A
HETATM   42  C21 UNL     1      20.252 -33.437  -7.060  1.00  0.00     0.001 A
HETATM   43  C22 UNL     1      19.379 -32.953  -6.122  1.00  0.00     0.000 A
HETATM   44  C23 UNL     1      19.421 -33.435  -4.851  1.00  0.00     0.001 A
HETATM   45  C24 UNL     1      20.349 -34.407  -4.536  1.00  0.00     0.009 A
ENDBRANCH  22  40
TORSDOF 5
ENDMDL