MODEL 2
REMARK VINA RESULT: -6.921506726      5.589      7.140
REMARK  4 active torsions:
REMARK  status: ('A' for Active; 'I' for Inactive)
REMARK    1  A    between atoms: C1_4  and  C2_5
REMARK    2  A    between atoms: C4_7  and  N2_8
REMARK    3  A    between atoms: N3_13  and  C6_14
REMARK    4  A    between atoms: C7_19  and  N6_20
ROOT
HETATM    1  C2  UNL     1      -4.080  34.663  21.486  1.00  0.00     0.126 C
HETATM    2  C3  UNL     1      -3.967  35.670  22.623  1.00  0.00     0.065 C
HETATM    3  C4  UNL     1      -4.492  36.919  21.940  1.00  0.00     0.203 C
HETATM    4  C5  UNL     1      -5.501  36.397  20.945  1.00  0.00     0.158 C
HETATM    5  N3  UNL     1      -5.406  34.938  21.011  1.00  0.00    -0.350 N
ENDROOT
BRANCH   5   6
HETATM    6  C6  UNL     1      -6.470  34.066  20.656  1.00  0.00     0.189 A
HETATM    7  N4  UNL     1      -6.715  33.744  19.369  1.00  0.00    -0.267 N
HETATM    8  N5  UNL     1      -7.710  32.927  19.022  1.00  0.00    -0.131 N
ATOM      9  H4  UNL     1      -6.121  34.138  18.638  1.00  0.00     0.189 HD
HETATM   10  C7  UNL     1      -8.514  32.390  19.958  1.00  0.00     0.693 A
ATOM     11  H5  UNL     1      -7.863  32.706  18.038  1.00  0.00     0.205 HD
HETATM   12  N7  UNL     1      -8.305  32.683  21.238  1.00  0.00    -0.152 N
HETATM   13  C8  UNL     1      -7.304  33.505  21.599  1.00  0.00     0.305 A
ATOM     14  H7  UNL     1      -8.910  32.281  21.953  1.00  0.00     0.188 HD
HETATM   15  O1  UNL     1      -7.152  33.747  22.820  1.00  0.00    -0.263 OA
BRANCH  10  16
HETATM   16  N6  UNL     1      -9.469  31.602  19.589  1.00  0.00    -0.233 N
ATOM     17  H62 UNL     1      -9.386  31.008  18.765  1.00  0.00     0.174 HD
ATOM     18  H61 UNL     1     -10.329  31.574  20.137  1.00  0.00     0.174 HD
ENDBRANCH  10  16
ENDBRANCH   5   6
BRANCH   1  19
HETATM   19  C1  UNL     1      -3.866  33.283  21.922  1.00  0.00     0.078 C
HETATM   20  N1  UNL     1      -3.411  32.448  21.060  1.00  0.00    -0.409 N
ATOM     21  H12 UNL     1      -3.210  32.753  20.108  1.00  0.00     0.155 HD
ATOM     22  H11 UNL     1      -3.262  31.487  21.364  1.00  0.00     0.155 HD
ENDBRANCH   1  19
BRANCH   3  23
HETATM   23  N2  UNL     1      -5.107  37.789  22.927  1.00  0.00    -0.073 N
ATOM     24  H23 UNL     1      -6.119  37.671  22.968  1.00  0.00     0.274 HD
ATOM     25  H22 UNL     1      -4.888  37.503  23.882  1.00  0.00     0.274 HD
ATOM     26  H21 UNL     1      -4.838  38.756  22.743  1.00  0.00     0.274 HD
ENDBRANCH   3  23
TORSDOF 4
ENDMDL