MODEL 4
REMARK VINA RESULT: -7.472789917      2.120      3.525
REMARK  5 active torsions:
REMARK  status: ('A' for Active; 'I' for Inactive)
REMARK    1  A    between atoms: N2_4  and  O1_6
REMARK    2  A    between atoms: O1_6  and  C1_7
REMARK    3  A    between atoms: C1_7  and  C2_9
REMARK    4  A    between atoms: C3_10  and  C4_11
REMARK    5  A    between atoms: C5_16  and  N5_17
ROOT
HETATM    1  C2  UNL     1      -9.683  31.176  17.145  1.00  0.00     0.142 A
HETATM    2  C3  UNL     1      -9.882  30.611  18.397  1.00  0.00     0.136 A
HETATM    3  N4  UNL     1      -9.261  31.175  19.452  1.00  0.00    -0.186 N
ATOM      4  H4  UNL     1      -9.406  30.760  20.372  1.00  0.00     0.184 HD
HETATM    5  C5  UNL     1      -8.460  32.252  19.365  1.00  0.00     0.679 A
HETATM    6  N6  UNL     1      -8.268  32.799  18.155  1.00  0.00    -0.155 N
ATOM      7  H6  UNL     1      -7.665  33.617  18.062  1.00  0.00     0.187 HD
HETATM    8  C6  UNL     1      -8.856  32.285  17.066  1.00  0.00     0.278 A
HETATM    9  O4  UNL     1      -8.654  32.822  15.947  1.00  0.00    -0.266 OA
ENDROOT
BRANCH   1  10
HETATM   10  C1  UNL     1     -10.333  30.605  15.973  1.00  0.00     0.324 C
HETATM   11  O2  UNL     1      -9.796  29.664  15.334  1.00  0.00    -0.257 OA
BRANCH  10  12
HETATM   12  O1  UNL     1     -11.556  31.066  15.513  1.00  0.00    -0.179 OA
BRANCH  12  13
HETATM   13  N2  UNL     1     -12.459  31.738  16.264  1.00  0.00    -0.205 N
HETATM   14  N1  UNL     1     -13.469  32.344  15.855  1.00  0.00    -0.325 N
ATOM     15  H12 UNL     1     -13.614  32.321  14.845  1.00  0.00     0.178 HD
ATOM     16  H11 UNL     1     -14.150  32.850  16.421  1.00  0.00     0.178 HD
ATOM     17  H2  UNL     1     -12.297  31.751  17.271  1.00  0.00     0.216 HD
ENDBRANCH  12  13
ENDBRANCH  10  12
ENDBRANCH   1  10
BRANCH   2  18
HETATM   18  C4  UNL     1     -10.725  29.448  18.600  1.00  0.00     0.283 C
HETATM   19  N3  UNL     1     -10.127  28.217  18.959  1.00  0.00    -0.056 NA
HETATM   20  O3  UNL     1     -11.961  29.566  18.450  1.00  0.00    -0.269 OA
ENDBRANCH   2  18
BRANCH   5  21
HETATM   21  N5  UNL     1      -7.870  32.785  20.381  1.00  0.00    -0.234 N
ATOM     22  H52 UNL     1      -7.733  33.796  20.387  1.00  0.00     0.174 HD
ATOM     23  H51 UNL     1      -7.533  32.250  21.181  1.00  0.00     0.174 HD
ENDBRANCH   5  21
TORSDOF 5
ENDMDL