MODEL 5
REMARK VINA RESULT: -8.179419655      2.281      2.899
REMARK  4 active torsions:
REMARK  status: ('A' for Active; 'I' for Inactive)
REMARK    1  A    between atoms: N1_1  and  C1_4
REMARK    2  A    between atoms: C2_7  and  C3_8
REMARK    3  A    between atoms: N3_9  and  N4_11
REMARK       I    between atoms: C4_13  and  N6_15
REMARK    4  A    between atoms: N6_15  and  N7_17
ROOT
HETATM    1  C1  UNL     1     -10.068  29.189  18.145  1.00  0.00     0.679 A
HETATM    2  N2  UNL     1      -9.011  29.985  18.022  1.00  0.00    -0.191 N
ATOM      3  H2  UNL     1      -8.111  29.671  18.386  1.00  0.00     0.184 HD
HETATM    4  C2  UNL     1      -9.093  31.220  17.419  1.00  0.00     0.071 A
HETATM    5  C5  UNL     1     -10.326  31.572  16.957  1.00  0.00     0.106 A
HETATM    6  C6  UNL     1     -11.420  30.713  17.100  1.00  0.00     0.261 A
HETATM    7  O3  UNL     1     -12.544  31.074  16.659  1.00  0.00    -0.268 OA
HETATM    8  N8  UNL     1     -11.289  29.526  17.693  1.00  0.00    -0.156 N
ATOM      9  H8  UNL     1     -12.085  28.897  17.801  1.00  0.00     0.187 HD
ENDROOT
BRANCH   4  10
HETATM   10  C3  UNL     1      -7.899  32.034  17.321  1.00  0.00     0.137 C
HETATM   11  N3  UNL     1      -7.452  32.815  18.158  1.00  0.00    -0.307 N
ATOM     12  H3  UNL     1      -6.593  33.279  17.862  1.00  0.00     0.186 HD
BRANCH  11  13
HETATM   13  N4  UNL     1      -7.862  33.181  19.378  1.00  0.00    -0.273 N
HETATM   14  C4  UNL     1      -7.161  33.820  20.272  1.00  0.00     0.226 C
HETATM   15  N5  UNL     1      -7.734  34.144  21.533  1.00  0.00    -0.060 NA
HETATM   16  N6  UNL     1      -5.826  34.217  20.042  1.00  0.00    -0.212 N
ATOM     17  H6  UNL     1      -5.213  33.631  19.475  1.00  0.00     0.196 HD
ATOM     18  H4  UNL     1      -8.818  32.935  19.633  1.00  0.00     0.189 HD
BRANCH  16  19
HETATM   19  N7  UNL     1      -5.343  35.398  20.583  1.00  0.00    -0.036 N
HETATM   20  O1  UNL     1      -4.427  35.469  21.410  1.00  0.00    -0.516 OA
HETATM   21  O2  UNL     1      -5.917  36.592  20.178  1.00  0.00    -0.516 OA
ENDBRANCH  16  19
ENDBRANCH  11  13
ENDBRANCH   4  10
BRANCH   1  22
HETATM   22  N1  UNL     1      -9.883  28.039  18.734  1.00  0.00    -0.234 N
ATOM     23  H12 UNL     1      -8.947  27.637  18.787  1.00  0.00     0.174 HD
ATOM     24  H11 UNL     1     -10.704  27.578  19.126  1.00  0.00     0.174 HD
ENDBRANCH   1  22
TORSDOF 4
ENDMDL