MODEL 4
REMARK VINA RESULT: -7.730492113      1.606      1.854
REMARK  3 active torsions:
REMARK  status: ('A' for Active; 'I' for Inactive)
REMARK    1  A    between atoms: C2_7  and  O1_8
REMARK    2  A    between atoms: O1_8  and  C3_9
REMARK    3  A    between atoms: N4_15  and  N5_16
ROOT
HETATM    1  N1  UNL     1      -6.520  33.649  20.931  1.00  0.00    -0.234 N
ATOM      2  H11 UNL     1      -5.657  34.181  20.814  1.00  0.00     0.174 HD
ATOM      3  H12 UNL     1      -6.786  33.378  21.877  1.00  0.00     0.174 HD
HETATM    4  C1  UNL     1      -7.225  33.348  19.888  1.00  0.00     0.683 A
HETATM    5  N2  UNL     1      -8.382  32.635  20.044  1.00  0.00    -0.155 N
ATOM      6  H2  UNL     1      -8.658  32.359  20.987  1.00  0.00     0.188 HD
HETATM    7  C2  UNL     1      -9.166  32.285  19.021  1.00  0.00     0.244 A
HETATM    8  N6  UNL     1      -8.765  32.672  17.771  1.00  0.00    -0.273 N
ATOM      9  H6  UNL     1      -9.338  32.423  16.965  1.00  0.00     0.174 HD
HETATM   10  C6  UNL     1      -7.635  33.373  17.583  1.00  0.00     0.341 A
HETATM   11  O3  UNL     1      -7.226  33.750  16.459  1.00  0.00    -0.246 OA
HETATM   12  N7  UNL     1      -6.878  33.701  18.654  1.00  0.00    -0.141 N
ATOM     13  H7  UNL     1      -6.020  34.233  18.512  1.00  0.00     0.189 HD
ENDROOT
BRANCH   7  14
HETATM   14  O1  UNL     1     -10.322  31.571  19.182  1.00  0.00    -0.292 OA
BRANCH  14  15
HETATM   15  C3  UNL     1     -10.686  30.426  18.521  1.00  0.00     0.275 C
HETATM   16  C4  UNL     1      -9.490  29.705  17.880  1.00  0.00     0.180 C
HETATM   17  N3  UNL     1     -10.168  28.811  16.967  1.00  0.00    -0.337 N
HETATM   18  C5  UNL     1     -11.347  29.484  16.552  1.00  0.00     0.339 C
ATOM     19  H3  UNL     1      -9.860  27.882  16.679  1.00  0.00     0.164 HD
HETATM   20  O2  UNL     1     -12.181  29.104  15.666  1.00  0.00    -0.245 OA
HETATM   21  N4  UNL     1     -11.470  30.699  17.298  1.00  0.00    -0.217 N
BRANCH  21  22
HETATM   22  N5  UNL     1     -12.163  31.862  16.959  1.00  0.00    -0.337 N
ATOM     23  H52 UNL     1     -12.617  32.535  17.577  1.00  0.00     0.177 HD
ATOM     24  H51 UNL     1     -12.336  32.244  16.030  1.00  0.00     0.177 HD
ENDBRANCH  21  22
ENDBRANCH  14  15
ENDBRANCH   7  14
TORSDOF 3
ENDMDL