MODEL 2
REMARK VINA RESULT: -7.488705346      1.961      2.750
REMARK  5 active torsions:
REMARK  status: ('A' for Active; 'I' for Inactive)
REMARK    1  A    between atoms: N1_1  and  C1_5
REMARK    2  A    between atoms: C1_5  and  C2_6
REMARK    3  A    between atoms: C2_6  and  N2_7
REMARK    4  A    between atoms: N2_7  and  C3_9
REMARK    5  A    between atoms: N5_19  and  N6_20
ROOT
HETATM    1  C3  UNL     1      -8.819  31.109  19.309  1.00  0.00     0.682 A
HETATM    2  N3  UNL     1      -8.998  29.794  19.537  1.00  0.00    -0.154 N
ATOM      3  H3  UNL     1      -8.800  29.395  20.456  1.00  0.00     0.187 HD
HETATM    4  C4  UNL     1      -9.441  29.014  18.533  1.00  0.00     0.290 A
HETATM    5  O1  UNL     1      -9.627  27.763  18.698  1.00  0.00    -0.265 OA
HETATM    6  C5  UNL     1      -9.722  29.501  17.271  1.00  0.00     0.152 A
HETATM    7  N4  UNL     1     -10.163  28.974  16.114  1.00  0.00    -0.299 N
ATOM      8  H4  UNL     1     -10.394  27.993  15.959  1.00  0.00     0.171 HD
HETATM    9  C6  UNL     1     -10.251  29.955  15.196  1.00  0.00     0.347 A
HETATM   10  O2  UNL     1     -10.626  29.856  13.985  1.00  0.00    -0.245 OA
HETATM   11  N5  UNL     1      -9.862  31.096  15.785  1.00  0.00    -0.192 N
HETATM   12  C7  UNL     1      -9.527  30.857  17.074  1.00  0.00     0.179 A
HETATM   13  N7  UNL     1      -9.084  31.610  18.092  1.00  0.00    -0.172 N
ATOM     14  H7  UNL     1      -8.942  32.608  17.935  1.00  0.00     0.186 HD
ENDROOT
BRANCH   1  15
HETATM   15  N2  UNL     1      -8.392  31.868  20.269  1.00  0.00    -0.224 N
ATOM     16  H2  UNL     1      -8.301  31.476  21.206  1.00  0.00     0.177 HD
BRANCH  15  17
HETATM   17  C2  UNL     1      -8.040  33.258  20.054  1.00  0.00     0.165 C
BRANCH  17  18
HETATM   18  C1  UNL     1      -7.346  33.720  21.340  1.00  0.00     0.249 C
BRANCH  18  19
HETATM   19  N1  UNL     1      -7.917  32.890  22.407  1.00  0.00    -0.078 N
ATOM     20  H13 UNL     1      -8.935  32.831  22.382  1.00  0.00     0.274 HD
ATOM     21  H12 UNL     1      -7.738  31.892  22.294  1.00  0.00     0.274 HD
ATOM     22  H11 UNL     1      -7.550  33.279  23.276  1.00  0.00     0.274 HD
ENDBRANCH  18  19
ENDBRANCH  17  18
ENDBRANCH  15  17
ENDBRANCH   1  15
BRANCH  11  23
HETATM   23  N6  UNL     1      -9.795  32.375  15.201  1.00  0.00    -0.333 N
ATOM     24  H62 UNL     1      -9.276  33.149  15.618  1.00  0.00     0.177 HD
ATOM     25  H61 UNL     1     -10.231  32.680  14.331  1.00  0.00     0.177 HD
ENDBRANCH  11  23
TORSDOF 5
ENDMDL