MODEL 2
REMARK VINA RESULT: -6.983706313      1.274      3.248
REMARK  5 active torsions:
REMARK  status: ('A' for Active; 'I' for Inactive)
REMARK    1  A    between atoms: N5_12  and  N6_14
REMARK    2  A    between atoms: C6_18  and  N7_19
REMARK    3  A    between atoms: N7_19  and  C7_21
REMARK    4  A    between atoms: C7_21  and  C8_22
REMARK    5  A    between atoms: C8_22  and  N8_23
ROOT
HETATM    1  C1  UNL     1      -8.514  31.387  20.429  1.00  0.00     0.179 C
HETATM    2  N1  UNL     1      -9.224  31.057  19.212  1.00  0.00    -0.279 N
HETATM    3  N2  UNL     1     -10.249  30.268  19.072  1.00  0.00    -0.281 N
ATOM      4  H2  UNL     1     -10.711  29.757  19.823  1.00  0.00     0.189 HD
HETATM    5  C2  UNL     1     -10.600  30.238  17.779  1.00  0.00     0.139 A
HETATM    6  N3  UNL     1     -11.567  29.603  17.076  1.00  0.00    -0.337 N
ATOM      7  H3  UNL     1     -12.207  28.996  17.588  1.00  0.00     0.168 HD
HETATM    8  C3  UNL     1     -11.739  29.720  15.763  1.00  0.00     0.183 A
HETATM    9  N4  UNL     1     -10.901  30.517  15.083  1.00  0.00    -0.337 N
ATOM     10  H4  UNL     1     -11.022  30.616  14.076  1.00  0.00     0.168 HD
HETATM   11  C4  UNL     1      -9.898  31.199  15.694  1.00  0.00     0.138 A
HETATM   12  N5  UNL     1      -9.139  31.938  14.983  1.00  0.00    -0.291 N
ATOM     13  H5  UNL     1      -8.379  32.457  15.424  1.00  0.00     0.188 HD
HETATM   14  C5  UNL     1      -9.748  31.055  17.054  1.00  0.00     0.100 A
HETATM   15  C6  UNL     1      -8.853  31.591  17.972  1.00  0.00     0.135 A
ENDROOT
BRANCH  15  16
HETATM   16  N7  UNL     1      -7.919  32.366  17.804  1.00  0.00    -0.373 N
ATOM     17  H7  UNL     1      -7.129  31.736  17.663  1.00  0.00     0.161 HD
BRANCH  16  18
HETATM   18  C7  UNL     1      -7.348  33.579  17.702  1.00  0.00     0.148 C
BRANCH  18  19
HETATM   19  C8  UNL     1      -7.330  34.316  19.062  1.00  0.00     0.249 C
BRANCH  19  20
HETATM   20  N8  UNL     1      -6.079  33.989  19.720  1.00  0.00    -0.078 N
ATOM     21  H83 UNL     1      -6.211  33.481  20.594  1.00  0.00     0.274 HD
ATOM     22  H82 UNL     1      -5.548  33.271  19.228  1.00  0.00     0.274 HD
ATOM     23  H81 UNL     1      -5.558  34.858  19.838  1.00  0.00     0.274 HD
ENDBRANCH  19  20
ENDBRANCH  18  19
ENDBRANCH  16  18
ENDBRANCH  15  16
BRANCH  12  24
HETATM   24  N6  UNL     1      -9.340  32.042  13.615  1.00  0.00    -0.344 N
ATOM     25  H62 UNL     1      -9.574  32.953  13.221  1.00  0.00     0.176 HD
ATOM     26  H61 UNL     1      -9.256  31.221  13.016  1.00  0.00     0.176 HD
ENDBRANCH  12  24
TORSDOF 5
ENDMDL