MODEL 2
REMARK VINA RESULT: -7.291660031      1.606      5.052
REMARK  4 active torsions:
REMARK  status: ('A' for Active; 'I' for Inactive)
REMARK    1  A    between atoms: N1_1  and  O1_4
REMARK    2  A    between atoms: O1_4  and  C1_5
REMARK    3  A    between atoms: C1_5  and  C2_6
REMARK    4  A    between atoms: C2_6  and  N2_7
ROOT
HETATM    1  N2  UNL     1      -8.479  32.265  18.493  1.00  0.00    -0.262 N
HETATM    2  C3  UNL     1      -9.037  31.566  19.508  1.00  0.00     0.331 A
HETATM    3  O2  UNL     1      -8.575  31.786  20.673  1.00  0.00    -0.246 OA
HETATM    4  N3  UNL     1     -10.032  30.677  19.326  1.00  0.00    -0.292 N
ATOM      5  H3  UNL     1     -10.411  30.183  20.135  1.00  0.00     0.172 HD
HETATM    6  C4  UNL     1     -10.541  30.423  18.107  1.00  0.00     0.146 A
HETATM    7  N4  UNL     1     -11.510  29.611  17.627  1.00  0.00    -0.292 N
ATOM      8  H4  UNL     1     -12.085  28.979  18.184  1.00  0.00     0.172 HD
HETATM    9  C5  UNL     1     -11.591  29.775  16.291  1.00  0.00     0.326 A
HETATM   10  O3  UNL     1     -12.400  29.161  15.541  1.00  0.00    -0.247 OA
HETATM   11  N5  UNL     1     -10.666  30.693  15.955  1.00  0.00    -0.301 N
ATOM     12  H5  UNL     1     -10.493  31.023  15.006  1.00  0.00     0.171 HD
HETATM   13  C6  UNL     1      -9.999  31.117  17.045  1.00  0.00     0.150 A
HETATM   14  C7  UNL     1      -8.970  32.032  17.262  1.00  0.00     0.282 A
HETATM   15  O4  UNL     1      -8.485  32.654  16.296  1.00  0.00    -0.265 OA
ENDROOT
BRANCH   1  16
HETATM   16  C2  UNL     1      -7.410  33.209  18.761  1.00  0.00     0.166 C
BRANCH  16  17
HETATM   17  C1  UNL     1      -8.003  34.596  19.036  1.00  0.00     0.220 C
BRANCH  17  18
HETATM   18  O1  UNL     1      -7.657  34.993  20.318  1.00  0.00    -0.286 OA
BRANCH  18  19
HETATM   19  N1  UNL     1      -6.758  34.214  20.871  1.00  0.00    -0.311 N
ATOM     20  H12 UNL     1      -6.838  33.197  20.875  1.00  0.00     0.184 HD
ATOM     21  H11 UNL     1      -5.984  34.732  21.288  1.00  0.00     0.184 HD
ENDBRANCH  18  19
ENDBRANCH  17  18
ENDBRANCH  16  17
ENDBRANCH   1  16
TORSDOF 4
ENDMDL