MODEL 3
REMARK VINA RESULT: -7.308107223      1.783      4.882
REMARK  5 active torsions:
REMARK  status: ('A' for Active; 'I' for Inactive)
REMARK    1  A    between atoms: O1_2  and  C2_3
REMARK    2  A    between atoms: C3_6  and  N2_7
REMARK    3  A    between atoms: N2_7  and  N3_9
REMARK    4  A    between atoms: C6_13  and  N4_14
REMARK    5  A    between atoms: C7_20  and  N6_21
ROOT
HETATM    1  C2  UNL     1      -9.598  30.367  16.671  1.00  0.00     0.252 A
HETATM    2  N1  UNL     1      -9.505  31.383  17.553  1.00  0.00    -0.152 N
ATOM      3  H1  UNL     1      -9.413  32.344  17.223  1.00  0.00     0.188 HD
HETATM    4  C3  UNL     1      -9.533  31.113  18.886  1.00  0.00     0.714 A
HETATM    5  N5  UNL     1      -9.653  29.841  19.295  1.00  0.00    -0.021 N
ATOM      6  H5  UNL     1      -9.673  29.644  20.295  1.00  0.00     0.203 HD
HETATM    7  C7  UNL     1      -9.748  28.802  18.415  1.00  0.00     0.693 A
HETATM    8  N7  UNL     1      -9.718  29.101  17.108  1.00  0.00    -0.154 N
ATOM      9  H7  UNL     1      -9.789  28.347  16.426  1.00  0.00     0.188 HD
ENDROOT
BRANCH   4  10
HETATM   10  N2  UNL     1      -9.447  32.041  19.753  1.00  0.00    -0.124 N
ATOM     11  H2  UNL     1     -10.284  32.237  20.303  1.00  0.00     0.206 HD
BRANCH  10  12
HETATM   12  N3  UNL     1      -8.333  32.806  20.018  1.00  0.00    -0.215 N
HETATM   13  C4  UNL     1      -7.606  33.776  19.299  1.00  0.00     0.244 C
HETATM   14  O2  UNL     1      -7.426  33.969  18.076  1.00  0.00    -0.271 OA
HETATM   15  C5  UNL     1      -7.213  34.378  20.602  1.00  0.00     0.161 C
HETATM   16  C6  UNL     1      -7.420  32.968  21.113  1.00  0.00     0.316 C
BRANCH  16  17
HETATM   17  N4  UNL     1      -7.983  32.865  22.433  1.00  0.00    -0.056 N
ATOM     18  H43 UNL     1      -8.450  33.738  22.678  1.00  0.00     0.276 HD
ATOM     19  H42 UNL     1      -8.779  32.228  22.419  1.00  0.00     0.276 HD
ATOM     20  H41 UNL     1      -7.342  32.597  23.178  1.00  0.00     0.276 HD
ENDBRANCH  16  17
ENDBRANCH  10  12
ENDBRANCH   4  10
BRANCH   1  21
HETATM   21  O1  UNL     1      -9.577  30.569  15.290  1.00  0.00    -0.326 OA
HETATM   22  C1  UNL     1      -9.260  31.857  14.769  1.00  0.00     0.213 C
ENDBRANCH   1  21
BRANCH   7  23
HETATM   23  N6  UNL     1      -9.861  27.604  18.870  1.00  0.00    -0.234 N
ATOM     24  H62 UNL     1     -10.242  27.383  19.790  1.00  0.00     0.174 HD
ATOM     25  H61 UNL     1      -9.557  26.822  18.290  1.00  0.00     0.174 HD
ENDBRANCH   7  23
TORSDOF 5
ENDMDL