MODEL 3
REMARK VINA RESULT: -7.216626744      3.692      4.872
REMARK  5 active torsions:
REMARK  status: ('A' for Active; 'I' for Inactive)
REMARK    1  A    between atoms: N1_1  and  C1_4
REMARK    2  A    between atoms: C3_11  and  N5_12
REMARK    3  A    between atoms: N5_12  and  O1_14
REMARK    4  A    between atoms: O1_14  and  S1_15
REMARK    5  A    between atoms: S1_15  and  N6_16
ROOT
HETATM    1  C1  UNL     1      -9.202  30.915  19.341  1.00  0.00     0.693 A
HETATM    2  N2  UNL     1      -8.983  29.600  19.565  1.00  0.00    -0.163 N
ATOM      3  H2  UNL     1      -8.197  29.303  20.144  1.00  0.00     0.187 HD
HETATM    4  C2  UNL     1      -9.798  28.691  19.027  1.00  0.00     0.221 A
HETATM    5  N3  UNL     1      -9.573  27.311  19.257  1.00  0.00    -0.062 NA
HETATM    6  N4  UNL     1     -10.835  29.086  18.262  1.00  0.00    -0.161 N
ATOM      7  H4  UNL     1     -11.464  28.399  17.846  1.00  0.00     0.187 HD
HETATM    8  C3  UNL     1     -11.025  30.391  18.058  1.00  0.00     0.720 A
HETATM    9  N7  UNL     1     -10.220  31.322  18.590  1.00  0.00    -0.021 N
ATOM     10  H7  UNL     1     -10.385  32.314  18.422  1.00  0.00     0.203 HD
ENDROOT
BRANCH   8  11
HETATM   11  N5  UNL     1     -12.003  30.782  17.336  1.00  0.00    -0.077 N
ATOM     12  H5  UNL     1     -12.760  31.329  17.747  1.00  0.00     0.214 HD
BRANCH  11  13
HETATM   13  O1  UNL     1     -12.027  30.463  16.021  1.00  0.00    -0.120 OA
BRANCH  13  14
HETATM   14  S1  UNL     1     -10.563  30.452  15.146  1.00  0.00     0.377 S
HETATM   15  O2  UNL     1     -10.896  29.896  13.774  1.00  0.00    -0.174 OA
HETATM   16  O3  UNL     1      -9.535  29.565  15.809  1.00  0.00    -0.174 OA
BRANCH  14  17
HETATM   17  N6  UNL     1     -10.006  32.071  15.023  1.00  0.00    -0.304 N
ATOM     18  H62 UNL     1     -10.316  32.846  15.608  1.00  0.00     0.171 HD
ATOM     19  H61 UNL     1      -9.319  32.112  14.270  1.00  0.00     0.171 HD
ENDBRANCH  14  17
ENDBRANCH  13  14
ENDBRANCH  11  13
ENDBRANCH   8  11
BRANCH   1  20
HETATM   20  N1  UNL     1      -8.405  31.762  19.870  1.00  0.00    -0.234 N
ATOM     21  H12 UNL     1      -7.506  31.464  20.247  1.00  0.00     0.174 HD
ATOM     22  H11 UNL     1      -8.691  32.740  19.906  1.00  0.00     0.174 HD
ENDBRANCH   1  20
TORSDOF 5
ENDMDL