MODEL 1
REMARK VINA RESULT: -7.953532285      0.000      0.000
REMARK  3 active torsions:
REMARK  status: ('A' for Active; 'I' for Inactive)
REMARK    1  A    between atoms: N1_1  and  N2_4
REMARK    2  A    between atoms: N4_8  and  N5_9
REMARK    3  A    between atoms: N6_11  and  C3_13
ROOT
HETATM    1  N5  UNL     1      -7.180  33.451  18.804  1.00  0.00    -0.227 N
ATOM      2  H5  UNL     1      -6.865  33.557  17.840  1.00  0.00     0.209 HD
HETATM    3  N6  UNL     1      -8.126  32.637  19.037  1.00  0.00    -0.279 N
ATOM      4  H6  UNL     1      -8.477  32.494  19.984  1.00  0.00     0.189 HD
ENDROOT
BRANCH   3   5
HETATM    5  C3  UNL     1      -8.679  31.933  17.936  1.00  0.00     0.133 A
HETATM    6  C4  UNL     1      -8.715  32.482  16.654  1.00  0.00     0.129 A
HETATM    7  N7  UNL     1      -9.255  31.747  15.671  1.00  0.00    -0.316 N
HETATM    8  C5  UNL     1      -9.747  30.532  15.897  1.00  0.00     0.327 A
ATOM      9  H7  UNL     1      -9.290  32.130  14.726  1.00  0.00     0.170 HD
HETATM   10  O1  UNL     1     -10.261  29.819  14.990  1.00  0.00    -0.247 OA
HETATM   11  N8  UNL     1      -9.728  29.965  17.140  1.00  0.00    -0.274 N
HETATM   12  C6  UNL     1      -9.198  30.661  18.151  1.00  0.00     0.279 A
ATOM     13  H8  UNL     1     -10.109  29.032  17.293  1.00  0.00     0.173 HD
HETATM   14  O2  UNL     1      -9.155  30.185  19.315  1.00  0.00    -0.265 OA
ENDBRANCH   3   5
BRANCH   1  15
HETATM   15  N4  UNL     1      -6.548  34.205  19.786  1.00  0.00    -0.204 N
HETATM   16  N2  UNL     1      -7.236  35.071  20.644  1.00  0.00    -0.034 NA
HETATM   17  N3  UNL     1      -6.279  36.022  20.965  1.00  0.00    -0.122 NA
HETATM   18  C1  UNL     1      -5.075  35.216  21.231  1.00  0.00     0.155 C
HETATM   19  C2  UNL     1      -5.128  34.231  20.084  1.00  0.00     0.186 C
BRANCH  16  20
HETATM   20  N1  UNL     1      -7.715  34.373  21.741  1.00  0.00    -0.329 NA
ATOM     21  H12 UNL     1      -8.417  33.694  21.445  1.00  0.00     0.174 HD
ATOM     22  H11 UNL     1      -7.010  33.792  22.196  1.00  0.00     0.174 HD
ENDBRANCH  16  20
ENDBRANCH   1  15
TORSDOF 3
ENDMDL