MODEL 1
REMARK VINA RESULT: -7.681631431      0.000      0.000
REMARK  6 active torsions:
REMARK  status: ('A' for Active; 'I' for Inactive)
REMARK    1  A    between atoms: N1_6  and  N2_7
REMARK    2  A    between atoms: N2_7  and  C6_9
REMARK    3  A    between atoms: C6_9  and  S1_13
REMARK    4  A    between atoms: S1_13  and  C7_14
REMARK    5  A    between atoms: C7_14  and  C8_15
REMARK    6  A    between atoms: C9_17  and  C10_18
ROOT
HETATM    1  C6  UNL     1      33.879   6.659  22.924  1.00  0.00     0.154 C
HETATM    2  N3  UNL     1      32.979   6.069  22.252  1.00  0.00    -0.379 N
ATOM      3  H31 UNL     1      32.043   5.958  22.642  1.00  0.00     0.158 HD
ATOM      4  H32 UNL     1      33.190   5.713  21.319  1.00  0.00     0.158 HD
ENDROOT
BRANCH   1   5
HETATM    5  N2  UNL     1      35.193   6.814  22.376  1.00  0.00    -0.259 N
ATOM      6  H2  UNL     1      35.493   7.699  21.969  1.00  0.00     0.191 HD
BRANCH   5   7
HETATM    7  N1  UNL     1      36.060   5.701  22.419  1.00  0.00    -0.199 N
HETATM    8  C4  UNL     1      36.328   4.865  21.430  1.00  0.00     0.050 A
HETATM    9  C3  UNL     1      37.255   3.928  21.940  1.00  0.00     0.054 A
HETATM   10  C5  UNL     1      35.813   4.812  20.044  1.00  0.00     0.072 C
HETATM   11  C2  UNL     1      37.505   4.258  23.250  1.00  0.00     0.026 A
HETATM   12  C1  UNL     1      38.405   3.573  24.221  1.00  0.00     0.070 C
HETATM   13  N5  UNL     1      36.750   5.356  23.508  1.00  0.00    -0.284 N
ATOM     14  H5  UNL     1      36.716   5.846  24.402  1.00  0.00     0.188 HD
ENDBRANCH   5   7
ENDBRANCH   1   5
BRANCH   1  15
HETATM   15  S1  UNL     1      33.514   7.277  24.548  1.00  0.00    -0.086 SA
BRANCH  15  16
HETATM   16  C7  UNL     1      31.742   7.748  24.655  1.00  0.00     0.150 C
BRANCH  16  17
HETATM   17  C8  UNL     1      31.767   9.256  24.628  1.00  0.00     0.103 A
HETATM   18  O1  UNL     1      32.433  10.016  23.813  1.00  0.00    -0.297 OA
HETATM   19  C9  UNL     1      32.272  11.285  24.020  1.00  0.00     0.133 A
HETATM   20  N4  UNL     1      31.431  11.364  25.057  1.00  0.00    -0.328 N
HETATM   21  C14 UNL     1      31.083  10.127  25.478  1.00  0.00     0.136 A
ATOM     22  H4  UNL     1      31.099  12.235  25.472  1.00  0.00     0.168 HD
HETATM   23 CL1  UNL     1      30.044   9.625  26.758  1.00  0.00    -0.062 Cl
BRANCH  19  24
HETATM   24  C10 UNL     1      32.931  12.350  23.216  1.00  0.00     0.014 C
HETATM   25  C11 UNL     1      32.893  13.682  23.967  1.00  0.00     0.023 C
HETATM   26  C12 UNL     1      32.270  12.572  21.896  1.00  0.00     0.023 C
HETATM   27  C13 UNL     1      34.393  12.002  23.074  1.00  0.00     0.023 C
ENDBRANCH  19  24
ENDBRANCH  16  17
ENDBRANCH  15  16
ENDBRANCH   1  15
TORSDOF 6
ENDMDL