MODEL 3
REMARK VINA RESULT: -7.327822714      4.626      8.208
REMARK  3 active torsions:
REMARK  status: ('A' for Active; 'I' for Inactive)
REMARK    1  A    between atoms: C3_3  and  N1_4
REMARK    2  A    between atoms: N2_6  and  C4_8
REMARK    3  A    between atoms: N6_20  and  C9_21
ROOT
HETATM    1  C1  UNL     1      34.262   8.361  23.234  1.00  0.00     0.071 C
HETATM    2  C2  UNL     1      33.593   8.339  24.553  1.00  0.00     0.037 A
HETATM    3  C3  UNL     1      33.865   7.452  25.570  1.00  0.00     0.094 A
HETATM    4  C7  UNL     1      33.029   7.785  26.596  1.00  0.00     0.079 A
HETATM    5 CL1  UNL     1      32.948   6.972  28.159  1.00  0.00    -0.080 Cl
HETATM    6  C8  UNL     1      32.286   8.843  26.190  1.00  0.00     0.117 A
HETATM    7  N6  UNL     1      32.627   9.195  24.925  1.00  0.00    -0.352 N
ENDROOT
BRANCH   3   8
HETATM    8  N1  UNL     1      34.838   6.418  25.495  1.00  0.00    -0.283 N
HETATM    9  N2  UNL     1      34.657   5.324  24.880  1.00  0.00    -0.130 N
ATOM     10  H2  UNL     1      33.787   5.111  24.390  1.00  0.00     0.205 HD
ATOM     11  H1  UNL     1      35.732   6.565  25.963  1.00  0.00     0.187 HD
BRANCH   9  12
HETATM   12  C4  UNL     1      35.764   4.404  24.920  1.00  0.00     0.715 A
HETATM   13  N3  UNL     1      36.850   4.432  24.152  1.00  0.00    -0.128 N
HETATM   14  N4  UNL     1      37.667   3.447  24.449  1.00  0.00    -0.261 N
ATOM     15  H3  UNL     1      37.025   5.128  23.427  1.00  0.00     0.205 HD
HETATM   16  C5  UNL     1      37.076   2.770  25.442  1.00  0.00     0.207 A
ATOM     17  H4  UNL     1      38.566   3.241  24.012  1.00  0.00     0.190 HD
HETATM   18  S1  UNL     1      37.695   1.454  26.162  1.00  0.00    -0.038 SA
HETATM   19  N5  UNL     1      35.902   3.333  25.758  1.00  0.00    -0.158 N
HETATM   20  C6  UNL     1      34.921   2.964  26.750  1.00  0.00     0.178 C
ENDBRANCH   9  12
ENDBRANCH   3   8
BRANCH   7  21
HETATM   21  C9  UNL     1      32.058  10.261  24.170  1.00  0.00     0.092 C
HETATM   22  C10 UNL     1      32.943  11.510  24.135  1.00  0.00     0.053 C
HETATM   23  C11 UNL     1      32.084  12.604  23.522  1.00  0.00     0.234 C
HETATM   24  N7  UNL     1      31.082  12.074  22.623  1.00  0.00    -0.075 N
HETATM   25  C12 UNL     1      30.049  11.342  23.334  1.00  0.00     0.234 C
ATOM     26  H72 UNL     1      30.680  12.809  22.040  1.00  0.00     0.277 HD
ATOM     27  H71 UNL     1      31.505  11.503  21.892  1.00  0.00     0.277 HD
HETATM   28  C13 UNL     1      30.649  10.630  24.557  1.00  0.00     0.053 C
ENDBRANCH   7  21
TORSDOF 3
ENDMDL