MODEL 4
REMARK VINA RESULT: -7.658485160      2.159      3.728
REMARK  5 active torsions:
REMARK  status: ('A' for Active; 'I' for Inactive)
REMARK    1  A    between atoms: N1_2  and  C2_4
REMARK    2  A    between atoms: C6_14  and  N4_15
REMARK    3  A    between atoms: N4_15  and  C7_17
REMARK    4  A    between atoms: C10_20  and  N5_21
REMARK    5  A    between atoms: N5_21  and  N6_23
ROOT
HETATM    1  C2  UNL     1      34.727   6.247  26.078  1.00  0.00     0.680 A
HETATM    2  N2  UNL     1      35.107   5.314  25.196  1.00  0.00    -0.183 N
ATOM      3  H2  UNL     1      35.279   4.362  25.518  1.00  0.00     0.185 HD
HETATM    4  C3  UNL     1      35.269   5.612  23.867  1.00  0.00     0.123 A
HETATM    5  S1  UNL     1      35.724   4.760  22.453  1.00  0.00    -0.039 SA
HETATM    6  C4  UNL     1      35.611   6.044  21.332  1.00  0.00     0.148 A
HETATM    7 CL1  UNL     1      35.911   6.064  19.595  1.00  0.00    -0.056 Cl
HETATM    8  N3  UNL     1      35.233   7.052  22.094  1.00  0.00    -0.336 N
ATOM      9  H3  UNL     1      35.082   7.973  21.684  1.00  0.00     0.167 HD
HETATM   10  C5  UNL     1      35.052   6.868  23.379  1.00  0.00     0.113 A
HETATM   11  C6  UNL     1      34.654   7.839  24.312  1.00  0.00     0.147 A
HETATM   12  N8  UNL     1      34.516   7.481  25.590  1.00  0.00    -0.175 N
ATOM     13  H8  UNL     1      34.226   8.203  26.249  1.00  0.00     0.186 HD
ENDROOT
BRANCH  11  14
HETATM   14  N4  UNL     1      34.386   9.164  23.925  1.00  0.00    -0.369 N
ATOM     15  H4  UNL     1      35.170   9.815  23.870  1.00  0.00     0.161 HD
BRANCH  14  16
HETATM   16  C7  UNL     1      33.064   9.660  23.601  1.00  0.00     0.083 C
HETATM   17  C8  UNL     1      32.041   8.876  24.345  1.00  0.00     0.027 C
HETATM   18  C9  UNL     1      31.463   9.617  25.550  1.00  0.00     0.029 C
HETATM   19  C10 UNL     1      30.788  10.843  24.940  1.00  0.00     0.101 C
HETATM   20  C11 UNL     1      31.850  11.742  24.423  1.00  0.00     0.029 C
HETATM   21  C12 UNL     1      32.996  11.145  23.729  1.00  0.00     0.027 C
BRANCH  19  22
HETATM   22  N5  UNL     1      29.985  10.386  23.821  1.00  0.00    -0.318 N
ATOM     23  H5  UNL     1      29.947   9.400  23.563  1.00  0.00     0.182 HD
BRANCH  22  24
HETATM   24  N6  UNL     1      29.353  11.236  23.196  1.00  0.00    -0.253 N
HETATM   25  N7  UNL     1      29.107  12.015  22.268  1.00  0.00    -0.331 N
ATOM     26  H72 UNL     1      29.924  11.828  21.686  1.00  0.00     0.178 HD
ATOM     27  H71 UNL     1      28.582  12.720  21.750  1.00  0.00     0.178 HD
ATOM     28  H6  UNL     1      28.553  11.390  23.811  1.00  0.00     0.207 HD
ENDBRANCH  22  24
ENDBRANCH  19  22
ENDBRANCH  14  16
ENDBRANCH  11  14
BRANCH   1  29
HETATM   29  N1  UNL     1      34.573   5.978  27.323  1.00  0.00    -0.230 N
HETATM   30  C1  UNL     1      33.864   6.807  28.250  1.00  0.00     0.165 C
ATOM     31  H1  UNL     1      34.984   5.114  27.677  1.00  0.00     0.177 HD
ENDBRANCH   1  29
TORSDOF 5
ENDMDL