MODEL 5
REMARK VINA RESULT: -6.926943583      2.599      3.882
REMARK  4 active torsions:
REMARK  status: ('A' for Active; 'I' for Inactive)
REMARK    1  A    between atoms: C3_4  and  N2_5
REMARK    2  A    between atoms: C4_7  and  C5_8
REMARK    3  A    between atoms: C6_10  and  O2_11
REMARK    4  A    between atoms: C8_14  and  N3_15
REMARK       I    between atoms: N3_15  and  C9_17
ROOT
HETATM    1  N1  UNL     1      36.533   3.139  20.751  1.00  0.00    -0.191 NA
HETATM    2  C1  UNL     1      36.390   3.014  21.916  1.00  0.00     0.103 C
HETATM    3  C2  UNL     1      36.189   2.862  23.371  1.00  0.00     0.085 A
HETATM    4  C3  UNL     1      34.918   2.925  23.872  1.00  0.00     0.096 A
HETATM    5  S1  UNL     1      35.153   2.706  25.549  1.00  0.00    -0.075 SA
HETATM    6  C10 UNL     1      36.846   2.542  25.574  1.00  0.00    -0.007 A
HETATM    7  C11 UNL     1      37.193   2.662  24.264  1.00  0.00    -0.021 A
HETATM    8  C12 UNL     1      38.712   2.518  24.208  1.00  0.00     0.042 C
HETATM    9  C13 UNL     1      39.136   2.957  25.566  1.00  0.00     0.010 C
HETATM   10  C14 UNL     1      38.072   2.328  26.446  1.00  0.00     0.047 C
ENDROOT
BRANCH   4  11
HETATM   11  N2  UNL     1      33.687   3.127  23.144  1.00  0.00    -0.356 N
HETATM   12  C4  UNL     1      33.214   4.284  22.923  1.00  0.00     0.128 C
ATOM     13  H2  UNL     1      33.181   2.313  22.796  1.00  0.00     0.166 HD
BRANCH  12  14
HETATM   14  C5  UNL     1      33.833   5.525  23.361  1.00  0.00     0.120 A
HETATM   15  O1  UNL     1      33.708   6.093  24.531  1.00  0.00    -0.284 OA
HETATM   16  C6  UNL     1      34.389   7.197  24.608  1.00  0.00     0.185 A
HETATM   17  C7  UNL     1      35.041   7.413  23.390  1.00  0.00     0.096 A
HETATM   18  C8  UNL     1      34.680   6.342  22.601  1.00  0.00     0.076 A
BRANCH  16  19
HETATM   19  O2  UNL     1      34.528   8.098  25.662  1.00  0.00    -0.341 OA
ATOM     20  H2  UNL     1      33.944   8.290  26.386  1.00  0.00     0.220 HD
ENDBRANCH  16  19
BRANCH  18  21
HETATM   21  N3  UNL     1      35.062   6.062  21.260  1.00  0.00    -0.311 N
HETATM   22  C9  UNL     1      35.820   6.936  20.452  1.00  0.00     0.319 C
HETATM   23  O3  UNL     1      36.256   8.056  20.785  1.00  0.00    -0.254 OA
HETATM   24 CL1  UNL     1      36.213   6.433  18.796  1.00  0.00    -0.020 Cl
ATOM     25  H3  UNL     1      34.769   5.172  20.856  1.00  0.00     0.170 HD
ENDBRANCH  18  21
ENDBRANCH  12  14
ENDBRANCH   4  11
TORSDOF 4
ENDMDL