MODEL 3
REMARK VINA RESULT: -7.605931380      2.665      3.463
REMARK  4 active torsions:
REMARK  status: ('A' for Active; 'I' for Inactive)
REMARK    1  A    between atoms: C4_7  and  C5_8
REMARK    2  A    between atoms: C7_12  and  C8_13
REMARK    3  A    between atoms: C8_13  and  O2_15
REMARK    4  A    between atoms: O2_15  and  C9_16
ROOT
HETATM    1  C5  UNL     1      33.918   6.232  23.788  1.00  0.00     0.064 A
HETATM    2  C6  UNL     1      32.766   6.209  23.035  1.00  0.00     0.120 A
HETATM    3  N2  UNL     1      31.892   7.089  23.605  1.00  0.00    -0.345 N
ATOM      4  H2  UNL     1      30.950   7.291  23.270  1.00  0.00     0.167 HD
HETATM    5  C7  UNL     1      32.479   7.650  24.688  1.00  0.00     0.182 A
HETATM    6  N3  UNL     1      33.694   7.116  24.772  1.00  0.00    -0.336 N
ATOM      7  H3  UNL     1      34.373   7.350  25.497  1.00  0.00     0.168 HD
ENDROOT
BRANCH   5   8
HETATM    8  C8  UNL     1      31.913   8.644  25.597  1.00  0.00     0.328 C
HETATM    9  O1  UNL     1      31.414   8.284  26.693  1.00  0.00    -0.256 OA
BRANCH   8  10
HETATM   10  O2  UNL     1      31.899   9.999  25.305  1.00  0.00    -0.310 OA
BRANCH  10  11
HETATM   11  C9  UNL     1      32.376  10.536  24.084  1.00  0.00     0.132 C
HETATM   12  C10 UNL     1      33.804  10.942  24.199  1.00  0.00     0.032 C
HETATM   13  C11 UNL     1      34.261  12.009  23.267  1.00  0.00     0.002 C
HETATM   14  C12 UNL     1      33.224  12.963  22.810  1.00  0.00     0.000 C
HETATM   15  C13 UNL     1      32.000  12.958  23.705  1.00  0.00     0.002 C
HETATM   16  C14 UNL     1      31.435  11.558  23.592  1.00  0.00     0.032 C
ENDBRANCH  10  11
ENDBRANCH   8  10
ENDBRANCH   5   8
BRANCH   1  17
HETATM   17  C4  UNL     1      35.169   5.440  23.567  1.00  0.00     0.045 A
HETATM   18  C1  UNL     1      35.449   4.386  24.402  1.00  0.00     0.101 A
HETATM   19  N1  UNL     1      34.665   3.917  25.514  1.00  0.00    -0.093 NA
HETATM   20  S1  UNL     1      36.928   3.795  23.792  1.00  0.00    -0.085 SA
HETATM   21  C2  UNL     1      37.156   4.883  22.507  1.00  0.00     0.076 A
HETATM   22  C3  UNL     1      36.063   5.692  22.583  1.00  0.00     0.055 A
HETATM   23 CL1  UNL     1      35.843   7.028  21.414  1.00  0.00    -0.083 Cl
ENDBRANCH   1  17
TORSDOF 4
ENDMDL