MODEL 4
REMARK VINA RESULT: -6.564546037      1.167      1.273
REMARK  4 active torsions:
REMARK  status: ('A' for Active; 'I' for Inactive)
REMARK    1  A    between atoms: C4_5  and  C5_6
REMARK    2  A    between atoms: C7_11  and  S2_12
REMARK    3  A    between atoms: S2_12  and  C8_13
REMARK    4  A    between atoms: C11_18  and  S3_19
ROOT
HETATM    1  C5  UNL     1      34.786   7.094  23.965  1.00  0.00     0.074 A
HETATM    2  C6  UNL     1      35.431   6.623  22.806  1.00  0.00     0.134 A
HETATM    3  N1  UNL     1      35.493   7.422  21.649  1.00  0.00    -0.082 NA
HETATM    4  N2  UNL     1      35.976   5.402  22.828  1.00  0.00    -0.324 N
ATOM      5  H2  UNL     1      36.445   5.056  21.991  1.00  0.00     0.169 HD
HETATM    6  C7  UNL     1      35.923   4.618  23.915  1.00  0.00     0.146 A
HETATM    7  N3  UNL     1      35.312   5.098  24.978  1.00  0.00    -0.330 N
ATOM      8  H3  UNL     1      35.270   4.504  25.806  1.00  0.00     0.168 HD
HETATM    9  C11 UNL     1      34.716   6.361  25.057  1.00  0.00     0.103 A
ENDROOT
BRANCH   1  10
HETATM   10  C4  UNL     1      34.167   8.433  23.826  1.00  0.00     0.090 A
HETATM   11  S1  UNL     1      32.477   8.767  24.090  1.00  0.00    -0.081 SA
HETATM   12  C3  UNL     1      32.500  10.460  23.941  1.00  0.00     0.076 A
HETATM   13  C2  UNL     1      33.825  10.678  23.692  1.00  0.00     0.012 A
HETATM   14  C1  UNL     1      34.340  12.092  23.481  1.00  0.00     0.068 C
HETATM   15  N4  UNL     1      34.605   9.643  23.645  1.00  0.00    -0.353 N
ATOM     16  H4  UNL     1      35.597   9.784  23.459  1.00  0.00     0.166 HD
ENDBRANCH   1  10
BRANCH   9  17
HETATM   17  S3  UNL     1      34.210   6.782  26.537  1.00  0.00    -0.000 SA
HETATM   18 CL1  UNL     1      34.564   5.792  28.322  1.00  0.00    -0.037 Cl
ENDBRANCH   9  17
BRANCH   6  19
HETATM   19  S2  UNL     1      36.633   2.985  23.998  1.00  0.00    -0.090 SA
BRANCH  19  20
HETATM   20  C8  UNL     1      37.449   2.682  25.571  1.00  0.00     0.047 C
HETATM   21  C9  UNL     1      37.274   1.229  25.971  1.00  0.00     0.021 C
HETATM   22  C10 UNL     1      38.938   2.935  25.471  1.00  0.00     0.021 C
ENDBRANCH  19  20
ENDBRANCH   6  19
TORSDOF 4
ENDMDL