MODEL 3
REMARK VINA RESULT: -8.046034931      1.887      2.857
REMARK  4 active torsions:
REMARK  status: ('A' for Active; 'I' for Inactive)
REMARK    1  A    between atoms: N1_8  and  N2_10
REMARK    2  A    between atoms: N2_10  and  C7_12
REMARK    3  A    between atoms: C8_13  and  N3_14
REMARK    4  A    between atoms: C15_24  and  O3_25
ROOT
HETATM    1  C7  UNL     1      34.626   6.721  25.528  1.00  0.00     0.135 A
HETATM    2  C8  UNL     1      33.924   7.887  25.740  1.00  0.00     0.088 A
HETATM    3  C14 UNL     1      33.318   7.784  26.971  1.00  0.00     0.177 A
HETATM    4  O2  UNL     1      33.640   6.626  27.462  1.00  0.00    -0.296 OA
HETATM    5  C15 UNL     1      34.415   5.950  26.650  1.00  0.00     0.214 A
ENDROOT
BRANCH   1   6
HETATM    6  N2  UNL     1      35.415   6.354  24.398  1.00  0.00    -0.294 N
ATOM      7  H2  UNL     1      36.190   6.962  24.133  1.00  0.00     0.187 HD
BRANCH   6   8
HETATM    8  N1  UNL     1      35.187   5.225  23.644  1.00  0.00    -0.307 N
HETATM    9  C6  UNL     1      36.051   4.571  22.980  1.00  0.00     0.022 C
HETATM   10  C5  UNL     1      35.663   3.376  22.214  1.00  0.00     0.129 C
HETATM   11  C16 UNL     1      37.458   5.003  22.968  1.00  0.00     0.060 C
HETATM   12  C4  UNL     1      36.632   2.229  22.420  1.00  0.00     0.026 C
HETATM   13 CL1  UNL     1      35.621   3.822  20.489  1.00  0.00    -0.119 Cl
HETATM   14  C3  UNL     1      38.022   2.709  22.117  1.00  0.00     0.006 C
HETATM   15  C2  UNL     1      38.423   3.846  23.007  1.00  0.00    -0.013 C
HETATM   16  C1  UNL     1      38.637   3.432  24.434  1.00  0.00     0.010 C
ATOM     17  H1  UNL     1      34.228   4.879  23.615  1.00  0.00     0.186 HD
ENDBRANCH   6   8
ENDBRANCH   1   6
BRANCH   2  18
HETATM   18  N3  UNL     1      33.878   8.964  24.806  1.00  0.00    -0.353 N
HETATM   19  C9  UNL     1      32.791   9.671  24.660  1.00  0.00     0.056 C
HETATM   20  C10 UNL     1      31.499   9.491  25.387  1.00  0.00     0.061 C
HETATM   21  C13 UNL     1      32.684  10.782  23.723  1.00  0.00     0.171 C
HETATM   22  C11 UNL     1      30.758  10.777  25.046  1.00  0.00     0.014 C
HETATM   23  C12 UNL     1      31.265  11.191  23.701  1.00  0.00     0.085 C
HETATM   24  O1  UNL     1      33.623  11.311  23.045  1.00  0.00    -0.291 OA
ATOM     25  H3  UNL     1      34.703   9.185  24.248  1.00  0.00     0.166 HD
ENDBRANCH   2  18
BRANCH   5  26
HETATM   26  O3  UNL     1      34.924   4.679  26.899  1.00  0.00    -0.339 OA
ATOM     27  H3  UNL     1      35.236   4.342  27.731  1.00  0.00     0.220 HD
ENDBRANCH   5  26
TORSDOF 4
ENDMDL