MODEL 1
REMARK VINA RESULT: -6.708003534      0.000      0.000
REMARK  4 active torsions:
REMARK  status: ('A' for Active; 'I' for Inactive)
REMARK    1  A    between atoms: C2_2  and  S1_5
REMARK    2  A    between atoms: S1_5  and  C4_6
REMARK    3  A    between atoms: C6_9  and  C7_10
REMARK    4  A    between atoms: C7_10  and  O1_13
ROOT
HETATM    1  C1  UNL     1      31.681  12.664  23.284  1.00  0.00     0.037 C
HETATM    2  C2  UNL     1      30.593  11.718  22.864  1.00  0.00     0.155 C
HETATM    3  C3  UNL     1      29.556  12.457  22.185  1.00  0.00     0.074 C
HETATM    4  N1  UNL     1      28.728  13.038  21.625  1.00  0.00    -0.196 NA
ENDROOT
BRANCH   2   5
HETATM    5  S1  UNL     1      29.901  10.799  24.255  1.00  0.00    -0.102 SA
BRANCH   5   6
HETATM    6  C4  UNL     1      31.100   9.595  24.879  1.00  0.00     0.066 A
HETATM    7  S2  UNL     1      32.324   8.846  24.000  1.00  0.00    -0.080 SA
HETATM    8  C5  UNL     1      33.006   7.872  25.263  1.00  0.00     0.030 A
HETATM    9  C6  UNL     1      34.082   7.002  25.151  1.00  0.00    -0.000 A
HETATM   10  C12 UNL     1      32.245   8.170  26.338  1.00  0.00     0.039 A
HETATM   11  C10 UNL     1      34.586   6.252  26.180  1.00  0.00     0.063 A
HETATM   12  S3  UNL     1      33.790   6.448  27.664  1.00  0.00    -0.083 SA
HETATM   13  C11 UNL     1      32.480   7.567  27.610  1.00  0.00     0.081 A
HETATM   14  N2  UNL     1      31.856   7.754  28.658  1.00  0.00    -0.393 N
ATOM     15  H22 UNL     1      32.025   7.324  29.567  1.00  0.00     0.156 HD
ATOM     16  H21 UNL     1      31.081   8.416  28.626  1.00  0.00     0.156 HD
HETATM   17  C13 UNL     1      31.235   9.081  26.137  1.00  0.00     0.072 A
HETATM   18 CL1  UNL     1      30.066   9.666  27.377  1.00  0.00    -0.081 Cl
BRANCH   9  19
HETATM   19  C7  UNL     1      34.757   6.854  23.838  1.00  0.00     0.079 C
HETATM   20  C8  UNL     1      35.073   8.176  23.228  1.00  0.00     0.051 C
HETATM   21  C9  UNL     1      34.049   5.968  22.880  1.00  0.00     0.051 C
BRANCH  19  22
HETATM   22  O1  UNL     1      35.999   6.234  24.125  1.00  0.00    -0.386 OA
ATOM     23  H1  UNL     1      35.888   5.324  23.874  1.00  0.00     0.211 HD
ENDBRANCH  19  22
ENDBRANCH   9  19
ENDBRANCH   5   6
ENDBRANCH   2   5
TORSDOF 4
ENDMDL