MODEL 3
REMARK VINA RESULT: -6.592076565      2.035      2.873
REMARK  6 active torsions:
REMARK  status: ('A' for Active; 'I' for Inactive)
REMARK    1  A    between atoms: S1_2  and  C2_3
REMARK    2  A    between atoms: C2_3  and  S2_7
REMARK    3  A    between atoms: S2_7  and  S3_8
REMARK    4  A    between atoms: S3_8  and  S4_9
REMARK    5  A    between atoms: S4_9  and  C3_10
REMARK    6  A    between atoms: N3_12  and  C4_14
ROOT
HETATM    1  C4  UNL     1      33.008  10.598  23.856  1.00  0.00     0.054 A
HETATM    2  C5  UNL     1      34.238  11.207  23.715  1.00  0.00     0.034 A
HETATM    3  C6  UNL     1      34.304  12.578  23.592  1.00  0.00     0.044 A
HETATM    4  C7  UNL     1      33.154  13.362  23.607  1.00  0.00     0.117 A
HETATM    5  F1  UNL     1      33.174  14.698  23.490  1.00  0.00    -0.206 F
HETATM    6  C8  UNL     1      31.931  12.735  23.750  1.00  0.00     0.067 A
HETATM    7  C9  UNL     1      31.850  11.373  23.873  1.00  0.00     0.074 A
HETATM    8  C10 UNL     1      30.575  10.691  24.025  1.00  0.00     0.102 C
HETATM    9  N4  UNL     1      29.554  10.163  24.157  1.00  0.00    -0.191 NA
ENDROOT
BRANCH   1  10
HETATM   10  N3  UNL     1      32.968   9.197  23.981  1.00  0.00    -0.337 N
HETATM   11  C3  UNL     1      33.833   8.379  23.527  1.00  0.00     0.166 C
HETATM   12  N2  UNL     1      34.993   8.809  22.811  1.00  0.00    -0.074 NA
ATOM     13  H3  UNL     1      32.173   8.799  24.480  1.00  0.00     0.167 HD
BRANCH  11  14
HETATM   14  S4  UNL     1      33.575   6.638  23.806  1.00  0.00    -0.013 SA
BRANCH  14  15
HETATM   15  S3  UNL     1      35.271   5.482  23.305  1.00  0.00    -0.010 SA
BRANCH  15  16
HETATM   16  S2  UNL     1      35.297   4.808  21.343  1.00  0.00    -0.021 SA
BRANCH  16  17
HETATM   17  C2  UNL     1      35.814   5.947  20.109  1.00  0.00     0.112 C
HETATM   18  N1  UNL     1      36.152   7.116  20.545  1.00  0.00    -0.388 N
ATOM     19  H12 UNL     1      36.452   7.777  19.829  1.00  0.00     0.157 HD
ATOM     20  H11 UNL     1      36.101   7.306  21.546  1.00  0.00     0.157 HD
BRANCH  17  21
HETATM   21  S1  UNL     1      35.901   5.621  18.393  1.00  0.00    -0.109 SA
HETATM   22  C1  UNL     1      34.444   4.821  17.742  1.00  0.00     0.097 C
ENDBRANCH  17  21
ENDBRANCH  16  17
ENDBRANCH  15  16
ENDBRANCH  14  15
ENDBRANCH  11  14
ENDBRANCH   1  10
TORSDOF 6
ENDMDL