MODEL 4
REMARK VINA RESULT: -6.517181656      3.881      7.004
REMARK  5 active torsions:
REMARK  status: ('A' for Active; 'I' for Inactive)
REMARK    1  A    between atoms: N1_3  and  C2_4
REMARK    2  A    between atoms: C2_4  and  C3_5
REMARK    3  A    between atoms: C3_5  and  C4_6
REMARK    4  A    between atoms: N3_14  and  S3_15
REMARK    5  A    between atoms: S3_15  and  C7_16
ROOT
HETATM    1  O1  UNL     1      34.670   8.726  22.780  1.00  0.00    -0.245 OA
HETATM    2  C1  UNL     1      33.939   7.995  23.518  1.00  0.00     0.343 A
HETATM    3  N1  UNL     1      34.008   6.649  23.341  1.00  0.00    -0.275 N
HETATM    4  C5  UNL     1      33.240   5.874  24.113  1.00  0.00     0.184 A
HETATM    5  S1  UNL     1      33.204   4.233  23.984  1.00  0.00    -0.040 SA
HETATM    6  N2  UNL     1      32.430   6.473  25.036  1.00  0.00    -0.309 N
ATOM      7  H2  UNL     1      31.844   5.882  25.626  1.00  0.00     0.170 HD
HETATM    8  C6  UNL     1      32.371   7.804  25.201  1.00  0.00     0.195 A
HETATM    9  S2  UNL     1      31.367   8.458  26.339  1.00  0.00    -0.039 SA
HETATM   10  N3  UNL     1      33.142   8.585  24.424  1.00  0.00    -0.206 N
ENDROOT
BRANCH  10  11
HETATM   11  S3  UNL     1      33.051  10.317  24.655  1.00  0.00    -0.001 SA
BRANCH  11  12
HETATM   12  C7  UNL     1      31.874  11.092  23.565  1.00  0.00     0.022 A
HETATM   13  C8  UNL     1      32.353  11.945  22.596  1.00  0.00     0.020 A
HETATM   14  C9  UNL     1      31.526  12.596  21.703  1.00  0.00     0.001 A
HETATM   15  C10 UNL     1      30.166  12.395  21.768  1.00  0.00     0.000 A
HETATM   16  C11 UNL     1      29.669  11.555  22.719  1.00  0.00     0.001 A
HETATM   17  C12 UNL     1      30.512  10.897  23.624  1.00  0.00     0.020 A
ENDBRANCH  11  12
ENDBRANCH  10  11
BRANCH   3  18
HETATM   18  C2  UNL     1      34.875   6.103  22.328  1.00  0.00     0.137 C
BRANCH  18  19
HETATM   19  C3  UNL     1      36.155   5.541  22.829  1.00  0.00     0.035 C
BRANCH  19  20
HETATM   20  C4  UNL     1      36.735   4.393  22.088  1.00  0.00     0.116 C
HETATM   21 CL1  UNL     1      38.400   4.140  22.751  1.00  0.00    -0.130 Cl
ENDBRANCH  19  20
ENDBRANCH  18  19
ENDBRANCH   3  18
TORSDOF 5
ENDMDL