MODEL 3
REMARK VINA RESULT: -8.561285708      4.739      8.422
REMARK  5 active torsions:
REMARK  status: ('A' for Active; 'I' for Inactive)
REMARK    1  A    between atoms: C2_2  and  N1_11
REMARK    2  A    between atoms: C3_3  and  C4_4
REMARK    3  A    between atoms: N1_11  and  C10_13
REMARK    4  A    between atoms: C11_14  and  S1_15
REMARK    5  A    between atoms: S1_15  and  C12_16
ROOT
HETATM    1  C10 UNL     1      31.363   7.145  26.287  1.00  0.00     0.092 A
HETATM    2  C11 UNL     1      31.168   8.156  25.394  1.00  0.00     0.121 A
HETATM    3  N4  UNL     1      31.102   7.605  24.135  1.00  0.00    -0.292 N
ATOM      4  H4  UNL     1      30.962   8.113  23.263  1.00  0.00     0.187 HD
HETATM    5  N5  UNL     1      31.252   6.299  24.261  1.00  0.00    -0.302 N
ATOM      6  H5  UNL     1      31.246   5.631  23.490  1.00  0.00     0.186 HD
HETATM    7  C15 UNL     1      31.417   5.974  25.578  1.00  0.00     0.051 A
HETATM    8  C16 UNL     1      31.609   4.577  26.044  1.00  0.00     0.072 C
ENDROOT
BRANCH   1   9
HETATM    9  N1  UNL     1      31.488   7.245  27.718  1.00  0.00    -0.356 N
ATOM     10  H1  UNL     1      30.656   7.410  28.284  1.00  0.00     0.166 HD
BRANCH   9  11
HETATM   11  C2  UNL     1      32.734   7.121  28.344  1.00  0.00     0.002 C
HETATM   12  C1  UNL     1      33.910   7.723  27.585  1.00  0.00     0.068 C
HETATM   13  C3  UNL     1      32.993   6.566  29.479  1.00  0.00     0.005 C
BRANCH  13  14
HETATM   14  C4  UNL     1      32.178   5.896  30.482  1.00  0.00     0.044 C
HETATM   15  C5  UNL     1      31.910   4.448  30.312  1.00  0.00     0.011 C
HETATM   16  C6  UNL     1      30.804   3.978  31.261  1.00  0.00     0.001 C
HETATM   17  C7  UNL     1      30.808   4.817  32.508  1.00  0.00     0.003 C
HETATM   18  C8  UNL     1      32.217   5.182  32.863  1.00  0.00     0.038 C
HETATM   19  C9  UNL     1      32.813   6.159  31.854  1.00  0.00     0.177 C
HETATM   20  F1  UNL     1      32.467   7.427  32.236  1.00  0.00    -0.249 F
ENDBRANCH  13  14
ENDBRANCH   9  11
ENDBRANCH   1   9
BRANCH   2  21
HETATM   21  S1  UNL     1      31.023   9.904  25.721  1.00  0.00    -0.023 SA
BRANCH  21  22
HETATM   22  C12 UNL     1      30.313  10.723  24.310  1.00  0.00     0.209 A
HETATM   23  N2  UNL     1      29.012  10.876  24.021  1.00  0.00    -0.272 N
HETATM   24  N3  UNL     1      28.965  11.546  22.883  1.00  0.00    -0.281 N
ATOM     25  H2  UNL     1      28.218  10.543  24.569  1.00  0.00     0.189 HD
HETATM   26  C13 UNL     1      30.211  11.810  22.461  1.00  0.00     0.137 A
ATOM     27  H3  UNL     1      28.111  11.820  22.398  1.00  0.00     0.189 HD
HETATM   28  C14 UNL     1      30.612  12.541  21.227  1.00  0.00     0.099 C
HETATM   29  O1  UNL     1      31.016  11.291  23.362  1.00  0.00    -0.272 OA
ENDBRANCH  21  22
ENDBRANCH   2  21
TORSDOF 5
ENDMDL