MODEL 3
REMARK VINA RESULT: -8.197396570      2.845      4.419
REMARK  4 active torsions:
REMARK  status: ('A' for Active; 'I' for Inactive)
REMARK    1  A    between atoms: C7_9  and  N2_10
REMARK    2  A    between atoms: N2_10  and  C8_12
REMARK    3  A    between atoms: N5_19  and  N6_20
REMARK    4  A    between atoms: C10_22  and  C11_23
ROOT
HETATM    1  N1  UNL     1      29.085  10.278  24.175  1.00  0.00    -0.191 NA
HETATM    2  C1  UNL     1      30.154  10.684  24.061  1.00  0.00     0.102 C
HETATM    3  C2  UNL     1      31.500  11.185  23.895  1.00  0.00     0.074 A
HETATM    4  C3  UNL     1      31.735  12.526  23.771  1.00  0.00     0.067 A
HETATM    5  C4  UNL     1      33.000  13.032  23.613  1.00  0.00     0.117 A
HETATM    6  F1  UNL     1      33.238  14.359  23.488  1.00  0.00    -0.206 F
HETATM    7  C5  UNL     1      34.060  12.163  23.578  1.00  0.00     0.044 A
HETATM    8  C6  UNL     1      33.810  10.815  23.705  1.00  0.00     0.034 A
HETATM    9  C7  UNL     1      32.566  10.250  23.865  1.00  0.00     0.070 A
ENDROOT
BRANCH   9  10
HETATM   10  N2  UNL     1      32.268   8.888  23.993  1.00  0.00    -0.187 N
ATOM     11  H2  UNL     1      32.055   8.374  23.138  1.00  0.00     0.184 HD
BRANCH  10  12
HETATM   12  C8  UNL     1      32.236   8.167  25.201  1.00  0.00     0.721 A
HETATM   13  N3  UNL     1      31.244   7.877  26.060  1.00  0.00    -0.128 N
HETATM   14  N4  UNL     1      31.673   7.165  27.086  1.00  0.00    -0.260 N
ATOM     15  H3  UNL     1      30.276   8.173  25.935  1.00  0.00     0.205 HD
HETATM   16  C9  UNL     1      32.992   6.959  26.928  1.00  0.00     0.230 A
ATOM     17  H4  UNL     1      31.103   6.830  27.862  1.00  0.00     0.190 HD
HETATM   18  S1  UNL     1      33.992   6.123  27.948  1.00  0.00    -0.037 SA
HETATM   19  N5  UNL     1      33.331   7.564  25.790  1.00  0.00    -0.057 N
BRANCH  19  20
HETATM   20  N6  UNL     1      34.616   7.594  25.258  1.00  0.00    -0.292 N
HETATM   21  C10 UNL     1      35.071   6.763  24.385  1.00  0.00     0.086 C
ATOM     22  H6  UNL     1      35.245   8.328  25.583  1.00  0.00     0.186 HD
BRANCH  21  23
HETATM   23  C11 UNL     1      34.280   5.638  23.811  1.00  0.00     0.025 C
HETATM   24  C12 UNL     1      34.085   5.814  22.314  1.00  0.00     0.010 C
HETATM   25  C13 UNL     1      35.050   4.935  21.543  1.00  0.00     0.001 C
HETATM   26  C14 UNL     1      34.795   3.470  21.829  1.00  0.00     0.000 C
HETATM   27  C15 UNL     1      34.426   3.219  23.259  1.00  0.00     0.001 C
HETATM   28  C16 UNL     1      34.972   4.326  24.108  1.00  0.00     0.010 C
ENDBRANCH  21  23
ENDBRANCH  19  20
ENDBRANCH  10  12
ENDBRANCH   9  10
TORSDOF 4
ENDMDL