MODEL 5
REMARK VINA RESULT: -8.124365758      2.509      3.419
REMARK  4 active torsions:
REMARK  status: ('A' for Active; 'I' for Inactive)
REMARK    1  A    between atoms: C2_3  and  C9_18
REMARK    2  A    between atoms: N2_4  and  N3_6
REMARK    3  A    between atoms: N3_6  and  C3_8
REMARK    4  A    between atoms: C6_11  and  N4_12
ROOT
HETATM    1  N1  UNL     1      30.098   9.835  27.390  1.00  0.00    -0.190 NA
HETATM    2  C1  UNL     1      30.575   9.747  26.307  1.00  0.00     0.120 C
HETATM    3  C2  UNL     1      31.142   9.581  25.002  1.00  0.00     0.149 C
HETATM    4  N2  UNL     1      31.181   8.398  24.582  1.00  0.00    -0.289 N
ATOM      5  H2  UNL     1      30.789   7.754  25.269  1.00  0.00     0.188 HD
ENDROOT
BRANCH   3   6
HETATM    6  C9  UNL     1      31.637  10.680  24.225  1.00  0.00     0.085 C
HETATM    7  C10 UNL     1      33.091  10.963  24.237  1.00  0.00     0.102 C
HETATM    8  N5  UNL     1      34.245  11.211  24.236  1.00  0.00    -0.191 NA
HETATM    9  C11 UNL     1      30.957  11.509  23.474  1.00  0.00    -0.056 C
HETATM   10  C12 UNL     1      29.489  11.461  23.281  1.00  0.00     0.036 C
HETATM   11  C16 UNL     1      31.628  12.630  22.705  1.00  0.00     0.036 C
HETATM   12  C13 UNL     1      29.078  12.611  22.357  1.00  0.00     0.004 C
HETATM   13  C14 UNL     1      29.800  12.591  21.052  1.00  0.00     0.001 C
HETATM   14  C15 UNL     1      31.295  12.388  21.228  1.00  0.00     0.004 C
ENDBRANCH   3   6
BRANCH   4  15
HETATM   15  N3  UNL     1      31.590   7.740  23.491  1.00  0.00    -0.300 N
ATOM     16  H3  UNL     1      31.069   7.809  22.616  1.00  0.00     0.187 HD
BRANCH  15  17
HETATM   17  C3  UNL     1      32.782   6.932  23.577  1.00  0.00     0.049 A
HETATM   18  C4  UNL     1      33.751   7.194  24.520  1.00  0.00     0.033 A
HETATM   19  C5  UNL     1      34.901   6.428  24.615  1.00  0.00     0.040 A
HETATM   20  C6  UNL     1      35.124   5.367  23.765  1.00  0.00     0.124 A
HETATM   21  C7  UNL     1      34.160   5.096  22.817  1.00  0.00     0.069 A
HETATM   22 CL1  UNL     1      34.444   3.748  21.737  1.00  0.00    -0.082 Cl
HETATM   23  C8  UNL     1      33.016   5.867  22.732  1.00  0.00     0.057 A
BRANCH  20  24
HETATM   24  N4  UNL     1      36.314   4.581  23.870  1.00  0.00    -0.114 N
HETATM   25  O1  UNL     1      36.334   3.684  24.721  1.00  0.00    -0.532 OA
HETATM   26  O2  UNL     1      37.401   4.814  23.049  1.00  0.00    -0.532 OA
ENDBRANCH  20  24
ENDBRANCH  15  17
ENDBRANCH   4  15
TORSDOF 4
ENDMDL