MODEL 5
REMARK VINA RESULT: -6.348193218      2.039      2.892
REMARK  9 active torsions:
REMARK  status: ('A' for Active; 'I' for Inactive)
REMARK    1  A    between atoms: C2_2  and  S1_4
REMARK    2  A    between atoms: S1_4  and  C3_5
REMARK    3  A    between atoms: C3_5  and  C4_6
REMARK    4  A    between atoms: C4_6  and  S3_8
REMARK    5  A    between atoms: S3_8  and  S4_9
REMARK    6  A    between atoms: S4_9  and  C5_10
REMARK    7  A    between atoms: C5_10  and  N2_14
REMARK    8  A    between atoms: N2_14  and  C6_16
REMARK    9  A    between atoms: C6_16  and  C7_17
ROOT
HETATM    1  C5  UNL     1      30.580   9.090  26.750  1.00  0.00     0.145 C
HETATM    2  N1  UNL     1      29.817   9.865  27.438  1.00  0.00    -0.379 N
ATOM      3  H11 UNL     1      29.375  10.661  26.979  1.00  0.00     0.158 HD
ATOM      4  H12 UNL     1      29.678   9.657  28.427  1.00  0.00     0.158 HD
ENDROOT
BRANCH   1   5
HETATM    5  S4  UNL     1      31.352   7.698  27.553  1.00  0.00    -0.016 SA
BRANCH   5   6
HETATM    6  S3  UNL     1      33.422   7.584  27.083  1.00  0.00    -0.042 SA
BRANCH   6   7
HETATM    7  C4  UNL     1      34.007   5.952  27.461  1.00  0.00     0.066 C
HETATM    8  S2  UNL     1      33.943   4.962  26.446  1.00  0.00    -0.076 SA
BRANCH   7   9
HETATM    9  C3  UNL     1      34.558   5.615  28.786  1.00  0.00     0.141 C
BRANCH   9  10
HETATM   10  S1  UNL     1      33.348   4.826  29.875  1.00  0.00    -0.087 SA
BRANCH  10  11
HETATM   11  C2  UNL     1      32.460   5.997  30.866  1.00  0.00     0.182 C
HETATM   12  C1  UNL     1      31.364   5.592  31.761  1.00  0.00     0.104 C
HETATM   13  O1  UNL     1      32.765   7.179  30.808  1.00  0.00    -0.286 OA
ENDBRANCH  10  11
ENDBRANCH   9  10
ENDBRANCH   7   9
ENDBRANCH   6   7
ENDBRANCH   5   6
ENDBRANCH   1   5
BRANCH   1  14
HETATM   14  N2  UNL     1      30.772   9.378  25.380  1.00  0.00    -0.366 N
ATOM     15  H2  UNL     1      30.224   8.880  24.679  1.00  0.00     0.161 HD
BRANCH  14  16
HETATM   16  C6  UNL     1      31.735  10.368  24.962  1.00  0.00     0.160 C
BRANCH  16  17
HETATM   17  C7  UNL     1      31.300  11.116  23.758  1.00  0.00    -0.040 A
HETATM   18  C8  UNL     1      32.239  11.787  22.980  1.00  0.00     0.012 A
HETATM   19  C9  UNL     1      31.776  12.460  21.873  1.00  0.00     0.043 A
HETATM   20  C10 UNL     1      30.442  12.477  21.538  1.00  0.00     0.116 A
HETATM   21  F1  UNL     1      29.974  13.144  20.438  1.00  0.00    -0.206 F
HETATM   22  C11 UNL     1      29.538  11.799  22.333  1.00  0.00     0.043 A
HETATM   23  C12 UNL     1      29.950  11.113  23.448  1.00  0.00     0.012 A
ENDBRANCH  16  17
ENDBRANCH  14  16
ENDBRANCH   1  14
TORSDOF 9
ENDMDL