MODEL 2
REMARK VINA RESULT: -7.114317651      1.394      1.721
REMARK  4 active torsions:
REMARK  status: ('A' for Active; 'I' for Inactive)
REMARK    1  A    between atoms: C2_2  and  N1_3
REMARK    2  A    between atoms: N1_3  and  C4_5
REMARK    3  A    between atoms: C5_6  and  N2_7
REMARK    4  A    between atoms: N2_7  and  O1_9
ROOT
HETATM    1  C4  UNL     1      36.174   2.571  23.826  1.00  0.00     0.089 A
HETATM    2  C5  UNL     1      35.698   1.262  23.819  1.00  0.00     0.104 A
HETATM    3  C6  UNL     1      34.409   1.003  24.161  1.00  0.00     0.067 A
HETATM    4 CL1  UNL     1      33.870  -0.679  24.129  1.00  0.00    -0.082 Cl
HETATM    5  C7  UNL     1      33.506   1.977  24.530  1.00  0.00     0.058 A
HETATM    6  C8  UNL     1      33.968   3.259  24.540  1.00  0.00     0.061 A
HETATM    7  C9  UNL     1      35.295   3.562  24.191  1.00  0.00     0.084 A
HETATM    8  N3  UNL     1      36.033   4.774  24.134  1.00  0.00    -0.384 N
ATOM      9  H3  UNL     1      37.015   4.666  24.389  1.00  0.00     0.159 HD
HETATM   10  C10 UNL     1      35.671   6.127  23.788  1.00  0.00     0.146 C
HETATM   11  C11 UNL     1      34.658   6.734  24.723  1.00  0.00     0.190 C
HETATM   12  O2  UNL     1      34.074   5.938  25.621  1.00  0.00    -0.359 OA
HETATM   13  C12 UNL     1      32.820   5.475  25.498  1.00  0.00     0.134 C
HETATM   14  C13 UNL     1      32.272   5.270  26.921  1.00  0.00     0.061 C
HETATM   15  C14 UNL     1      30.881   5.895  27.043  1.00  0.00     0.005 C
HETATM   16  C15 UNL     1      31.105   7.377  26.736  1.00  0.00     0.000 C
HETATM   17  C16 UNL     1      31.293   7.462  25.240  1.00  0.00     0.005 C
HETATM   18  C17 UNL     1      31.854   6.215  24.644  1.00  0.00     0.061 C
HETATM   19  N4  UNL     1      32.899   4.106  24.946  1.00  0.00    -0.356 N
ATOM     20  H4  UNL     1      31.984   3.672  24.830  1.00  0.00     0.162 HD
ENDROOT
BRANCH   1  21
HETATM   21  N1  UNL     1      37.532   2.795  23.441  1.00  0.00    -0.382 N
HETATM   22  C3  UNL     1      37.832   2.926  22.034  1.00  0.00     0.150 C
BRANCH  21  23
HETATM   23  C2  UNL     1      38.597   2.994  24.392  1.00  0.00     0.118 C
HETATM   24  C1  UNL     1      38.320   2.327  25.695  1.00  0.00     0.026 C
ENDBRANCH  21  23
ENDBRANCH   1  21
BRANCH   2  25
HETATM   25  N2  UNL     1      36.634   0.253  23.438  1.00  0.00    -0.265 N
ATOM     26  H2  UNL     1      37.394  -0.037  24.054  1.00  0.00     0.194 HD
BRANCH  25  27
HETATM   27  O1  UNL     1      36.471  -0.255  22.305  1.00  0.00    -0.289 OA
ATOM     28  H1  UNL     1      37.130  -0.049  21.652  1.00  0.00     0.244 HD
ENDBRANCH  25  27
ENDBRANCH   2  25
TORSDOF 4
ENDMDL