MODEL 3
REMARK VINA RESULT: -6.825391459      3.941      5.168
REMARK  4 active torsions:
REMARK  status: ('A' for Active; 'I' for Inactive)
REMARK    1  A    between atoms: C3_6  and  C4_7
REMARK    2  A    between atoms: C4_7  and  N2_8
REMARK    3  A    between atoms: C4_7  and  C10_19
REMARK       I    between atoms: N2_8  and  C5_10
REMARK    4  A    between atoms: C5_10  and  C6_12
ROOT
HETATM    1  C4  UNL     1      33.000   8.566  24.160  1.00  0.00     0.140 C
ENDROOT
BRANCH   1   2
HETATM    2  C3  UNL     1      33.423   9.938  23.874  1.00  0.00     0.064 A
HETATM    3  N1  UNL     1      34.645  10.391  23.531  1.00  0.00    -0.263 N
HETATM    4  O1  UNL     1      34.633  11.677  23.357  1.00  0.00    -0.242 OA
ATOM      5  H1  UNL     1      35.470   9.801  23.423  1.00  0.00     0.194 HD
HETATM    6  C2  UNL     1      33.434  12.151  23.566  1.00  0.00     0.080 A
HETATM    7  C1  UNL     1      32.977  13.578  23.474  1.00  0.00     0.079 C
HETATM    8  C13 UNL     1      32.625  11.076  23.899  1.00  0.00    -0.004 A
HETATM    9  C14 UNL     1      31.204  11.190  24.208  1.00  0.00     0.053 C
ENDBRANCH   1   2
BRANCH   1  10
HETATM   10  N2  UNL     1      34.124   7.608  24.194  1.00  0.00    -0.346 N
HETATM   11  C5  UNL     1      34.046   6.448  23.423  1.00  0.00     0.260 C
HETATM   12  O2  UNL     1      33.000   6.227  22.695  1.00  0.00    -0.267 OA
ATOM     13  H2  UNL     1      34.945   7.791  24.772  1.00  0.00     0.163 HD
BRANCH  11  14
HETATM   14  C6  UNL     1      35.084   5.413  23.358  1.00  0.00     0.091 A
HETATM   15  S1  UNL     1      36.252   5.262  22.062  1.00  0.00    -0.071 SA
HETATM   16  C7  UNL     1      37.101   3.913  22.615  1.00  0.00     0.076 A
HETATM   17 CL1  UNL     1      38.477   3.059  21.905  1.00  0.00    -0.076 Cl
HETATM   18  C8  UNL     1      36.481   3.600  23.779  1.00  0.00     0.052 A
HETATM   19  C9  UNL     1      35.432   4.378  24.167  1.00  0.00     0.036 A
HETATM   20  S2  UNL     1      34.528   4.030  25.732  1.00  0.00    -0.051 SA
ENDBRANCH  11  14
ENDBRANCH   1  10
BRANCH   1  21
HETATM   21  C10 UNL     1      32.188   8.443  25.428  1.00  0.00     0.006 C
HETATM   22  C11 UNL     1      31.055   7.489  25.332  1.00  0.00     0.012 C
HETATM   23  C12 UNL     1      33.060   8.064  26.600  1.00  0.00     0.012 C
ENDBRANCH   1  21
TORSDOF 4
ENDMDL