MODEL 3
REMARK VINA RESULT: -7.990366255      1.266      2.164
REMARK  6 active torsions:
REMARK  status: ('A' for Active; 'I' for Inactive)
REMARK    1  A    between atoms: C4_4  and  C5_5
REMARK    2  A    between atoms: C5_5  and  N1_6
REMARK    3  A    between atoms: C8_9  and  N2_10
REMARK    4  A    between atoms: C9_11  and  O1_12
REMARK    5  A    between atoms: C11_15  and  N3_16
REMARK    6  A    between atoms: C16_21  and  O2_22
ROOT
HETATM    1  N1  UNL     1      32.293   5.809  29.315  1.00  0.00    -0.366 N
HETATM    2  C6  UNL     1      33.506   6.597  29.299  1.00  0.00     0.126 C
HETATM    3  C7  UNL     1      33.719   7.364  28.037  1.00  0.00     0.046 C
HETATM    4  C8  UNL     1      32.431   7.371  27.242  1.00  0.00     0.103 C
HETATM    5  C17 UNL     1      32.185   5.912  26.837  1.00  0.00     0.104 C
HETATM    6  C18 UNL     1      31.836   5.214  28.106  1.00  0.00     0.106 C
HETATM    7  N4  UNL     1      31.154   4.117  28.155  1.00  0.00    -0.212 N
ATOM      8  H4  UNL     1      30.935   3.667  29.044  1.00  0.00     0.201 HD
HETATM    9  F1  UNL     1      30.745   3.594  26.982  1.00  0.00    -0.100 F
ENDROOT
BRANCH   4  10
HETATM   10  N2  UNL     1      32.460   8.249  26.115  1.00  0.00    -0.301 N
HETATM   11  C9  UNL     1      33.425   8.283  25.180  1.00  0.00     0.146 A
HETATM   12  C10 UNL     1      33.103   9.265  24.246  1.00  0.00     0.089 A
HETATM   13  C11 UNL     1      31.891   9.836  24.648  1.00  0.00     0.086 A
HETATM   14  C16 UNL     1      31.535   9.172  25.809  1.00  0.00     0.172 A
BRANCH  11  15
HETATM   15  O1  UNL     1      34.568   7.487  25.126  1.00  0.00    -0.346 OA
ATOM     16  H1  UNL     1      35.332   7.621  24.577  1.00  0.00     0.219 HD
ENDBRANCH  11  15
BRANCH  13  17
HETATM   17  N3  UNL     1      31.180  10.877  23.996  1.00  0.00    -0.377 N
HETATM   18  C12 UNL     1      29.809  10.889  23.550  1.00  0.00     0.123 C
HETATM   19  C13 UNL     1      29.712  11.966  22.492  1.00  0.00     0.021 C
HETATM   20  C14 UNL     1      31.149  12.386  22.269  1.00  0.00     0.021 C
HETATM   21  C15 UNL     1      31.742  12.169  23.653  1.00  0.00     0.123 C
ENDBRANCH  13  17
BRANCH  14  22
HETATM   22  O2  UNL     1      30.397   9.402  26.569  1.00  0.00    -0.344 OA
ATOM     23  H2  UNL     1      30.027  10.264  26.716  1.00  0.00     0.219 HD
ENDBRANCH  14  22
ENDBRANCH   4  10
BRANCH   1  24
HETATM   24  C5  UNL     1      31.604   5.660  30.558  1.00  0.00     0.151 C
BRANCH  24  25
HETATM   25  C4  UNL     1      32.287   6.188  31.736  1.00  0.00    -0.005 C
HETATM   26  C2  UNL     1      32.124   5.633  32.904  1.00  0.00    -0.090 C
HETATM   27  C1  UNL     1      31.246   4.458  33.058  1.00  0.00     0.042 C
HETATM   28  C3  UNL     1      32.816   6.171  34.089  1.00  0.00     0.042 C
ENDBRANCH  24  25
ENDBRANCH   1  24
TORSDOF 6
ENDMDL