MODEL 4
REMARK VINA RESULT: -7.208632523      2.843      4.955
REMARK  5 active torsions:
REMARK  status: ('A' for Active; 'I' for Inactive)
REMARK    1  A    between atoms: C4_5  and  O1_6
REMARK    2  A    between atoms: C4_5  and  C7_9
REMARK    3  A    between atoms: O1_6  and  C5_7
REMARK    4  A    between atoms: C9_11  and  C10_12
REMARK    5  A    between atoms: N1_14  and  N2_16
ROOT
HETATM    1  C1  UNL     1      34.791   7.023  23.365  1.00  0.00     0.105 C
HETATM    2  C2  UNL     1      34.055   7.932  23.740  1.00  0.00    -0.116 C
HETATM    3  C3  UNL     1      33.194   8.996  24.135  1.00  0.00     0.191 C
HETATM    4  F1  UNL     1      33.167  10.091  23.340  1.00  0.00    -0.194 F
HETATM    5  C4  UNL     1      32.467   8.939  25.200  1.00  0.00     0.128 C
ENDROOT
BRANCH   5   6
HETATM    6  O1  UNL     1      31.645  10.049  25.494  1.00  0.00    -0.347 OA
BRANCH   6   7
HETATM    7  C5  UNL     1      30.242   9.944  25.343  1.00  0.00     0.171 C
HETATM    8  C6  UNL     1      29.837  10.479  24.009  1.00  0.00     0.034 C
ENDBRANCH   6   7
ENDBRANCH   5   6
BRANCH   5   9
HETATM    9  C7  UNL     1      32.412   7.798  26.158  1.00  0.00     0.034 A
HETATM   10  C8  UNL     1      33.041   7.826  27.348  1.00  0.00     0.038 A
HETATM   11  C9  UNL     1      32.938   6.713  28.150  1.00  0.00     0.031 A
HETATM   12  S1  UNL     1      31.958   5.669  27.209  1.00  0.00    -0.073 SA
HETATM   13  C17 UNL     1      31.716   6.655  25.849  1.00  0.00     0.101 A
HETATM   14  N4  UNL     1      30.967   6.401  24.636  1.00  0.00    -0.093 NA
BRANCH  11  15
HETATM   15  C10 UNL     1      33.525   6.489  29.467  1.00  0.00     0.039 C
HETATM   16  C11 UNL     1      32.928   7.141  30.637  1.00  0.00     0.071 C
HETATM   17  N1  UNL     1      34.536   5.743  29.591  1.00  0.00    -0.304 N
ATOM     18  H1  UNL     1      34.944   5.588  30.514  1.00  0.00     0.186 HD
BRANCH  17  19
HETATM   19  N2  UNL     1      35.095   5.131  28.474  1.00  0.00    -0.303 N
HETATM   20  C12 UNL     1      35.092   3.854  28.346  1.00  0.00     0.045 C
HETATM   21  C13 UNL     1      35.626   3.060  27.253  1.00  0.00     0.052 C
HETATM   22  C16 UNL     1      34.534   2.867  29.299  1.00  0.00     0.178 C
HETATM   23  C14 UNL     1      35.052   1.844  27.274  1.00  0.00     0.003 C
HETATM   24  C15 UNL     1      35.361   0.767  26.298  1.00  0.00     0.068 C
HETATM   25  N3  UNL     1      34.136   1.802  28.366  1.00  0.00    -0.388 N
ATOM     26  H3  UNL     1      33.354   1.157  28.479  1.00  0.00     0.159 HD
ATOM     27  H2  UNL     1      35.513   5.707  27.745  1.00  0.00     0.186 HD
ENDBRANCH  17  19
ENDBRANCH  11  15
ENDBRANCH   5   9
TORSDOF 5
ENDMDL