MODEL 5
REMARK VINA RESULT: -8.087671919      0.515      1.706
REMARK  6 active torsions:
REMARK  status: ('A' for Active; 'I' for Inactive)
REMARK    1  A    between atoms: C2_2  and  N1_5
REMARK    2  A    between atoms: N2_7  and  C5_9
REMARK    3  A    between atoms: C7_13  and  S1_14
REMARK    4  A    between atoms: S1_14  and  C8_15
REMARK    5  A    between atoms: C8_15  and  C11_19
REMARK    6  A    between atoms: C17_27  and  N6_28
ROOT
HETATM    1  C8  UNL     1      31.527  10.350  24.549  1.00  0.00     0.028 C
HETATM    2  C9  UNL     1      30.620   9.847  25.321  1.00  0.00     0.113 C
HETATM    3  C10 UNL     1      30.765   9.030  26.473  1.00  0.00     0.089 C
HETATM    4  N4  UNL     1      30.839   8.368  27.409  1.00  0.00    -0.192 NA
ENDROOT
BRANCH   1   5
HETATM    5  S1  UNL     1      33.251  10.129  24.756  1.00  0.00    -0.053 SA
BRANCH   5   6
HETATM    6  C7  UNL     1      33.965   8.591  24.409  1.00  0.00     0.150 A
HETATM    7  N3  UNL     1      34.114   7.694  25.431  1.00  0.00    -0.344 N
HETATM    8  C6  UNL     1      34.634   6.482  25.182  1.00  0.00     0.125 A
ATOM      9  H3  UNL     1      33.831   7.946  26.378  1.00  0.00     0.167 HD
HETATM   10  C5  UNL     1      35.023   6.119  23.920  1.00  0.00     0.106 A
HETATM   11  C17 UNL     1      34.863   7.034  22.916  1.00  0.00     0.130 A
HETATM   12  N5  UNL     1      34.347   8.237  23.158  1.00  0.00    -0.321 N
ATOM     13  H5  UNL     1      34.238   8.902  22.392  1.00  0.00     0.169 HD
BRANCH  10  14
HETATM   14  N2  UNL     1      35.565   4.853  23.660  1.00  0.00    -0.300 N
HETATM   15  N1  UNL     1      36.802   4.674  23.944  1.00  0.00    -0.327 N
ATOM     16  H1  UNL     1      37.329   5.451  24.342  1.00  0.00     0.181 HD
ATOM     17  H2  UNL     1      34.998   4.105  23.262  1.00  0.00     0.186 HD
BRANCH  15  18
HETATM   18  C2  UNL     1      37.475   3.430  23.728  1.00  0.00     0.035 C
HETATM   19  C1  UNL     1      38.449   3.131  24.841  1.00  0.00     0.039 C
HETATM   20  C3  UNL     1      38.213   3.455  22.403  1.00  0.00     0.039 C
HETATM   21  C4  UNL     1      36.452   2.316  23.685  1.00  0.00     0.039 C
ENDBRANCH  15  18
ENDBRANCH  10  14
BRANCH  11  22
HETATM   22  N6  UNL     1      35.218   6.730  21.701  1.00  0.00    -0.383 N
ATOM     23  H62 UNL     1      35.227   7.463  20.990  1.00  0.00     0.157 HD
ATOM     24  H61 UNL     1      35.481   5.771  21.473  1.00  0.00     0.157 HD
ENDBRANCH  11  22
ENDBRANCH   5   6
ENDBRANCH   1   5
BRANCH   1  25
HETATM   25  C11 UNL     1      31.138  11.184  23.380  1.00  0.00    -0.018 A
HETATM   26  C12 UNL     1      32.046  11.867  22.627  1.00  0.00     0.013 A
HETATM   27  C13 UNL     1      31.647  12.646  21.527  1.00  0.00     0.001 A
HETATM   28  C14 UNL     1      30.333  12.746  21.174  1.00  0.00     0.000 A
HETATM   29  C15 UNL     1      29.409  12.062  21.926  1.00  0.00     0.001 A
HETATM   30  C16 UNL     1      29.812  11.303  23.001  1.00  0.00     0.013 A
ENDBRANCH   1  25
TORSDOF 6
ENDMDL