MODEL 2
REMARK VINA RESULT: -9.189745499      0.696      1.128
REMARK  7 active torsions:
REMARK  status: ('A' for Active; 'I' for Inactive)
REMARK    1  A    between atoms: C2_2  and  C3_3
REMARK    2  A    between atoms: C3_3  and  O1_4
REMARK    3  A    between atoms: O1_4  and  C4_5
REMARK    4  A    between atoms: C8_9  and  C9_10
REMARK    5  A    between atoms: C13_14  and  O2_15
REMARK    6  A    between atoms: C14_17  and  C15_18
REMARK    7  A    between atoms: N1_19  and  N2_21
ROOT
HETATM    1  C4  UNL     1       5.559  14.949  34.060  1.00  0.00     0.070 A
HETATM    2  C5  UNL     1       6.741  14.691  33.422  1.00  0.00     0.037 A
HETATM    3  C6  UNL     1       6.762  13.898  32.271  1.00  0.00     0.015 A
HETATM    4  C7  UNL     1       5.646  13.347  31.723  1.00  0.00    -0.016 A
HETATM    5  C8  UNL     1       5.698  12.569  30.585  1.00  0.00    -0.005 A
HETATM    6  C13 UNL     1       4.493  12.073  30.134  1.00  0.00     0.085 A
HETATM    7  C14 UNL     1       3.287  12.337  30.784  1.00  0.00     0.015 A
HETATM    8  C20 UNL     1       3.281  13.122  31.924  1.00  0.00     0.028 A
HETATM    9  C21 UNL     1       4.454  13.618  32.381  1.00  0.00    -0.022 A
HETATM   10  C22 UNL     1       4.425  14.411  33.534  1.00  0.00     0.049 A
ENDROOT
BRANCH   7  11
HETATM   11  C15 UNL     1       2.033  11.810  30.300  1.00  0.00     0.121 C
HETATM   12  N1  UNL     1       1.736  10.573  30.388  1.00  0.00    -0.313 N
ATOM     13  H1  UNL     1       2.412   9.939  30.815  1.00  0.00     0.185 HD
BRANCH  12  14
HETATM   14  N2  UNL     1       0.544  10.051  29.932  1.00  0.00    -0.325 N
HETATM   15  C16 UNL     1       0.191  10.153  28.534  1.00  0.00     0.170 C
HETATM   16  C17 UNL     1      -1.173  10.781  28.419  1.00  0.00     0.253 C
HETATM   17  N3  UNL     1      -2.103  10.332  29.413  1.00  0.00    -0.072 N
HETATM   18  C18 UNL     1      -1.643   9.106  30.032  1.00  0.00     0.253 C
ATOM     19  H32 UNL     1      -2.294  11.056  30.106  1.00  0.00     0.277 HD
ATOM     20  H31 UNL     1      -3.044  10.232  29.032  1.00  0.00     0.277 HD
HETATM   21  C19 UNL     1      -0.376   9.395  30.821  1.00  0.00     0.170 C
ENDBRANCH  12  14
ENDBRANCH   7  11
BRANCH   6  22
HETATM   22  O2  UNL     1       4.450  11.301  29.028  1.00  0.00    -0.359 OA
ATOM     23  H2  UNL     1       3.921  10.512  29.017  1.00  0.00     0.217 HD
ENDBRANCH   6  22
BRANCH   5  24
HETATM   24  C9  UNL     1       6.941  12.280  29.894  1.00  0.00    -0.021 C
HETATM   25  C10 UNL     1       8.006  11.579  30.722  1.00  0.00     0.019 C
HETATM   26  C11 UNL     1       7.700  13.534  29.452  1.00  0.00     0.019 C
HETATM   27  C12 UNL     1       6.774  11.282  28.732  1.00  0.00     0.019 C
ENDBRANCH   5  24
BRANCH   1  28
HETATM   28  O1  UNL     1       5.533  15.736  35.205  1.00  0.00    -0.347 OA
BRANCH  28  29
HETATM   29  C3  UNL     1       6.537  15.710  36.182  1.00  0.00     0.202 C
BRANCH  29  30
HETATM   30  C2  UNL     1       7.236  17.020  36.207  1.00  0.00    -0.011 C
HETATM   31  C1  UNL     1       8.546  17.076  36.209  1.00  0.00     0.009 C
ENDBRANCH  29  30
ENDBRANCH  28  29
ENDBRANCH   1  28
TORSDOF 7
ENDMDL