MODEL 4
REMARK VINA RESULT: -8.526426867      2.512      4.151
REMARK  7 active torsions:
REMARK  status: ('A' for Active; 'I' for Inactive)
REMARK    1  A    between atoms: C3_6  and  C4_7
REMARK    2  A    between atoms: C11_14  and  C12_15
REMARK       I    between atoms: C12_15  and  N2_17
REMARK    3  A    between atoms: N2_17  and  C13_19
REMARK    4  A    between atoms: C13_19  and  C14_20
REMARK    5  A    between atoms: C14_20  and  N3_21
REMARK    6  A    between atoms: C14_20  and  C15_25
REMARK    7  A    between atoms: C15_25  and  C16_26
ROOT
HETATM    1  C12 UNL     1      -1.499   9.266  30.601  1.00  0.00     0.256 C
HETATM    2  O2  UNL     1      -1.473   8.086  31.037  1.00  0.00    -0.267 OA
HETATM    3  N2  UNL     1      -0.303   9.811  30.164  1.00  0.00    -0.355 N
ATOM      4  H2  UNL     1      -0.271  10.759  29.788  1.00  0.00     0.162 HD
ENDROOT
BRANCH   1   5
HETATM    5  C11 UNL     1      -2.775   9.964  30.592  1.00  0.00     0.092 A
HETATM    6  C2  UNL     1      -3.279  10.793  31.551  1.00  0.00     0.090 A
HETATM    7  C1  UNL     1      -2.552  11.305  32.771  1.00  0.00     0.080 C
HETATM    8  O1  UNL     1      -4.482  11.038  31.192  1.00  0.00    -0.241 OA
HETATM    9  N1  UNL     1      -4.832  10.438  30.070  1.00  0.00    -0.260 N
HETATM   10  C3  UNL     1      -3.717   9.716  29.625  1.00  0.00     0.075 A
ATOM     11  H1  UNL     1      -5.742  10.491  29.613  1.00  0.00     0.195 HD
BRANCH  10  12
HETATM   12  C4  UNL     1      -3.653   9.158  28.274  1.00  0.00    -0.050 C
HETATM   13  C5  UNL     1      -2.611   8.126  28.010  1.00  0.00     0.037 C
HETATM   14  C6  UNL     1      -2.973   7.242  26.890  1.00  0.00     0.009 C
HETATM   15  C7  UNL     1      -4.145   7.585  26.069  1.00  0.00    -0.018 C
HETATM   16  C8  UNL     1      -5.270   6.589  26.382  1.00  0.00     0.010 C
HETATM   17  C9  UNL     1      -4.641   8.966  26.054  1.00  0.00     0.009 C
HETATM   18  C10 UNL     1      -4.028   9.917  27.095  1.00  0.00     0.037 C
ENDBRANCH  10  12
ENDBRANCH   1   5
BRANCH   3  19
HETATM   19  C13 UNL     1       0.933   8.986  30.253  1.00  0.00     0.155 C
BRANCH  19  20
HETATM   20  C14 UNL     1       1.800   9.427  31.357  1.00  0.00     0.201 C
BRANCH  20  21
HETATM   21  N3  UNL     1       1.305   8.758  32.575  1.00  0.00    -0.073 N
ATOM     22  H33 UNL     1       2.034   8.260  33.086  1.00  0.00     0.274 HD
ATOM     23  H32 UNL     1       1.049   9.409  33.318  1.00  0.00     0.274 HD
ATOM     24  H31 UNL     1       0.534   8.156  32.283  1.00  0.00     0.274 HD
ENDBRANCH  20  21
BRANCH  20  25
HETATM   25  C15 UNL     1       1.660  10.937  31.637  1.00  0.00     0.039 C
BRANCH  25  26
HETATM   26  C16 UNL     1       2.962  11.563  31.024  1.00  0.00    -0.013 C
HETATM   27  C17 UNL     1       2.560  12.487  29.956  1.00  0.00     0.005 C
HETATM   28  C18 UNL     1       3.314  13.752  29.815  1.00  0.00     0.000 C
HETATM   29  C19 UNL     1       4.403  13.954  30.842  1.00  0.00     0.000 C
HETATM   30  C20 UNL     1       3.897  13.541  32.209  1.00  0.00     0.000 C
HETATM   31  C21 UNL     1       3.804  12.017  32.133  1.00  0.00     0.005 C
ENDBRANCH  25  26
ENDBRANCH  20  25
ENDBRANCH  19  20
ENDBRANCH   3  19
TORSDOF 7
ENDMDL