MODEL 4
REMARK VINA RESULT: -8.957010958      2.458      4.263
REMARK  8 active torsions:
REMARK  status: ('A' for Active; 'I' for Inactive)
REMARK    1  A    between atoms: C2_2  and  C3_3
REMARK    2  A    between atoms: C3_3  and  S1_4
REMARK    3  A    between atoms: S1_4  and  C4_7
REMARK    4  A    between atoms: C4_7  and  C5_8
REMARK    5  A    between atoms: C5_8  and  O3_9
REMARK    6  A    between atoms: N1_11  and  O4_13
REMARK    7  A    between atoms: C8_17  and  C9_18
REMARK    8  A    between atoms: C8_17  and  C11_21
ROOT
HETATM    1  C9  UNL     1       2.231  14.502  31.514  1.00  0.00     0.133 C
HETATM    2  C10 UNL     1       2.716  15.724  30.965  1.00  0.00     0.059 C
HETATM    3  N2  UNL     1       3.118  16.730  30.554  1.00  0.00    -0.197 NA
ENDROOT
BRANCH   1   4
HETATM    4  C8  UNL     1       2.574  13.217  30.811  1.00  0.00    -0.025 C
HETATM    5  C7  UNL     1       3.644  13.517  29.778  1.00  0.00     0.013 C
HETATM    6  C6  UNL     1       4.932  13.968  30.378  1.00  0.00     0.035 C
HETATM    7  C4  UNL     1       5.616  12.850  31.117  1.00  0.00     0.130 C
HETATM    8  C18 UNL     1       4.575  11.824  31.524  1.00  0.00     0.035 C
HETATM    9  C17 UNL     1       3.266  12.381  31.912  1.00  0.00     0.013 C
BRANCH   7  10
HETATM   10  S1  UNL     1       6.476  13.371  32.550  1.00  0.00     0.160 S
HETATM   11  O1  UNL     1       7.615  14.265  32.139  1.00  0.00    -0.227 OA
HETATM   12  O2  UNL     1       7.093  12.178  33.210  1.00  0.00    -0.227 OA
BRANCH  10  13
HETATM   13  C3  UNL     1       5.444  14.167  33.745  1.00  0.00     0.141 C
BRANCH  13  14
HETATM   14  C2  UNL     1       5.951  15.613  33.860  1.00  0.00     0.010 C
HETATM   15  C1  UNL     1       6.568  15.854  35.224  1.00  0.00     0.006 C
ENDBRANCH  13  14
ENDBRANCH  10  13
ENDBRANCH   7  10
BRANCH   7  16
HETATM   16  C5  UNL     1       6.533  12.141  30.153  1.00  0.00     0.159 C
HETATM   17  N1  UNL     1       6.100  11.612  29.071  1.00  0.00    -0.250 N
ATOM     18  H1  UNL     1       5.105  11.673  28.856  1.00  0.00     0.196 HD
BRANCH  16  19
HETATM   19  O3  UNL     1       7.883  12.051  30.433  1.00  0.00    -0.347 OA
ATOM     20  H3  UNL     1       8.365  12.831  30.684  1.00  0.00     0.219 HD
ENDBRANCH  16  19
BRANCH  17  21
HETATM   21  O4  UNL     1       6.917  10.976  28.204  1.00  0.00    -0.288 OA
ATOM     22  H4  UNL     1       7.203  10.080  28.343  1.00  0.00     0.244 HD
ENDBRANCH  17  21
ENDBRANCH   7  16
BRANCH   4  23
HETATM   23  C11 UNL     1       1.442  12.416  30.296  1.00  0.00    -0.005 C
HETATM   24  C12 UNL     1       1.660  11.635  29.041  1.00  0.00     0.005 C
HETATM   25  C13 UNL     1       0.266  11.379  28.433  1.00  0.00     0.000 C
HETATM   26  C14 UNL     1      -0.564  10.544  29.385  1.00  0.00     0.000 C
HETATM   27  C15 UNL     1      -0.641  11.216  30.713  1.00  0.00     0.000 C
HETATM   28  C16 UNL     1       0.771  11.493  31.269  1.00  0.00     0.005 C
ENDBRANCH   4  23
ENDBRANCH   1   4
TORSDOF 8
ENDMDL