MODEL 3
REMARK VINA RESULT: -9.184976669      1.542      1.915
REMARK  10 active torsions:
REMARK  status: ('A' for Active; 'I' for Inactive)
REMARK    1  A    between atoms: O1_2  and  C2_3
REMARK    2  A    between atoms: C2_3  and  C3_5
REMARK    3  A    between atoms: C7_9  and  C8_10
REMARK    4  A    between atoms: C8_10  and  C9_11
REMARK    5  A    between atoms: C9_11  and  C10_12
REMARK    6  A    between atoms: C11_13  and  C13_16
REMARK    7  A    between atoms: C13_16  and  C14_17
REMARK    8  A    between atoms: C14_17  and  C15_18
REMARK    9  A    between atoms: C18_21  and  O3_22
REMARK   10  A    between atoms: C22_27  and  O4_28
ROOT
HETATM    1  C10 UNL     1       1.660  11.006  31.321  1.00  0.00     0.069 C
HETATM    2  C11 UNL     1       1.029  10.537  30.250  1.00  0.00     0.029 C
HETATM    3  C12 UNL     1       0.874  11.293  29.076  1.00  0.00     0.095 C
HETATM    4  N1  UNL     1       0.729  11.902  28.077  1.00  0.00    -0.192 NA
ENDROOT
BRANCH   2   5
HETATM    5  C13 UNL     1       0.469   9.166  30.337  1.00  0.00     0.055 C
BRANCH   5   6
HETATM    6  C14 UNL     1      -0.765   9.144  31.214  1.00  0.00     0.040 C
BRANCH   6   7
HETATM    7  C15 UNL     1      -1.904   9.605  30.322  1.00  0.00    -0.075 C
HETATM    8  C16 UNL     1      -2.867  10.369  30.762  1.00  0.00    -0.053 C
HETATM    9  C17 UNL     1      -2.873  10.821  32.205  1.00  0.00     0.046 C
HETATM   10  C18 UNL     1      -3.963  10.853  29.879  1.00  0.00     0.147 C
HETATM   11  C19 UNL     1      -4.092  10.177  28.571  1.00  0.00     0.036 C
HETATM   12  C20 UNL     1      -3.380   8.855  28.586  1.00  0.00     0.007 C
HETATM   13  C21 UNL     1      -1.918   9.151  28.903  1.00  0.00     0.034 C
BRANCH  10  14
HETATM   14  O3  UNL     1      -5.191  10.912  30.541  1.00  0.00    -0.391 OA
ATOM     15  H3  UNL     1      -5.785  11.539  30.145  1.00  0.00     0.210 HD
ENDBRANCH  10  14
ENDBRANCH   6   7
ENDBRANCH   5   6
ENDBRANCH   2   5
BRANCH   1  16
HETATM   16  C9  UNL     1       2.219  12.274  31.381  1.00  0.00    -0.154 C
BRANCH  16  17
HETATM   17  C8  UNL     1       2.716  13.404  31.435  1.00  0.00     0.092 C
BRANCH  17  18
HETATM   18  C7  UNL     1       3.947  13.849  32.242  1.00  0.00     0.026 C
HETATM   19  C6  UNL     1       4.476  12.612  32.841  1.00  0.00     0.008 C
HETATM   20  C5  UNL     1       5.960  12.465  32.878  1.00  0.00     0.001 C
HETATM   21  C4  UNL     1       6.707  13.694  32.504  1.00  0.00     0.017 C
HETATM   22  C3  UNL     1       6.218  14.167  31.154  1.00  0.00     0.114 C
HETATM   23  C22 UNL     1       4.809  14.616  31.310  1.00  0.00     0.136 C
BRANCH  22  24
HETATM   24  C2  UNL     1       6.456  13.195  30.091  1.00  0.00     0.265 C
HETATM   25  O2  UNL     1       7.580  12.649  29.988  1.00  0.00    -0.265 OA
BRANCH  24  26
HETATM   26  O1  UNL     1       5.490  12.825  29.164  1.00  0.00    -0.326 OA
HETATM   27  C1  UNL     1       5.055  11.453  29.083  1.00  0.00     0.213 C
ENDBRANCH  24  26
ENDBRANCH  22  24
BRANCH  23  28
HETATM   28  O4  UNL     1       4.872  15.963  31.755  1.00  0.00    -0.394 OA
ATOM     29  H4  UNL     1       4.653  16.500  31.002  1.00  0.00     0.210 HD
ENDBRANCH  23  28
ENDBRANCH  17  18
ENDBRANCH  16  17
ENDBRANCH   1  16
TORSDOF 10
ENDMDL