MODEL 4
REMARK VINA RESULT: -5.882218431      1.343      1.930
REMARK  6 active torsions:
REMARK  status: ('A' for Active; 'I' for Inactive)
REMARK    1  A    between atoms: C4_5  and  C5_6
REMARK    2  A    between atoms: C5_6  and  C6_7
REMARK    3  A    between atoms: C5_6  and  N2_17
REMARK    4  A    between atoms: C11_14  and  O2_15
REMARK    5  A    between atoms: C18_24  and  O3_25
REMARK    6  A    between atoms: C20_27  and  O4_28
ROOT
HETATM    1  C1  UNL     1       1.359   8.582  33.512  1.00  0.00     0.210 C
HETATM    2  O1  UNL     1       1.680   9.381  32.568  1.00  0.00    -0.353 OA
HETATM    3  C2  UNL     1       2.018  10.221  31.575  1.00  0.00     0.104 A
HETATM    4  C3  UNL     1       3.059  11.128  31.398  1.00  0.00     0.045 A
HETATM    5  C4  UNL     1       3.277  11.825  30.265  1.00  0.00    -0.032 A
HETATM    6  C17 UNL     1       2.428  11.646  29.078  1.00  0.00     0.104 A
HETATM    7  C18 UNL     1       1.396  10.698  29.407  1.00  0.00     0.086 A
HETATM    8  C20 UNL     1       1.120  10.054  30.494  1.00  0.00     0.131 A
ENDROOT
BRANCH   8   9
HETATM    9  O4  UNL     1      -0.074   9.379  30.476  1.00  0.00    -0.351 OA
HETATM   10  C21 UNL     1      -1.100  10.266  31.097  1.00  0.00     0.210 C
ENDBRANCH   8   9
BRANCH   5  11
HETATM   11  C5  UNL     1       4.071  13.087  30.131  1.00  0.00     0.304 C
BRANCH  11  12
HETATM   12  C6  UNL     1       5.503  12.677  30.669  1.00  0.00     0.081 A
HETATM   13  N1  UNL     1       6.466  12.292  30.398  1.00  0.00    -0.358 N
HETATM   14  C7  UNL     1       7.537  11.921  30.979  1.00  0.00     0.014 A
ATOM     15  H1  UNL     1       6.548  12.196  29.386  1.00  0.00     0.165 HD
HETATM   16  C8  UNL     1       8.916  11.494  30.986  1.00  0.00     0.068 C
HETATM   17  C9  UNL     1       6.892  12.235  32.366  1.00  0.00    -0.005 A
HETATM   18  C10 UNL     1       7.614  11.775  33.544  1.00  0.00     0.053 C
HETATM   19  C11 UNL     1       5.640  12.723  32.214  1.00  0.00     0.098 A
BRANCH  19  20
HETATM   20  O2  UNL     1       4.725  13.189  33.172  1.00  0.00    -0.358 OA
ATOM     21  H2  UNL     1       3.994  13.786  33.062  1.00  0.00     0.217 HD
ENDBRANCH  19  20
ENDBRANCH  11  12
BRANCH  11  22
HETATM   22  N2  UNL     1       3.574  14.206  30.819  1.00  0.00     0.103 N
HETATM   23  C12 UNL     1       3.645  15.371  29.945  1.00  0.00     0.273 C
HETATM   24  C13 UNL     1       2.942  16.527  30.479  1.00  0.00     0.030 C
HETATM   25  C14 UNL     1       1.953  16.354  31.549  1.00  0.00     0.003 C
HETATM   26  C15 UNL     1       1.862  15.014  32.176  1.00  0.00     0.030 C
HETATM   27  C16 UNL     1       2.157  13.935  31.113  1.00  0.00     0.273 C
ENDBRANCH  11  22
ENDBRANCH   5  11
BRANCH   7  28
HETATM   28  O3  UNL     1       0.588  10.481  28.170  1.00  0.00    -0.357 OA
HETATM   29  C19 UNL     1      -0.062  11.609  27.779  1.00  0.00     0.209 C
ENDBRANCH   7  28
TORSDOF 6
ENDMDL