MODEL 5
REMARK VINA RESULT: -8.901850780      0.947      1.481
REMARK  10 active torsions:
REMARK  status: ('A' for Active; 'I' for Inactive)
REMARK       I    between atoms: C2_2  and  N1_4
REMARK    1  A    between atoms: N1_4  and  C4_6
REMARK    2  A    between atoms: C6_8  and  C7_9
REMARK    3  A    between atoms: C7_9  and  O3_11
REMARK    4  A    between atoms: O3_11  and  C8_12
REMARK    5  A    between atoms: C8_12  and  C9_13
REMARK    6  A    between atoms: C9_13  and  C10_14
REMARK    7  A    between atoms: C10_14  and  C11_15
REMARK    8  A    between atoms: C19_23  and  C20_24
REMARK    9  A    between atoms: C20_24  and  O4_25
REMARK   10  A    between atoms: N2_27  and  O5_29
ROOT
HETATM    1  C4  UNL     1       3.826  12.836  31.430  1.00  0.00     0.052 A
HETATM    2  C5  UNL     1       3.468  11.525  31.779  1.00  0.00     0.048 A
HETATM    3  C6  UNL     1       2.203  11.022  31.580  1.00  0.00     0.041 A
HETATM    4  C17 UNL     1       1.291  11.883  31.010  1.00  0.00     0.018 A
HETATM    5  C18 UNL     1       1.622  13.169  30.661  1.00  0.00     0.019 A
HETATM    6  C19 UNL     1       2.909  13.687  30.864  1.00  0.00     0.043 A
ENDROOT
BRANCH   3   7
HETATM    7  C7  UNL     1       1.877   9.652  31.968  1.00  0.00     0.293 C
HETATM    8  O2  UNL     1       2.112   9.253  33.155  1.00  0.00    -0.259 OA
BRANCH   7   9
HETATM    9  O3  UNL     1       1.313   8.739  31.106  1.00  0.00    -0.318 OA
BRANCH   9  10
HETATM   10  C8  UNL     1      -0.007   8.239  31.211  1.00  0.00     0.179 C
BRANCH  10  11
HETATM   11  C9  UNL     1      -0.974   9.237  31.798  1.00  0.00     0.027 C
BRANCH  11  12
HETATM   12  C10 UNL     1      -2.331   9.146  31.161  1.00  0.00     0.007 C
BRANCH  12  13
HETATM   13  C11 UNL     1      -2.617  10.415  30.408  1.00  0.00    -0.014 C
HETATM   14  C12 UNL     1      -4.008  10.451  29.826  1.00  0.00     0.004 C
HETATM   15  C13 UNL     1      -4.165   9.622  28.593  1.00  0.00     0.000 C
HETATM   16  C14 UNL     1      -3.123   9.992  27.557  1.00  0.00     0.000 C
HETATM   17  C15 UNL     1      -1.758   9.714  28.171  1.00  0.00     0.000 C
HETATM   18  C16 UNL     1      -1.614  10.707  29.331  1.00  0.00     0.004 C
ENDBRANCH  12  13
ENDBRANCH  11  12
ENDBRANCH  10  11
ENDBRANCH   9  10
ENDBRANCH   7   9
ENDBRANCH   3   7
BRANCH   1  19
HETATM   19  N1  UNL     1       5.162  13.242  31.681  1.00  0.00    -0.322 N
HETATM   20  C2  UNL     1       5.516  13.929  32.862  1.00  0.00     0.220 C
HETATM   21  C1  UNL     1       4.442  14.265  33.834  1.00  0.00     0.117 C
HETATM   22  O1  UNL     1       6.690  14.252  33.096  1.00  0.00    -0.274 OA
HETATM   23  C3  UNL     1       6.193  12.981  30.700  1.00  0.00     0.159 C
ENDBRANCH   1  19
BRANCH   6  24
HETATM   24  C20 UNL     1       3.201  15.062  30.483  1.00  0.00     0.172 C
HETATM   25  N2  UNL     1       2.733  16.011  31.228  1.00  0.00    -0.247 N
ATOM     26  H2  UNL     1       2.183  15.747  32.046  1.00  0.00     0.196 HD
BRANCH  24  27
HETATM   27  O4  UNL     1       3.938  15.458  29.391  1.00  0.00    -0.344 OA
ATOM     28  H4  UNL     1       4.607  16.133  29.385  1.00  0.00     0.219 HD
ENDBRANCH  24  27
BRANCH  25  29
HETATM   29  O5  UNL     1       2.926  17.337  30.995  1.00  0.00    -0.288 OA
ATOM     30  H5  UNL     1       2.385  18.030  31.355  1.00  0.00     0.244 HD
ENDBRANCH  25  29
ENDBRANCH   6  24
TORSDOF 10
ENDMDL