MODEL 5
REMARK VINA RESULT: -7.898769867      2.295      3.976
REMARK  7 active torsions:
REMARK  status: ('A' for Active; 'I' for Inactive)
REMARK    1  A    between atoms: C5_5  and  C6_6
REMARK    2  A    between atoms: C6_6  and  O1_7
REMARK    3  A    between atoms: C11_15  and  C12_16
REMARK    4  A    between atoms: C12_16  and  C13_18
REMARK    5  A    between atoms: C13_18  and  C14_19
REMARK    6  A    between atoms: C14_19  and  C15_20
REMARK    7  A    between atoms: C15_20  and  C16_21
ROOT
HETATM    1  C1  UNL     1       4.232  14.408  33.848  1.00  0.00     0.017 C
HETATM    2  C2  UNL     1       4.685  13.655  32.474  1.00  0.00    -0.023 C
HETATM    3  C3  UNL     1       6.128  13.624  32.498  1.00  0.00     0.011 C
HETATM    4  C4  UNL     1       7.013  12.378  32.451  1.00  0.00     0.012 C
HETATM    5  C5  UNL     1       7.009  11.725  30.968  1.00  0.00     0.039 C
HETATM    6  C7  UNL     1       5.845  12.553  30.501  1.00  0.00    -0.066 C
HETATM    7  C8  UNL     1       5.869  13.788  30.003  1.00  0.00     0.049 C
HETATM    8  S1  UNL     1       4.088  14.464  29.720  1.00  0.00    -0.128 SA
HETATM    9  C9  UNL     1       3.660  14.230  31.566  1.00  0.00     0.130 C
HETATM   10  C10 UNL     1       2.635  13.095  31.361  1.00  0.00     0.158 C
HETATM   11  O2  UNL     1       1.483  13.268  31.192  1.00  0.00    -0.295 OA
HETATM   12  C11 UNL     1       3.538  11.895  31.451  1.00  0.00     0.086 C
HETATM   13  C19 UNL     1       4.498  11.781  30.376  1.00  0.00     0.060 C
HETATM   14  C20 UNL     1       4.117  12.236  32.814  1.00  0.00     0.036 C
ENDROOT
BRANCH  12  15
HETATM   15  C12 UNL     1       2.698  10.702  31.533  1.00  0.00     0.143 C
HETATM   16  O3  UNL     1       2.464  10.199  32.615  1.00  0.00    -0.297 OA
BRANCH  15  17
HETATM   17  C13 UNL     1       2.122  10.089  30.325  1.00  0.00     0.080 C
BRANCH  17  18
HETATM   18  C14 UNL     1       0.697   9.582  30.578  1.00  0.00     0.013 C
BRANCH  18  19
HETATM   19  C15 UNL     1      -0.228  10.492  29.812  1.00  0.00     0.059 C
BRANCH  19  20
HETATM   20  C16 UNL     1      -1.577  10.542  30.408  1.00  0.00     0.025 A
HETATM   21  C17 UNL     1      -1.899  10.814  31.727  1.00  0.00     0.113 A
HETATM   22  N1  UNL     1      -3.235  10.768  31.884  1.00  0.00    -0.360 N
HETATM   23  C18 UNL     1      -3.747  10.473  30.672  1.00  0.00     0.180 A
ATOM     24  H1  UNL     1      -3.756  10.926  32.747  1.00  0.00     0.166 HD
HETATM   25  N2  UNL     1      -2.742  10.336  29.784  1.00  0.00    -0.355 N
ATOM     26  H2  UNL     1      -2.853  10.112  28.795  1.00  0.00     0.166 HD
ENDBRANCH  19  20
ENDBRANCH  18  19
ENDBRANCH  17  18
ENDBRANCH  15  17
ENDBRANCH  12  15
BRANCH   5  27
HETATM   27  C6  UNL     1       8.343  11.749  30.400  1.00  0.00     0.173 C
BRANCH  27  28
HETATM   28  O1  UNL     1       9.261  10.873  30.971  1.00  0.00    -0.400 OA
ATOM     29  H1  UNL     1       9.442  10.082  30.476  1.00  0.00     0.209 HD
ENDBRANCH  27  28
ENDBRANCH   5  27
TORSDOF 7
ENDMDL