MODEL 3
REMARK VINA RESULT: -5.930889433      3.632      7.727
REMARK  7 active torsions:
REMARK  status: ('A' for Active; 'I' for Inactive)
REMARK    1  A    between atoms: O1_2  and  C2_3
REMARK    2  A    between atoms: C5_6  and  C6_7
REMARK    3  A    between atoms: C7_8  and  N1_9
REMARK    4  A    between atoms: N1_9  and  C9_11
REMARK    5  A    between atoms: C9_11  and  C10_12
REMARK    6  A    between atoms: C18_24  and  N4_25
REMARK    7  A    between atoms: C20_29  and  O2_30
ROOT
HETATM    1  C6  UNL     1      -0.709   9.360  30.659  1.00  0.00     0.062 A
HETATM    2  C7  UNL     1       0.587   9.823  30.461  1.00  0.00     0.118 A
HETATM    3  N2  UNL     1       1.539   9.649  31.386  1.00  0.00    -0.338 N
ATOM      4  H2  UNL     1       2.483   9.997  31.219  1.00  0.00     0.168 HD
HETATM    5  C17 UNL     1       1.251   9.015  32.537  1.00  0.00     0.183 A
HETATM    6  N3  UNL     1       0.016   8.547  32.780  1.00  0.00    -0.338 N
ATOM      7  H3  UNL     1      -0.185   8.067  33.657  1.00  0.00     0.168 HD
HETATM    8  C18 UNL     1      -0.970   8.715  31.850  1.00  0.00     0.114 A
ENDROOT
BRANCH   1   9
HETATM    9  C5  UNL     1      -1.732   9.571  29.656  1.00  0.00    -0.016 A
HETATM   10  C4  UNL     1      -2.432  10.749  29.574  1.00  0.00     0.015 A
HETATM   11  C3  UNL     1      -3.413  10.960  28.624  1.00  0.00     0.040 A
HETATM   12  C2  UNL     1      -3.737   9.987  27.704  1.00  0.00     0.101 A
HETATM   13  C20 UNL     1      -3.045   8.793  27.765  1.00  0.00     0.102 A
HETATM   14  C19 UNL     1      -2.073   8.593  28.713  1.00  0.00     0.052 A
BRANCH  12  15
HETATM   15  O1  UNL     1      -4.731  10.204  26.743  1.00  0.00    -0.353 OA
HETATM   16  C1  UNL     1      -6.072  10.500  27.165  1.00  0.00     0.210 C
ENDBRANCH  12  15
BRANCH  13  17
HETATM   17  O2  UNL     1      -3.350   7.817  26.861  1.00  0.00    -0.353 OA
HETATM   18  C21 UNL     1      -3.052   6.474  26.842  1.00  0.00     0.210 C
ENDBRANCH  13  17
ENDBRANCH   1   9
BRANCH   2  19
HETATM   19  N1  UNL     1       0.879  10.487  29.260  1.00  0.00    -0.370 N
HETATM   20  C8  UNL     1       0.788   9.760  27.975  1.00  0.00     0.151 C
BRANCH  19  21
HETATM   21  C9  UNL     1       1.308  11.861  29.127  1.00  0.00     0.128 C
BRANCH  21  22
HETATM   22  C10 UNL     1       2.658  12.176  29.676  1.00  0.00     0.003 C
HETATM   23  C11 UNL     1       3.452  13.195  28.952  1.00  0.00     0.006 C
HETATM   24  C12 UNL     1       4.389  14.002  29.783  1.00  0.00     0.000 C
HETATM   25  C13 UNL     1       3.739  15.221  30.420  1.00  0.00     0.000 C
HETATM   26  C14 UNL     1       3.131  14.763  31.722  1.00  0.00     0.000 C
HETATM   27  C15 UNL     1       1.961  13.861  31.393  1.00  0.00     0.000 C
HETATM   28  C16 UNL     1       2.498  12.477  31.164  1.00  0.00     0.006 C
ENDBRANCH  21  22
ENDBRANCH  19  21
ENDBRANCH   2  19
BRANCH   8  29
HETATM   29  N4  UNL     1      -2.160   8.282  32.049  1.00  0.00    -0.385 N
ATOM     30  H42 UNL     1      -2.971   8.745  31.639  1.00  0.00     0.157 HD
ATOM     31  H41 UNL     1      -2.275   7.455  32.634  1.00  0.00     0.157 HD
ENDBRANCH   8  29
TORSDOF 7
ENDMDL