MODEL 1
REMARK VINA RESULT: -7.211477707      0.000      0.000
REMARK  7 active torsions:
REMARK  status: ('A' for Active; 'I' for Inactive)
REMARK    1  A    between atoms: C4_4  and  C5_5
REMARK    2  A    between atoms: C5_5  and  O1_6
REMARK    3  A    between atoms: C5_5  and  S1_8
REMARK    4  A    between atoms: C5_5  and  C8_11
REMARK    5  A    between atoms: S1_8  and  C6_9
REMARK    6  A    between atoms: C8_11  and  C11_14
REMARK    7  A    between atoms: C17_23  and  C18_24
ROOT
HETATM    1  C1  UNL     1       4.835  11.694  29.189  1.00  0.00     0.020 C
HETATM    2  C2  UNL     1       3.850  11.729  30.078  1.00  0.00    -0.027 C
HETATM    3  C3  UNL     1       2.849  10.629  30.125  1.00  0.00     0.047 C
HETATM    4  C4  UNL     1       1.622  10.863  30.891  1.00  0.00     0.036 C
HETATM    5  C12 UNL     1       1.555  12.192  31.579  1.00  0.00     0.014 C
HETATM    6  C13 UNL     1       2.295  13.306  30.912  1.00  0.00     0.074 C
HETATM    7  C14 UNL     1       3.777  12.885  31.009  1.00  0.00     0.188 C
HETATM    8  O4  UNL     1       3.960  12.507  32.332  1.00  0.00    -0.351 OA
HETATM    9  C15 UNL     1       5.251  12.196  32.664  1.00  0.00     0.174 C
HETATM   10  C16 UNL     1       6.254  13.177  32.134  1.00  0.00     0.058 C
HETATM   11  C17 UNL     1       5.553  14.319  31.449  1.00  0.00     0.127 C
HETATM   12  O5  UNL     1       4.529  13.956  30.625  1.00  0.00    -0.346 OA
ENDROOT
BRANCH   4  13
HETATM   13  C5  UNL     1       0.309  10.521  30.204  1.00  0.00     0.126 C
BRANCH  13  14
HETATM   14  O1  UNL     1      -0.444  11.756  30.392  1.00  0.00    -0.378 OA
ATOM     15  H1  UNL     1      -0.942  11.554  31.175  1.00  0.00     0.211 HD
ENDBRANCH  13  14
BRANCH  13  16
HETATM   16  S1  UNL     1       0.395  10.371  28.443  1.00  0.00    -0.130 SA
BRANCH  16  17
HETATM   17  C6  UNL     1      -0.678  11.341  27.444  1.00  0.00     0.072 C
HETATM   18  C7  UNL     1      -2.078  10.696  27.512  1.00  0.00     0.016 C
ENDBRANCH  16  17
ENDBRANCH  13  16
BRANCH  13  19
HETATM   19  C8  UNL     1      -0.541   9.521  30.911  1.00  0.00     0.082 C
HETATM   20  C9  UNL     1       0.156   8.936  32.134  1.00  0.00     0.030 C
HETATM   21  C10 UNL     1      -1.005   8.340  30.105  1.00  0.00     0.030 C
BRANCH  19  22
HETATM   22  C11 UNL     1      -1.713  10.262  31.489  1.00  0.00     0.185 C
HETATM   23  O2  UNL     1      -1.653  10.794  32.605  1.00  0.00    -0.647 OA
HETATM   24  O3  UNL     1      -2.851  10.299  30.680  1.00  0.00    -0.647 OA
ENDBRANCH  19  22
ENDBRANCH  13  19
ENDBRANCH   4  13
BRANCH  11  25
HETATM   25  C18 UNL     1       5.064  15.326  32.450  1.00  0.00     0.027 C
HETATM   26  C19 UNL     1       5.898  15.358  33.709  1.00  0.00     0.007 C
ENDBRANCH  11  25
TORSDOF 7
ENDMDL