MODEL 4
REMARK VINA RESULT: -8.732501398      2.372      3.811
REMARK  8 active torsions:
REMARK  status: ('A' for Active; 'I' for Inactive)
REMARK    1  A    between atoms: C2_2  and  N1_3
REMARK    2  A    between atoms: N1_3  and  C3_5
REMARK    3  A    between atoms: N2_8  and  C6_9
REMARK    4  A    between atoms: C8_11  and  O1_12
REMARK    5  A    between atoms: N3_14  and  C9_15
REMARK    6  A    between atoms: C9_15  and  C12_18
REMARK    7  A    between atoms: C12_18  and  C13_19
REMARK    8  A    between atoms: C13_19  and  C14_20
ROOT
HETATM    1  C6  UNL     1       1.468  11.712  30.341  1.00  0.00     0.039 A
HETATM    2  C7  UNL     1       0.585  11.232  31.263  1.00  0.00     0.085 A
HETATM    3  C8  UNL     1      -0.669  10.729  30.909  1.00  0.00     0.147 A
HETATM    4  N3  UNL     1      -1.047  10.710  29.593  1.00  0.00    -0.285 N
HETATM    5  C19 UNL     1      -0.195  11.176  28.676  1.00  0.00     0.252 A
HETATM    6  O2  UNL     1      -0.553  11.152  27.472  1.00  0.00    -0.268 OA
HETATM    7  C20 UNL     1       1.052  11.677  29.015  1.00  0.00     0.104 A
ENDROOT
BRANCH   1   8
HETATM    8  N2  UNL     1       2.770  12.200  30.684  1.00  0.00    -0.380 N
HETATM    9  C5  UNL     1       3.374  13.086  29.721  1.00  0.00     0.125 C
HETATM   10  C4  UNL     1       4.406  14.024  30.282  1.00  0.00     0.044 C
HETATM   11  C3  UNL     1       5.219  13.220  31.279  1.00  0.00     0.079 C
HETATM   12  C22 UNL     1       4.291  12.896  32.410  1.00  0.00     0.044 C
HETATM   13  C21 UNL     1       3.384  11.764  31.901  1.00  0.00     0.125 C
BRANCH  11  14
HETATM   14  N1  UNL     1       6.463  13.796  31.617  1.00  0.00    -0.417 N
ATOM     15  H1  UNL     1       6.540  14.438  32.406  1.00  0.00     0.153 HD
BRANCH  14  16
HETATM   16  C2  UNL     1       7.599  13.467  30.841  1.00  0.00     0.110 C
HETATM   17  C1  UNL     1       8.059  12.049  30.915  1.00  0.00     0.026 C
ENDBRANCH  14  16
ENDBRANCH  11  14
ENDBRANCH   1   8
BRANCH   3  18
HETATM   18  O1  UNL     1      -1.471  10.275  31.939  1.00  0.00    -0.346 OA
ATOM     19  H1  UNL     1      -2.005   9.510  31.760  1.00  0.00     0.219 HD
ENDBRANCH   3  18
BRANCH   4  20
HETATM   20  C9  UNL     1      -2.347  10.160  29.359  1.00  0.00     0.035 C
HETATM   21  C10 UNL     1      -3.316  10.505  30.475  1.00  0.00     0.039 C
HETATM   22  C11 UNL     1      -2.157   8.635  29.359  1.00  0.00     0.039 C
BRANCH  20  23
HETATM   23  C12 UNL     1      -3.003  10.500  28.075  1.00  0.00     0.031 C
BRANCH  23  24
HETATM   24  C13 UNL     1      -3.419   9.192  27.390  1.00  0.00     0.007 C
BRANCH  24  25
HETATM   25  C14 UNL     1      -4.723   9.388  26.623  1.00  0.00    -0.014 C
HETATM   26  C15 UNL     1      -5.769   9.734  27.658  1.00  0.00     0.004 C
HETATM   27  C16 UNL     1      -7.058   9.266  27.068  1.00  0.00     0.000 C
HETATM   28  C17 UNL     1      -6.706   8.322  25.939  1.00  0.00     0.000 C
HETATM   29  C18 UNL     1      -5.217   8.053  26.092  1.00  0.00     0.004 C
ENDBRANCH  24  25
ENDBRANCH  23  24
ENDBRANCH  20  23
ENDBRANCH   4  20
TORSDOF 8
ENDMDL