MODEL 1
REMARK VINA RESULT: -6.251865178      0.000      0.000
REMARK  1 active torsions:
REMARK  status: ('A' for Active; 'I' for Inactive)
REMARK    1  A    between atoms: C7_10  and  N3_11
ROOT
HETATM    1  C1  UNL     1     -21.632   5.327  -1.143  1.00  0.00     0.019 C
HETATM    2  C2  UNL     1     -21.586   4.410  -0.355  1.00  0.00    -0.056 C
HETATM    3  C3  UNL     1     -21.551   3.317   0.577  1.00  0.00     0.129 A
HETATM    4  N1  UNL     1     -21.691   3.327   1.908  1.00  0.00    -0.288 N
ATOM      5  H1  UNL     1     -21.851   4.166   2.466  1.00  0.00     0.188 HD
HETATM    6  N2  UNL     1     -21.594   2.097   2.407  1.00  0.00    -0.298 N
HETATM    7  C4  UNL     1     -21.689   1.683   3.805  1.00  0.00     0.177 C
HETATM    8  C5  UNL     1     -21.383   1.219   1.407  1.00  0.00     0.053 A
HETATM    9  C6  UNL     1     -21.216  -0.253   1.504  1.00  0.00     0.072 C
HETATM   10  C7  UNL     1     -21.355   1.971   0.251  1.00  0.00     0.090 A
ENDROOT
BRANCH  10  11
HETATM   11  N3  UNL     1     -21.158   1.472  -1.062  1.00  0.00    -0.386 N
HETATM   12  C8  UNL     1     -19.810   1.420  -1.633  1.00  0.00     0.149 C
HETATM   13  C9  UNL     1     -22.254   1.002  -1.883  1.00  0.00     0.149 C
ENDBRANCH  10  11
TORSDOF 1
ENDMDL