MODEL 2
REMARK VINA RESULT: -5.478960339      1.892      2.239
REMARK  1 active torsions:
REMARK  status: ('A' for Active; 'I' for Inactive)
REMARK    1  A    between atoms: C2_2  and  N1_3
REMARK       I    between atoms: N1_3  and  C3_5
REMARK       I    between atoms: C3_5  and  N3_11
REMARK       I    between atoms: N2_6  and  C4_8
ROOT
HETATM    1  N1  UNL     1     -20.712   1.357   0.911  1.00  0.00    -0.226 N
ATOM      2  H1  UNL     1     -19.726   1.450   1.152  1.00  0.00     0.177 HD
HETATM    3  C3  UNL     1     -21.321   2.443   0.258  1.00  0.00     0.677 C
HETATM    4  N2  UNL     1     -22.076   3.229   0.888  1.00  0.00    -0.160 N
ATOM      5  H2  UNL     1     -22.190   2.998   1.875  1.00  0.00     0.187 HD
HETATM    6  C4  UNL     1     -22.779   4.351   0.481  1.00  0.00     0.231 C
HETATM    7  C5  UNL     1     -22.128   5.579  -0.004  1.00  0.00     0.118 C
HETATM    8  O1  UNL     1     -24.042   4.327   0.524  1.00  0.00    -0.273 OA
HETATM    9  N3  UNL     1     -21.086   2.644  -1.109  1.00  0.00    -0.227 N
HETATM   10  C6  UNL     1     -19.690   2.815  -1.533  1.00  0.00     0.168 C
HETATM   11  C7  UNL     1     -22.081   2.698  -2.154  1.00  0.00     0.168 C
ENDROOT
BRANCH   1  12
HETATM   12  C2  UNL     1     -21.361   0.130   1.267  1.00  0.00     0.133 C
HETATM   13  C1  UNL     1     -20.785  -1.082   0.602  1.00  0.00     0.027 C
ENDBRANCH   1  12
TORSDOF 1
ENDMDL