MODEL 3
REMARK VINA RESULT: -5.476610956      2.366      5.036
REMARK  2 active torsions:
REMARK  status: ('A' for Active; 'I' for Inactive)
REMARK    1  A    between atoms: C2_2  and  C3_3
REMARK    2  A    between atoms: C4_4  and  C5_5
REMARK       I    between atoms: C5_5  and  N1_7
REMARK       I    between atoms: C6_9  and  N3_11
ROOT
HETATM    1  C5  UNL     1     -21.723   1.165  -0.854  1.00  0.00     0.247 C
HETATM    2  O1  UNL     1     -22.246   0.450  -1.718  1.00  0.00    -0.268 OA
HETATM    3  N1  UNL     1     -21.320   2.475  -1.283  1.00  0.00    -0.298 N
ATOM      4  H1  UNL     1     -20.680   2.554  -2.073  1.00  0.00     0.171 HD
HETATM    5  C6  UNL     1     -21.725   3.543  -0.721  1.00  0.00     0.192 C
HETATM    6  N2  UNL     1     -22.613   3.467   0.379  1.00  0.00    -0.063 NA
HETATM    7  N3  UNL     1     -21.270   4.794  -1.219  1.00  0.00    -0.364 N
HETATM    8  C7  UNL     1     -21.377   5.981  -0.372  1.00  0.00     0.151 C
HETATM    9  C8  UNL     1     -20.702   4.900  -2.555  1.00  0.00     0.151 C
ENDROOT
BRANCH   1  10
HETATM   10  C4  UNL     1     -21.481   0.822   0.511  1.00  0.00     0.070 C
HETATM   11  C3  UNL     1     -20.981  -0.268   0.963  1.00  0.00    -0.022 C
BRANCH  11  12
HETATM   12  C2  UNL     1     -20.548  -1.411   0.176  1.00  0.00     0.023 C
HETATM   13  C1  UNL     1     -19.312  -1.056  -0.685  1.00  0.00     0.009 C
ENDBRANCH  11  12
ENDBRANCH   1  10
TORSDOF 2
ENDMDL