MODEL 5
REMARK VINA RESULT: -4.930463002      1.480      1.545
REMARK  4 active torsions:
REMARK  status: ('A' for Active; 'I' for Inactive)
REMARK    1  A    between atoms: C2_2  and  C4_4
REMARK    2  A    between atoms: C5_5  and  C6_6
REMARK    3  A    between atoms: C7_7  and  C8_8
REMARK    4  A    between atoms: C8_8  and  C10_10
ROOT
HETATM    1  C6  UNL     1     -21.402   2.148   4.146  1.00  0.00    -0.014 C
HETATM    2  C7  UNL     1     -21.615   2.198   2.957  1.00  0.00    -0.079 C
ENDROOT
BRANCH   1   3
HETATM    3  C5  UNL     1     -21.134   2.105   5.536  1.00  0.00    -0.015 C
HETATM    4  C4  UNL     1     -20.895   2.069   6.722  1.00  0.00    -0.088 C
BRANCH   4   5
HETATM    5  C2  UNL     1     -20.595   2.023   8.154  1.00  0.00     0.058 C
HETATM    6  C1  UNL     1     -19.186   1.472   8.285  1.00  0.00     0.023 C
HETATM    7  C3  UNL     1     -21.607   1.157   8.828  1.00  0.00     0.023 C
ENDBRANCH   4   5
ENDBRANCH   1   3
BRANCH   2   8
HETATM    8  C8  UNL     1     -21.851   2.268   1.514  1.00  0.00     0.151 C
HETATM    9  C9  UNL     1     -20.971   1.257   0.799  1.00  0.00     0.033 C
BRANCH   8  10
HETATM   10  C10 UNL     1     -21.533   3.653   1.059  1.00  0.00     0.246 C
HETATM   11  N1  UNL     1     -22.617   4.522   0.819  1.00  0.00    -0.061 NA
HETATM   12  O1  UNL     1     -20.336   4.030   0.895  1.00  0.00    -0.275 OA
ENDBRANCH   8  10
ENDBRANCH   2   8
TORSDOF 4
ENDMDL