MODEL 4
REMARK VINA RESULT: -4.403866579      2.739      4.946
REMARK  4 active torsions:
REMARK  status: ('A' for Active; 'I' for Inactive)
REMARK    1  A    between atoms: S1_2  and  C3_4
REMARK    2  A    between atoms: C3_4  and  C4_5
REMARK    3  A    between atoms: C5_6  and  C6_7
REMARK    4  A    between atoms: C6_7  and  O1_10
ROOT
HETATM    1  C4  UNL     1     -21.216   2.614   0.504  1.00  0.00    -0.094 C
HETATM    2  C5  UNL     1     -21.446   3.719   0.030  1.00  0.00    -0.068 C
ENDROOT
BRANCH   2   3
HETATM    3  C6  UNL     1     -21.732   5.030  -0.554  1.00  0.00     0.114 C
HETATM    4  C7  UNL     1     -21.848   4.857  -2.033  1.00  0.00     0.060 C
HETATM    5  C8  UNL     1     -23.084   5.565  -0.060  1.00  0.00     0.060 C
BRANCH   3   6
HETATM    6  O1  UNL     1     -20.774   5.975  -0.189  1.00  0.00    -0.378 OA
ATOM      7  H1  UNL     1     -20.960   6.825  -0.569  1.00  0.00     0.211 HD
ENDBRANCH   3   6
ENDBRANCH   2   3
BRANCH   1   8
HETATM    8  C3  UNL     1     -20.961   1.282   1.058  1.00  0.00     0.156 C
BRANCH   8   9
HETATM    9  S1  UNL     1     -20.523   0.205  -0.269  1.00  0.00    -0.217 SA
HETATM   10  C1  UNL     1     -21.642   0.464  -1.648  1.00  0.00     0.079 C
HETATM   11  C2  UNL     1     -20.578  -1.498   0.207  1.00  0.00     0.079 C
ENDBRANCH   8   9
ENDBRANCH   1   8
TORSDOF 4
ENDMDL