MODEL 5
REMARK VINA RESULT: -6.724040055      1.655      2.642
REMARK  1 active torsions:
REMARK  status: ('A' for Active; 'I' for Inactive)
REMARK    1  A    between atoms: C3_5  and  C4_6
ROOT
HETATM    1  C4  UNL     1     -20.666   4.293  -0.865  1.00  0.00     0.294 C
HETATM    2  O1  UNL     1     -20.647   5.183   0.017  1.00  0.00    -0.272 OA
HETATM    3  C5  UNL     1     -20.631   4.558  -2.271  1.00  0.00     0.147 C
HETATM    4  N2  UNL     1     -20.602   4.754  -3.411  1.00  0.00    -0.188 NA
ENDROOT
BRANCH   1   5
HETATM    5  C3  UNL     1     -20.725   2.907  -0.423  1.00  0.00     0.170 A
HETATM    6  N1  UNL     1     -20.335   1.807  -1.111  1.00  0.00    -0.341 N
HETATM    7  C2  UNL     1     -20.536   0.693  -0.391  1.00  0.00     0.029 A
ATOM      8  H1  UNL     1     -19.941   1.824  -2.052  1.00  0.00     0.167 HD
HETATM    9  C1  UNL     1     -20.223  -0.710  -0.830  1.00  0.00     0.070 C
HETATM   10  C7  UNL     1     -21.080   1.094   0.811  1.00  0.00     0.031 A
HETATM   11  N3  UNL     1     -21.180   2.427   0.760  1.00  0.00    -0.336 N
HETATM   12  C8  UNL     1     -21.451   0.156   1.893  1.00  0.00     0.070 C
HETATM   13  C6  UNL     1     -21.703   3.276   1.818  1.00  0.00     0.158 C
ENDBRANCH   1   5
TORSDOF 1
ENDMDL