MODEL 1
REMARK VINA RESULT: -7.041828175      0.000      0.000
REMARK  1 active torsions:
REMARK  status: ('A' for Active; 'I' for Inactive)
REMARK    1  A    between atoms: C4_4  and  C5_5
REMARK       I    between atoms: N2_7  and  C6_9
REMARK       I    between atoms: C6_9  and  N3_11
ROOT
HETATM    1  C1  UNL     1     -21.855   0.544   2.723  1.00  0.00     0.102 C
HETATM    2  C2  UNL     1     -21.352  -0.041   1.766  1.00  0.00    -0.160 C
HETATM    3  C3  UNL     1     -20.759  -0.746   0.679  1.00  0.00     0.053 C
HETATM    4  C4  UNL     1     -20.754  -0.301  -0.542  1.00  0.00     0.053 C
ENDROOT
BRANCH   4   5
HETATM    5  C5  UNL     1     -21.333   0.945  -0.989  1.00  0.00     0.120 C
HETATM    6  N1  UNL     1     -22.353   1.047  -1.984  1.00  0.00    -0.083 NA
HETATM    7  N2  UNL     1     -20.894   2.046  -0.445  1.00  0.00    -0.297 N
HETATM    8  C6  UNL     1     -21.438   3.292  -0.855  1.00  0.00     0.322 C
ATOM      9  H2  UNL     1     -20.167   2.012   0.269  1.00  0.00     0.171 HD
HETATM   10  O1  UNL     1     -21.740   3.455  -2.072  1.00  0.00    -0.247 OA
HETATM   11  N3  UNL     1     -21.655   4.358   0.039  1.00  0.00    -0.343 N
HETATM   12  C7  UNL     1     -22.208   5.596  -0.437  1.00  0.00     0.154 C
HETATM   13  C8  UNL     1     -21.316   4.191   1.430  1.00  0.00     0.154 C
ENDBRANCH   4   5
TORSDOF 1
ENDMDL