MODEL 4
REMARK VINA RESULT: -4.341363972      7.876      8.732
REMARK  2 active torsions:
REMARK  status: ('A' for Active; 'I' for Inactive)
REMARK    1  A    between atoms: C3_3  and  N1_4
REMARK       I    between atoms: N1_4  and  C4_6
REMARK       I    between atoms: C4_6  and  N3_12
REMARK    2  A    between atoms: N2_7  and  C5_9
ROOT
HETATM    1  C1  UNL     1     -20.606   2.356   7.514  1.00  0.00     0.014 C
HETATM    2  C2  UNL     1     -19.669   3.116   7.509  1.00  0.00    -0.097 C
HETATM    3  C3  UNL     1     -18.517   4.044   7.524  1.00  0.00     0.231 C
ENDROOT
BRANCH   3   4
HETATM    4  N1  UNL     1     -17.424   3.556   6.734  1.00  0.00    -0.215 N
HETATM    5  C4  UNL     1     -16.056   3.643   7.160  1.00  0.00     0.683 C
HETATM    6  N2  UNL     1     -15.391   2.551   7.312  1.00  0.00    -0.149 N
HETATM    7  N3  UNL     1     -15.463   4.913   7.406  1.00  0.00    -0.226 N
ATOM      8  H2  UNL     1     -14.417   2.582   7.615  1.00  0.00     0.195 HD
HETATM    9  C8  UNL     1     -15.858   5.804   8.471  1.00  0.00     0.168 C
HETATM   10  C9  UNL     1     -14.395   5.334   6.526  1.00  0.00     0.168 C
ATOM     11  H1  UNL     1     -17.628   3.127   5.832  1.00  0.00     0.178 HD
BRANCH   6  12
HETATM   12  C5  UNL     1     -16.006   1.323   7.061  1.00  0.00     0.025 C
HETATM   13  C6  UNL     1     -16.543   0.255   6.865  1.00  0.00    -0.087 C
HETATM   14  C7  UNL     1     -17.205  -1.035   6.649  1.00  0.00     0.113 C
ENDBRANCH   6  12
ENDBRANCH   3   4
TORSDOF 2
ENDMDL