MODEL 5
REMARK VINA RESULT: -4.861054085      1.657      2.251
REMARK  5 active torsions:
REMARK  status: ('A' for Active; 'I' for Inactive)
REMARK    1  A    between atoms: C3_3  and  C4_4
REMARK    2  A    between atoms: C5_5  and  C6_6
REMARK    3  A    between atoms: C6_6  and  C7_7
REMARK    4  A    between atoms: C7_7  and  O1_8
REMARK    5  A    between atoms: N1_10  and  O2_12
ROOT
HETATM    1  C1  UNL     1     -20.761   2.260   8.045  1.00  0.00     0.113 C
HETATM    2  C2  UNL     1     -20.981   2.165   6.600  1.00  0.00    -0.097 C
HETATM    3  C3  UNL     1     -21.168   2.068   5.410  1.00  0.00    -0.015 C
ENDROOT
BRANCH   3   4
HETATM    4  C4  UNL     1     -21.387   1.934   4.014  1.00  0.00    -0.015 C
HETATM    5  C5  UNL     1     -21.556   1.825   2.824  1.00  0.00    -0.084 C
BRANCH   5   6
HETATM    6  C6  UNL     1     -21.742   1.706   1.358  1.00  0.00     0.180 C
BRANCH   6   7
HETATM    7  C7  UNL     1     -20.998   2.811   0.741  1.00  0.00     0.148 C
HETATM    8  N1  UNL     1     -20.370   2.619  -0.353  1.00  0.00    -0.246 N
HETATM    9  C8  UNL     1     -20.365   1.326  -1.020  1.00  0.00     0.187 C
BRANCH   7  10
HETATM   10  O1  UNL     1     -20.978   4.046   1.342  1.00  0.00    -0.347 OA
ATOM     11  H1  UNL     1     -20.159   4.407   1.659  1.00  0.00     0.219 HD
ENDBRANCH   7  10
BRANCH   8  12
HETATM   12  O2  UNL     1     -19.682   3.652  -0.916  1.00  0.00    -0.286 OA
ATOM     13  H2  UNL     1     -19.051   4.130  -0.391  1.00  0.00     0.244 HD
ENDBRANCH   8  12
ENDBRANCH   6   7
ENDBRANCH   5   6
ENDBRANCH   3   4
TORSDOF 5
ENDMDL