MODEL 3
REMARK VINA RESULT: -6.296538186      1.846      3.216
REMARK  3 active torsions:
REMARK  status: ('A' for Active; 'I' for Inactive)
REMARK    1  A    between atoms: C3_3  and  C4_4
REMARK    2  A    between atoms: C4_4  and  N1_5
REMARK       I    between atoms: N1_5  and  C5_7
REMARK       I    between atoms: C5_7  and  N2_9
REMARK    3  A    between atoms: C6_11  and  N3_12
ROOT
HETATM    1  C1  UNL     1     -21.355  -0.412   1.262  1.00  0.00     0.112 C
HETATM    2  C2  UNL     1     -20.773   0.323   0.132  1.00  0.00    -0.109 C
HETATM    3  C3  UNL     1     -20.286   0.939  -0.784  1.00  0.00    -0.087 C
ENDROOT
BRANCH   3   4
HETATM    4  C4  UNL     1     -19.683   1.715  -1.892  1.00  0.00     0.218 C
BRANCH   4   5
HETATM    5  N1  UNL     1     -19.656   3.106  -1.525  1.00  0.00    -0.332 N
HETATM    6  C5  UNL     1     -20.814   3.911  -1.704  1.00  0.00     0.321 C
HETATM    7  O1  UNL     1     -21.863   3.443  -2.175  1.00  0.00    -0.247 OA
HETATM    8  N2  UNL     1     -20.774   5.278  -1.337  1.00  0.00    -0.305 N
HETATM    9  C6  UNL     1     -21.409   5.641  -0.282  1.00  0.00     0.181 C
ATOM     10  H2  UNL     1     -20.256   5.957  -1.896  1.00  0.00     0.171 HD
ATOM     11  H1  UNL     1     -18.806   3.515  -1.136  1.00  0.00     0.165 HD
BRANCH   9  12
HETATM   12  N3  UNL     1     -22.152   4.764   0.546  1.00  0.00    -0.386 N
HETATM   13  C7  UNL     1     -23.597   4.660   0.470  1.00  0.00     0.149 C
HETATM   14  C8  UNL     1     -21.463   3.920   1.526  1.00  0.00     0.149 C
ENDBRANCH   9  12
ENDBRANCH   4   5
ENDBRANCH   3   4
TORSDOF 3
ENDMDL