MODEL 2
REMARK VINA RESULT: -7.731982742      1.270      1.745
REMARK  6 active torsions:
REMARK  status: ('A' for Active; 'I' for Inactive)
REMARK    1  A    between atoms: C2_2  and  C4_4
REMARK    2  A    between atoms: C12_12  and  O1_13
REMARK    3  A    between atoms: C13_15  and  O2_16
REMARK    4  A    between atoms: C17_21  and  O3_22
REMARK    5  A    between atoms: C18_24  and  C19_25
REMARK    6  A    between atoms: C19_25  and  C20_26
ROOT
HETATM    1  C4  UNL     1       1.416  11.629  24.599  1.00  0.00    -0.011 C
HETATM    2  C5  UNL     1       2.630  10.768  24.722  1.00  0.00     0.006 C
HETATM    3  C6  UNL     1       2.417   9.378  24.171  1.00  0.00     0.010 C
HETATM    4  C7  UNL     1       1.338   8.586  24.813  1.00  0.00    -0.034 C
HETATM    5  C8  UNL     1       0.860   7.590  23.730  1.00  0.00     0.016 C
HETATM    6  C9  UNL     1       0.145   9.512  25.006  1.00  0.00    -0.003 C
HETATM    7  C10 UNL     1       0.273  10.772  24.150  1.00  0.00     0.010 C
HETATM    8  C11 UNL     1      -0.051   9.869  26.458  1.00  0.00     0.040 C
HETATM    9  C12 UNL     1      -0.444   8.555  27.120  1.00  0.00     0.153 C
HETATM   10  C13 UNL     1       0.541   7.466  26.891  1.00  0.00     0.088 C
HETATM   11  C14 UNL     1       0.922   6.873  28.208  1.00  0.00     0.046 C
HETATM   12  C15 UNL     1       1.729   7.697  29.124  1.00  0.00    -0.001 C
HETATM   13  C16 UNL     1       1.346   7.316  30.562  1.00  0.00     0.037 C
HETATM   14  C17 UNL     1       2.453   6.398  31.049  1.00  0.00     0.123 C
HETATM   15  C18 UNL     1       3.321   6.142  29.878  1.00  0.00     0.027 C
HETATM   16  C23 UNL     1       3.200   7.356  29.032  1.00  0.00    -0.034 C
HETATM   17  C24 UNL     1       4.073   8.454  29.582  1.00  0.00     0.016 C
HETATM   18  C25 UNL     1       3.529   7.150  27.588  1.00  0.00     0.010 C
HETATM   19  C26 UNL     1       2.922   8.295  26.762  1.00  0.00     0.009 C
HETATM   20  C27 UNL     1       1.703   7.795  26.004  1.00  0.00     0.031 C
ENDROOT
BRANCH  15  21
HETATM   21  C19 UNL     1       4.721   5.725  30.190  1.00  0.00     0.068 C
BRANCH  21  22
HETATM   22  C20 UNL     1       4.776   5.223  31.617  1.00  0.00     0.260 C
HETATM   23  O4  UNL     1       5.977   5.543  32.239  1.00  0.00    -0.359 OA
HETATM   24  C21 UNL     1       5.934   4.724  33.387  1.00  0.00     0.197 C
HETATM   25  C22 UNL     1       5.003   3.607  33.028  1.00  0.00     0.197 C
HETATM   26  O5  UNL     1       4.817   3.814  31.649  1.00  0.00    -0.359 OA
ENDBRANCH  21  22
ENDBRANCH  15  21
BRANCH  14  27
HETATM   27  O3  UNL     1       3.044   6.988  32.128  1.00  0.00    -0.395 OA
ATOM     28  H3  UNL     1       3.537   6.322  32.592  1.00  0.00     0.210 HD
ENDBRANCH  14  27
BRANCH  10  29
HETATM   29  O2  UNL     1      -0.161   6.417  26.233  1.00  0.00    -0.387 OA
ATOM     30  H2  UNL     1       0.306   5.614  26.432  1.00  0.00     0.210 HD
ENDBRANCH  10  29
BRANCH   9  31
HETATM   31  O1  UNL     1      -0.762   8.748  28.481  1.00  0.00    -0.393 OA
ATOM     32  H1  UNL     1      -1.177   7.976  28.847  1.00  0.00     0.210 HD
ENDBRANCH   9  31
BRANCH   1  33
HETATM   33  C2  UNL     1       1.588  12.775  23.647  1.00  0.00    -0.019 C
HETATM   34  C1  UNL     1       0.753  12.607  22.394  1.00  0.00     0.010 C
HETATM   35  C3  UNL     1       1.137  14.092  24.272  1.00  0.00     0.010 C
ENDBRANCH   1  33
TORSDOF 6
ENDMDL