MODEL 5
REMARK VINA RESULT: -6.766080946      2.302      4.179
REMARK  6 active torsions:
REMARK  status: ('A' for Active; 'I' for Inactive)
REMARK    1  A    between atoms: C2_2  and  C3_3
REMARK    2  A    between atoms: C10_10  and  O1_11
REMARK    3  A    between atoms: C13_15  and  C14_16
REMARK    4  A    between atoms: C14_16  and  C16_18
REMARK    5  A    between atoms: C20_23  and  O3_24
REMARK    6  A    between atoms: C21_26  and  O4_27
ROOT
HETATM    1  C14 UNL     1       3.008   8.661  25.446  1.00  0.00     0.018 C
HETATM    2  C15 UNL     1       2.853   8.740  26.926  1.00  0.00     0.013 C
ENDROOT
BRANCH   1   3
HETATM    3  C13 UNL     1       2.749   7.359  24.840  1.00  0.00     0.003 C
HETATM    4  C12 UNL     1       1.811   7.443  23.639  1.00  0.00     0.009 C
HETATM    5  C11 UNL     1       1.747   5.988  23.252  1.00  0.00     0.039 C
HETATM    6  C10 UNL     1       3.149   5.451  23.520  1.00  0.00     0.066 C
HETATM    7  C9  UNL     1       2.958   4.246  24.400  1.00  0.00     0.039 C
HETATM    8  C27 UNL     1       3.899   6.591  24.238  1.00  0.00    -0.004 C
HETATM    9  C8  UNL     1       4.209   3.608  24.877  1.00  0.00     0.013 C
HETATM   10  C6  UNL     1       5.326   4.567  24.818  1.00  0.00    -0.033 C
HETATM   11  C3  UNL     1       6.175   4.772  26.044  1.00  0.00     0.016 C
HETATM   12  C5  UNL     1       4.731   5.917  25.235  1.00  0.00     0.006 C
HETATM   13  C7  UNL     1       6.261   4.498  23.669  1.00  0.00     0.016 C
HETATM   14  C4  UNL     1       6.108   6.251  25.587  1.00  0.00     0.015 C
HETATM   15  C28 UNL     1       4.648   7.378  23.198  1.00  0.00     0.019 C
BRANCH   6  16
HETATM   16  O1  UNL     1       3.660   5.177  22.271  1.00  0.00    -0.389 OA
ATOM     17  H1  UNL     1       4.588   5.355  22.172  1.00  0.00     0.210 HD
ENDBRANCH   6  16
BRANCH  11  18
HETATM   18  C2  UNL     1       5.639   4.477  27.357  1.00  0.00    -0.031 C
HETATM   19  C1  UNL     1       6.338   4.837  28.424  1.00  0.00     0.007 C
ENDBRANCH  11  18
ENDBRANCH   1   3
BRANCH   1  20
HETATM   20  C16 UNL     1       2.432   9.898  24.798  1.00  0.00     0.154 C
HETATM   21  O2  UNL     1       1.542  10.477  25.617  1.00  0.00    -0.376 OA
HETATM   22  C17 UNL     1       0.923  11.636  25.170  1.00  0.00     0.136 C
HETATM   23  C18 UNL     1       1.839  12.687  24.690  1.00  0.00     0.046 C
HETATM   24  C24 UNL     1      -0.266  11.341  24.289  1.00  0.00    -0.021 C
HETATM   25  C19 UNL     1       3.260  12.252  24.450  1.00  0.00     0.044 C
HETATM   26  C21 UNL     1       1.318  13.489  23.500  1.00  0.00     0.124 C
HETATM   27  C20 UNL     1       3.460  10.805  24.197  1.00  0.00     0.148 C
HETATM   28  C22 UNL     1       0.739  12.678  22.418  1.00  0.00     0.033 C
HETATM   29  C23 UNL     1      -0.041  11.488  22.834  1.00  0.00     0.014 C
HETATM   30  C25 UNL     1      -1.473  12.213  24.654  1.00  0.00     0.017 C
HETATM   31  C26 UNL     1      -0.690   9.897  24.553  1.00  0.00     0.017 C
BRANCH  27  32
HETATM   32  O3  UNL     1       3.599  10.648  22.808  1.00  0.00    -0.393 OA
ATOM     33  H3  UNL     1       4.337  11.125  22.447  1.00  0.00     0.210 HD
ENDBRANCH  27  32
BRANCH  26  34
HETATM   34  O4  UNL     1       0.495  14.547  23.920  1.00  0.00    -0.395 OA
ATOM     35  H4  UNL     1      -0.388  14.246  24.099  1.00  0.00     0.210 HD
ENDBRANCH  26  34
ENDBRANCH   1  20
TORSDOF 6
ENDMDL