MODEL 4
REMARK VINA RESULT: -7.379967014      2.744      6.652
REMARK  6 active torsions:
REMARK  status: ('A' for Active; 'I' for Inactive)
REMARK    1  A    between atoms: C2_2  and  C3_3
REMARK    2  A    between atoms: C3_3  and  C5_5
REMARK    3  A    between atoms: C11_11  and  O1_12
REMARK    4  A    between atoms: C13_15  and  C15_17
REMARK    5  A    between atoms: C17_19  and  O2_20
REMARK    6  A    between atoms: C18_22  and  O3_23
ROOT
HETATM    1  C5  UNL     1       5.939   5.231  27.683  1.00  0.00    -0.002 C
HETATM    2  C6  UNL     1       6.169   3.936  26.880  1.00  0.00     0.006 C
HETATM    3  C7  UNL     1       5.731   4.488  25.513  1.00  0.00     0.011 C
HETATM    4  C8  UNL     1       4.396   5.088  25.939  1.00  0.00    -0.030 C
HETATM    5  C9  UNL     1       3.402   3.922  25.793  1.00  0.00     0.016 C
HETATM    6  C10 UNL     1       4.009   6.109  24.966  1.00  0.00     0.028 C
HETATM    7  C11 UNL     1       5.021   7.077  24.476  1.00  0.00     0.129 C
HETATM    8  C12 UNL     1       4.282   8.376  24.418  1.00  0.00     0.034 C
HETATM    9  C13 UNL     1       4.762   9.410  23.512  1.00  0.00    -0.011 C
HETATM   10  C14 UNL     1       5.166   9.048  22.137  1.00  0.00     0.018 C
HETATM   11  C19 UNL     1       3.662  10.477  23.398  1.00  0.00     0.012 C
HETATM   12  C20 UNL     1       2.741  10.444  24.590  1.00  0.00     0.002 C
HETATM   13  C21 UNL     1       1.928   9.175  24.659  1.00  0.00     0.010 C
HETATM   14  C22 UNL     1       2.823   8.009  24.332  1.00  0.00    -0.033 C
HETATM   15  C23 UNL     1       2.374   7.419  23.055  1.00  0.00     0.016 C
HETATM   16  C24 UNL     1       2.786   6.920  25.404  1.00  0.00     0.001 C
HETATM   17  C25 UNL     1       2.966   7.407  26.779  1.00  0.00     0.007 C
HETATM   18  C26 UNL     1       4.173   6.991  27.514  1.00  0.00     0.011 C
HETATM   19  C27 UNL     1       4.539   5.528  27.380  1.00  0.00    -0.032 C
HETATM   20  C28 UNL     1       3.507   4.779  28.196  1.00  0.00     0.016 C
ENDROOT
BRANCH   9  21
HETATM   21  C15 UNL     1       5.999  10.062  24.158  1.00  0.00     0.136 C
HETATM   22  C16 UNL     1       7.270   9.476  23.703  1.00  0.00     0.069 C
HETATM   23  C17 UNL     1       8.167  10.678  23.527  1.00  0.00     0.175 C
HETATM   24  C18 UNL     1       7.239  11.835  23.589  1.00  0.00     0.285 C
HETATM   25  O4  UNL     1       5.985  11.403  23.936  1.00  0.00    -0.353 OA
BRANCH  23  26
HETATM   26  O2  UNL     1       8.896  10.619  22.340  1.00  0.00    -0.391 OA
ATOM     27  H2  UNL     1       9.310  11.448  22.134  1.00  0.00     0.210 HD
ENDBRANCH  23  26
BRANCH  24  28
HETATM   28  O3  UNL     1       7.676  12.844  24.457  1.00  0.00    -0.369 OA
ATOM     29  H3  UNL     1       7.379  13.710  24.202  1.00  0.00     0.212 HD
ENDBRANCH  24  28
ENDBRANCH   9  21
BRANCH   7  30
HETATM   30  O1  UNL     1       5.520   6.693  23.218  1.00  0.00    -0.395 OA
ATOM     31  H1  UNL     1       6.447   6.888  23.146  1.00  0.00     0.210 HD
ENDBRANCH   7  30
BRANCH   1  32
HETATM   32  C3  UNL     1       6.543   5.113  28.968  1.00  0.00    -0.014 C
HETATM   33  C4  UNL     1       7.432   3.962  29.307  1.00  0.00     0.010 C
BRANCH  32  34
HETATM   34  C2  UNL     1       7.273   6.368  29.414  1.00  0.00     0.000 C
HETATM   35  C1  UNL     1       6.322   7.276  30.215  1.00  0.00     0.005 C
ENDBRANCH  32  34
ENDBRANCH   1  32
TORSDOF 6
ENDMDL