MODEL 2
REMARK VINA RESULT: -7.298541433      1.730      3.734
REMARK  6 active torsions:
REMARK  status: ('A' for Active; 'I' for Inactive)
REMARK    1  A    between atoms: C2_2  and  C3_3
REMARK    2  A    between atoms: C3_3  and  O1_4
REMARK    3  A    between atoms: O1_4  and  C4_5
REMARK    4  A    between atoms: C7_8  and  O2_9
REMARK    5  A    between atoms: C15_18  and  O3_19
REMARK    6  A    between atoms: C25_30  and  O4_31
ROOT
HETATM    1  C4  UNL     1       3.837   5.786  27.534  1.00  0.00     0.129 C
HETATM    2  C5  UNL     1       3.277   4.477  28.144  1.00  0.00     0.035 C
HETATM    3  C6  UNL     1       2.414   3.851  27.028  1.00  0.00     0.041 C
HETATM    4  C7  UNL     1       3.144   4.434  25.847  1.00  0.00     0.065 C
HETATM    5  C8  UNL     1       2.495   4.512  24.567  1.00  0.00     0.043 C
HETATM    6  C9  UNL     1       2.478   5.983  24.148  1.00  0.00    -0.003 C
HETATM    7  C10 UNL     1       1.043   6.394  24.138  1.00  0.00     0.006 C
HETATM    8  C11 UNL     1       1.008   7.877  23.825  1.00  0.00     0.008 C
HETATM    9  C12 UNL     1       1.566   8.548  25.050  1.00  0.00     0.025 C
HETATM   10  C13 UNL     1       2.960   8.143  25.403  1.00  0.00     0.004 C
HETATM   11  C14 UNL     1       3.983   9.163  24.921  1.00  0.00     0.038 C
HETATM   12  C15 UNL     1       3.572   9.833  23.623  1.00  0.00     0.126 C
HETATM   13  C16 UNL     1       2.236  10.484  23.722  1.00  0.00     0.054 C
HETATM   14  C17 UNL     1       2.234  11.962  23.507  1.00  0.00     0.003 C
HETATM   15  C18 UNL     1       3.080  12.765  24.397  1.00  0.00     0.006 C
HETATM   16  C19 UNL     1       2.201  13.958  24.781  1.00  0.00     0.001 C
HETATM   17  C20 UNL     1       1.065  13.974  23.793  1.00  0.00     0.009 C
HETATM   18  C21 UNL     1       0.834  12.492  23.551  1.00  0.00    -0.040 C
HETATM   19  C22 UNL     1       0.110  12.339  22.223  1.00  0.00     0.015 C
HETATM   20  C23 UNL     1      -0.010  11.958  24.653  1.00  0.00     0.012 C
HETATM   21  C24 UNL     1      -0.006  10.422  24.615  1.00  0.00     0.039 C
HETATM   22  C25 UNL     1       1.449  10.047  24.937  1.00  0.00     0.068 C
HETATM   23  C26 UNL     1       3.331   6.723  25.181  1.00  0.00    -0.027 C
HETATM   24  C27 UNL     1       4.733   6.586  24.583  1.00  0.00     0.016 C
HETATM   25  C28 UNL     1       3.066   5.894  26.333  1.00  0.00     0.058 C
ENDROOT
BRANCH   1  26
HETATM   26  O1  UNL     1       3.522   6.770  28.467  1.00  0.00    -0.382 OA
BRANCH  26  27
HETATM   27  C3  UNL     1       2.194   6.698  28.876  1.00  0.00     0.194 C
BRANCH  27  28
HETATM   28  C2  UNL     1       1.597   8.058  28.858  1.00  0.00    -0.011 C
HETATM   29  C1  UNL     1       0.447   8.277  28.254  1.00  0.00     0.009 C
ENDBRANCH  27  28
ENDBRANCH  26  27
ENDBRANCH   1  26
BRANCH   4  30
HETATM   30  O2  UNL     1       4.424   3.924  25.916  1.00  0.00    -0.389 OA
ATOM     31  H2  UNL     1       4.736   3.900  25.020  1.00  0.00     0.210 HD
ENDBRANCH   4  30
BRANCH  22  32
HETATM   32  O4  UNL     1       1.765  10.708  26.090  1.00  0.00    -0.389 OA
ATOM     33  H4  UNL     1       1.964  11.628  25.958  1.00  0.00     0.210 HD
ENDBRANCH  22  32
BRANCH  12  34
HETATM   34  O3  UNL     1       4.522  10.862  23.427  1.00  0.00    -0.395 OA
ATOM     35  H3  UNL     1       4.675  10.879  22.489  1.00  0.00     0.210 HD
ENDBRANCH  12  34
TORSDOF 6
ENDMDL