MODEL 1
REMARK VINA RESULT: -7.446902234      0.000      0.000
REMARK  5 active torsions:
REMARK  status: ('A' for Active; 'I' for Inactive)
REMARK    1  A    between atoms: C2_2  and  C3_3
REMARK    2  A    between atoms: C3_3  and  C6_6
REMARK    3  A    between atoms: C8_8  and  O1_9
REMARK    4  A    between atoms: C16_18  and  N1_19
REMARK    5  A    between atoms: C27_34  and  O3_35
ROOT
HETATM    1  C6  UNL     1       3.753   5.423  25.437  1.00  0.00     0.004 C
HETATM    2  C7  UNL     1       3.233   3.975  25.637  1.00  0.00     0.038 C
HETATM    3  C8  UNL     1       2.178   4.040  26.706  1.00  0.00     0.123 C
HETATM    4  C9  UNL     1       2.338   5.442  27.253  1.00  0.00     0.019 C
HETATM    5  C10 UNL     1       1.006   5.768  27.875  1.00  0.00     0.008 C
HETATM    6  C11 UNL     1       0.343   6.744  26.961  1.00  0.00     0.013 C
HETATM    7  C12 UNL     1       1.222   7.952  26.732  1.00  0.00    -0.009 C
HETATM    8  C13 UNL     1       1.521   8.502  28.139  1.00  0.00     0.018 C
HETATM    9  C14 UNL     1       2.514   7.641  25.985  1.00  0.00     0.004 C
HETATM   10  C15 UNL     1       2.679   8.182  24.614  1.00  0.00     0.045 C
HETATM   11  C16 UNL     1       3.239   9.528  24.380  1.00  0.00     0.130 C
HETATM   12  C17 UNL     1       4.010  10.177  25.468  1.00  0.00     0.039 C
HETATM   13  C18 UNL     1       4.933  11.239  24.841  1.00  0.00     0.002 C
HETATM   14  C19 UNL     1       4.170  12.167  23.945  1.00  0.00     0.001 C
HETATM   15  C20 UNL     1       2.690  11.981  24.294  1.00  0.00     0.010 C
HETATM   16  C21 UNL     1       2.215  10.600  23.909  1.00  0.00     0.053 C
HETATM   17  C22 UNL     1       0.867  10.355  24.461  1.00  0.00     0.157 C
HETATM   18  O2  UNL     1       1.233   9.842  25.693  1.00  0.00    -0.371 OA
HETATM   19  C23 UNL     1       0.330   8.957  26.101  1.00  0.00     0.065 C
HETATM   20  C24 UNL     1      -0.729   8.395  25.255  1.00  0.00     0.047 C
HETATM   21  C25 UNL     1      -0.412   9.939  27.024  1.00  0.00     0.041 C
HETATM   22  C26 UNL     1      -0.873  11.080  26.108  1.00  0.00     0.037 C
HETATM   23  C27 UNL     1       0.010  11.456  24.966  1.00  0.00     0.147 C
HETATM   24  C28 UNL     1       2.643   6.162  25.980  1.00  0.00     0.002 C
ENDROOT
BRANCH   1  25
HETATM   25  C3  UNL     1       5.130   5.398  25.863  1.00  0.00    -0.027 C
HETATM   26  C4  UNL     1       5.937   4.156  25.816  1.00  0.00     0.019 C
HETATM   27  C5  UNL     1       5.457   6.061  27.208  1.00  0.00     0.019 C
BRANCH  25  28
HETATM   28  C2  UNL     1       5.872   6.381  24.950  1.00  0.00    -0.028 C
HETATM   29  C1  UNL     1       5.727   6.335  23.641  1.00  0.00     0.007 C
ENDBRANCH  25  28
ENDBRANCH   1  25
BRANCH   3  30
HETATM   30  O1  UNL     1       0.916   3.919  26.123  1.00  0.00    -0.395 OA
ATOM     31  H1  UNL     1       0.373   3.351  26.658  1.00  0.00     0.210 HD
ENDBRANCH   3  30
BRANCH  11  32
HETATM   32  N1  UNL     1       4.176   9.491  23.228  1.00  0.00    -0.070 N
ATOM     33  H13 UNL     1       5.131   9.280  23.518  1.00  0.00     0.275 HD
ATOM     34  H12 UNL     1       4.019   8.679  22.632  1.00  0.00     0.275 HD
ATOM     35  H11 UNL     1       4.120  10.366  22.706  1.00  0.00     0.275 HD
ENDBRANCH  11  32
BRANCH  23  36
HETATM   36  O3  UNL     1      -0.819  11.879  23.898  1.00  0.00    -0.393 OA
ATOM     37  H3  UNL     1      -1.712  11.635  24.113  1.00  0.00     0.210 HD
ENDBRANCH  23  36
TORSDOF 5
ENDMDL