MODEL 4
REMARK VINA RESULT: -7.437769857      3.380      7.180
REMARK  5 active torsions:
REMARK  status: ('A' for Active; 'I' for Inactive)
REMARK    1  A    between atoms: C2_2  and  C4_4
REMARK    2  A    between atoms: C11_11  and  C12_12
REMARK    3  A    between atoms: C14_14  and  O1_15
REMARK    4  A    between atoms: C15_17  and  C16_18
REMARK    5  A    between atoms: C16_18  and  O2_21
ROOT
HETATM    1  C4  UNL     1       5.170   6.092  28.600  1.00  0.00     0.019 C
HETATM    2  C5  UNL     1       5.127   5.634  27.180  1.00  0.00     0.008 C
HETATM    3  C6  UNL     1       4.750   6.834  26.323  1.00  0.00     0.006 C
HETATM    4  C7  UNL     1       3.238   7.046  26.478  1.00  0.00    -0.005 C
HETATM    5  C8  UNL     1       2.782   7.839  25.314  1.00  0.00    -0.002 C
HETATM    6  C9  UNL     1       1.446   7.352  24.738  1.00  0.00     0.006 C
HETATM    7  C10 UNL     1       0.842   8.592  24.063  1.00  0.00     0.008 C
HETATM    8  C11 UNL     1       1.836   9.680  24.290  1.00  0.00     0.023 C
HETATM    9  C19 UNL     1       2.432   9.279  25.624  1.00  0.00    -0.034 C
HETATM   10  C20 UNL     1       3.661  10.143  25.813  1.00  0.00     0.016 C
HETATM   11  C21 UNL     1       1.449   9.376  26.730  1.00  0.00     0.010 C
HETATM   12  C22 UNL     1       1.645   8.421  27.861  1.00  0.00     0.007 C
HETATM   13  C23 UNL     1       2.881   7.587  27.817  1.00  0.00     0.003 C
HETATM   14  C24 UNL     1       2.681   6.423  28.758  1.00  0.00     0.008 C
HETATM   15  C25 UNL     1       1.705   5.384  28.334  1.00  0.00     0.020 C
HETATM   16  C26 UNL     1       2.461   6.819  30.213  1.00  0.00     0.180 C
HETATM   17  O4  UNL     1       3.842   6.676  30.483  1.00  0.00    -0.384 OA
HETATM   18  C27 UNL     1       3.915   5.883  29.356  1.00  0.00     0.136 C
ENDROOT
BRANCH   8  19
HETATM   19  C12 UNL     1       1.286  11.062  24.239  1.00  0.00     0.129 C
HETATM   20  C13 UNL     1       1.776  11.677  22.920  1.00  0.00     0.067 C
HETATM   21  C14 UNL     1       0.503  12.224  22.308  1.00  0.00     0.152 C
HETATM   22  C15 UNL     1      -0.411  12.295  23.502  1.00  0.00     0.184 C
HETATM   23  O3  UNL     1      -0.092  11.119  24.176  1.00  0.00    -0.374 OA
BRANCH  21  24
HETATM   24  O1  UNL     1       0.710  13.465  21.711  1.00  0.00    -0.393 OA
ATOM     25  H1  UNL     1       0.619  14.176  22.335  1.00  0.00     0.210 HD
ENDBRANCH  21  24
BRANCH  22  26
HETATM   26  C16 UNL     1      -1.871  12.284  23.110  1.00  0.00     0.079 C
HETATM   27  C17 UNL     1      -2.536  13.608  23.348  1.00  0.00     0.048 C
HETATM   28  C18 UNL     1      -2.560  11.271  24.034  1.00  0.00     0.048 C
BRANCH  26  29
HETATM   29  O2  UNL     1      -2.057  11.831  21.818  1.00  0.00    -0.388 OA
ATOM     30  H2  UNL     1      -2.873  11.354  21.722  1.00  0.00     0.210 HD
ENDBRANCH  26  29
ENDBRANCH  22  26
ENDBRANCH   8  19
BRANCH   1  31
HETATM   31  C2  UNL     1       6.296   5.382  29.357  1.00  0.00    -0.016 C
HETATM   32  C1  UNL     1       6.736   4.132  28.644  1.00  0.00     0.010 C
HETATM   33  C3  UNL     1       7.491   6.276  29.524  1.00  0.00     0.010 C
ENDBRANCH   1  31
TORSDOF 5
ENDMDL