MODEL 2
REMARK VINA RESULT: -6.873873008      0.927      1.262
REMARK  6 active torsions:
REMARK  status: ('A' for Active; 'I' for Inactive)
REMARK    1  A    between atoms: C2_2  and  C4_4
REMARK    2  A    between atoms: C7_7  and  O1_8
REMARK    3  A    between atoms: C10_12  and  O2_13
REMARK    4  A    between atoms: C10_12  and  C11_15
REMARK    5  A    between atoms: C11_15  and  C14_18
REMARK    6  A    between atoms: C19_24  and  O4_25
ROOT
HETATM    1  C4  UNL     1       5.619  11.145  23.545  1.00  0.00    -0.000 C
HETATM    2  C5  UNL     1       6.282  10.253  22.479  1.00  0.00     0.009 C
HETATM    3  C6  UNL     1       5.152   9.283  22.084  1.00  0.00     0.039 C
HETATM    4  C7  UNL     1       4.631   9.019  23.508  1.00  0.00     0.070 C
HETATM    5  C8  UNL     1       3.436   8.141  23.552  1.00  0.00     0.028 C
HETATM    6  C9  UNL     1       3.726   6.679  23.392  1.00  0.00     0.047 C
HETATM    7  C10 UNL     1       3.559   5.826  24.613  1.00  0.00     0.072 C
HETATM    8  C17 UNL     1       2.316   6.098  25.371  1.00  0.00     0.032 C
HETATM    9  C18 UNL     1       1.226   5.113  25.461  1.00  0.00     0.040 C
HETATM   10  C19 UNL     1       0.411   5.436  26.738  1.00  0.00     0.118 C
HETATM   11  C20 UNL     1      -0.171   6.808  26.674  1.00  0.00     0.032 C
HETATM   12  C21 UNL     1       0.836   7.830  26.260  1.00  0.00     0.012 C
HETATM   13  C22 UNL     1       1.619   7.392  25.005  1.00  0.00    -0.033 C
HETATM   14  C23 UNL     1       0.600   7.244  23.894  1.00  0.00     0.016 C
HETATM   15  C24 UNL     1       2.507   8.536  24.629  1.00  0.00     0.001 C
HETATM   16  C25 UNL     1       3.064   9.299  25.779  1.00  0.00     0.007 C
HETATM   17  C26 UNL     1       4.042  10.374  25.392  1.00  0.00     0.013 C
HETATM   18  C27 UNL     1       4.385  10.446  23.943  1.00  0.00    -0.009 C
HETATM   19  C28 UNL     1       3.252  11.125  23.200  1.00  0.00     0.019 C
ENDROOT
BRANCH   7  20
HETATM   20  O2  UNL     1       4.630   6.344  25.437  1.00  0.00    -0.389 OA
ATOM     21  H2  UNL     1       4.297   7.216  25.616  1.00  0.00     0.210 HD
ENDBRANCH   7  20
BRANCH   7  22
HETATM   22  C11 UNL     1       4.037   4.452  24.460  1.00  0.00     0.017 C
HETATM   23  C12 UNL     1       3.900   3.781  25.861  1.00  0.00     0.021 C
HETATM   24  C13 UNL     1       2.943   3.660  23.702  1.00  0.00     0.021 C
BRANCH  22  25
HETATM   25  C14 UNL     1       5.376   4.053  24.021  1.00  0.00     0.088 A
HETATM   26  C15 UNL     1       6.234   3.627  25.243  1.00  0.00     0.049 C
HETATM   27  C16 UNL     1       6.299   4.841  23.140  1.00  0.00     0.207 A
HETATM   28  O3  UNL     1       5.700   3.678  22.760  1.00  0.00    -0.374 OA
ENDBRANCH  22  25
ENDBRANCH   7  22
BRANCH   4  29
HETATM   29  O1  UNL     1       5.741   8.602  24.206  1.00  0.00    -0.389 OA
ATOM     30  H1  UNL     1       6.042   9.383  24.657  1.00  0.00     0.210 HD
ENDBRANCH   4  29
BRANCH  10  31
HETATM   31  O4  UNL     1      -0.628   4.519  26.776  1.00  0.00    -0.396 OA
ATOM     32  H4  UNL     1      -1.403   4.984  26.483  1.00  0.00     0.210 HD
ENDBRANCH  10  31
BRANCH   1  33
HETATM   33  C2  UNL     1       6.638  11.479  24.578  1.00  0.00    -0.018 C
HETATM   34  C1  UNL     1       7.993  11.228  23.868  1.00  0.00     0.010 C
HETATM   35  C3  UNL     1       6.637  12.975  24.851  1.00  0.00     0.010 C
ENDBRANCH   1  33
TORSDOF 6
ENDMDL