MODEL 4
REMARK VINA RESULT: -6.762822689      1.979      7.800
REMARK  6 active torsions:
REMARK  status: ('A' for Active; 'I' for Inactive)
REMARK    1  A    between atoms: C2_2  and  C3_3
REMARK    2  A    between atoms: C2_2  and  C4_6
REMARK    3  A    between atoms: C3_3  and  O1_4
REMARK    4  A    between atoms: C15_18  and  C16_19
REMARK    5  A    between atoms: C21_24  and  O3_25
REMARK    6  A    between atoms: C28_33  and  O4_34
ROOT
HETATM    1  C4  UNL     1       4.654   5.740  28.666  1.00  0.00     0.190 A
HETATM    2  O2  UNL     1       3.819   5.129  29.575  1.00  0.00    -0.364 OA
HETATM    3  C5  UNL     1       2.978   6.242  29.529  1.00  0.00     0.092 A
HETATM    4  C6  UNL     1       2.966   6.859  30.934  1.00  0.00     0.049 C
HETATM    5  C7  UNL     1       1.600   5.886  29.120  1.00  0.00     0.046 C
HETATM    6  C8  UNL     1       1.008   6.858  28.118  1.00  0.00    -0.003 C
HETATM    7  C9  UNL     1       0.786   8.217  28.709  1.00  0.00     0.006 C
HETATM    8  C10 UNL     1      -0.043   9.018  27.718  1.00  0.00     0.006 C
HETATM    9  C11 UNL     1       0.867   9.157  26.490  1.00  0.00    -0.001 C
HETATM   10  C12 UNL     1       0.466  10.227  25.586  1.00  0.00     0.001 C
HETATM   11  C13 UNL     1      -0.759  10.049  24.760  1.00  0.00     0.006 C
HETATM   12  C14 UNL     1      -0.670  11.304  23.889  1.00  0.00     0.006 C
HETATM   13  C15 UNL     1       0.791  11.147  23.434  1.00  0.00    -0.000 C
HETATM   14  C19 UNL     1       1.536  10.537  24.595  1.00  0.00    -0.010 C
HETATM   15  C20 UNL     1       2.458  11.569  25.252  1.00  0.00     0.018 C
HETATM   16  C21 UNL     1       2.379   9.361  24.197  1.00  0.00     0.128 C
HETATM   17  C22 UNL     1       1.990   8.022  24.644  1.00  0.00     0.042 C
HETATM   18  C23 UNL     1       1.190   7.840  25.885  1.00  0.00    -0.030 C
HETATM   19  C24 UNL     1      -0.085   7.075  25.509  1.00  0.00     0.016 C
HETATM   20  C25 UNL     1       1.881   6.919  26.904  1.00  0.00    -0.030 C
HETATM   21  C26 UNL     1       1.931   5.545  26.217  1.00  0.00     0.016 C
HETATM   22  C27 UNL     1       3.258   7.299  27.234  1.00  0.00     0.054 C
HETATM   23  C28 UNL     1       3.799   6.983  28.568  1.00  0.00     0.119 A
ENDROOT
BRANCH   1  24
HETATM   24  C2  UNL     1       6.020   5.898  29.218  1.00  0.00    -0.034 C
HETATM   25  C1  UNL     1       6.949   6.522  28.507  1.00  0.00     0.019 C
BRANCH  24  26
HETATM   26  C3  UNL     1       6.388   5.381  30.554  1.00  0.00     0.200 C
BRANCH  26  27
HETATM   27  O1  UNL     1       5.997   6.295  31.557  1.00  0.00    -0.397 OA
ATOM     28  H1  UNL     1       6.370   6.045  32.394  1.00  0.00     0.209 HD
ENDBRANCH  26  27
ENDBRANCH  24  26
ENDBRANCH   1  24
BRANCH  23  29
HETATM   29  O4  UNL     1       4.468   8.048  29.214  1.00  0.00    -0.384 OA
ATOM     30  H4  UNL     1       4.603   8.749  28.588  1.00  0.00     0.210 HD
ENDBRANCH  23  29
BRANCH  16  31
HETATM   31  O3  UNL     1       3.729   9.616  24.456  1.00  0.00    -0.395 OA
ATOM     32  H3  UNL     1       4.269   9.322  23.732  1.00  0.00     0.210 HD
ENDBRANCH  16  31
BRANCH  13  33
HETATM   33  C16 UNL     1       1.280  12.469  22.965  1.00  0.00    -0.018 C
HETATM   34  C17 UNL     1       0.739  13.492  23.988  1.00  0.00     0.010 C
HETATM   35  C18 UNL     1       0.738  12.903  21.642  1.00  0.00     0.010 C
ENDBRANCH  13  33
TORSDOF 6
ENDMDL