MODEL 3
REMARK VINA RESULT: -7.062253805      2.626      5.035
REMARK  6 active torsions:
REMARK  status: ('A' for Active; 'I' for Inactive)
REMARK    1  A    between atoms: C2_2  and  C3_3
REMARK    2  A    between atoms: C3_3  and  C4_4
REMARK    3  A    between atoms: C4_4  and  O1_5
REMARK    4  A    between atoms: C6_8  and  O2_9
REMARK    5  A    between atoms: C16_20  and  C17_21
REMARK    6  A    between atoms: C17_21  and  O3_22
ROOT
HETATM    1  C4  UNL     1       0.627   6.342  25.230  1.00  0.00     0.071 C
HETATM    2  C5  UNL     1       1.322   5.319  24.413  1.00  0.00     0.070 C
HETATM    3  C6  UNL     1       2.479   5.879  23.670  1.00  0.00     0.121 C
HETATM    4  C7  UNL     1       2.519   7.400  23.735  1.00  0.00     0.038 C
HETATM    5  C8  UNL     1       2.700   7.829  25.159  1.00  0.00     0.010 C
HETATM    6  C9  UNL     1       3.024   9.294  25.299  1.00  0.00    -0.009 C
HETATM    7  C10 UNL     1       3.128   9.856  26.670  1.00  0.00     0.018 C
HETATM    8  C11 UNL     1       1.882  10.030  24.665  1.00  0.00     0.003 C
HETATM    9  C12 UNL     1       0.652   9.628  25.457  1.00  0.00     0.007 C
HETATM   10  C13 UNL     1       0.709   8.468  26.353  1.00  0.00     0.013 C
HETATM   11  C14 UNL     1       1.549   7.321  25.948  1.00  0.00    -0.008 C
HETATM   12  C15 UNL     1       2.108   6.499  27.119  1.00  0.00     0.019 C
HETATM   13  C16 UNL     1       1.944  11.508  24.647  1.00  0.00     0.025 C
HETATM   14  C21 UNL     1       3.198  12.227  24.492  1.00  0.00     0.008 C
HETATM   15  C22 UNL     1       4.333  11.718  23.736  1.00  0.00     0.008 C
HETATM   16  C23 UNL     1       4.356  10.260  23.376  1.00  0.00     0.025 C
HETATM   17  C24 UNL     1       4.357   9.509  24.655  1.00  0.00     0.135 C
HETATM   18  O4  UNL     1       5.107   8.356  24.458  1.00  0.00    -0.384 OA
HETATM   19  C25 UNL     1       6.168   8.732  23.650  1.00  0.00     0.177 C
HETATM   20  C26 UNL     1       5.700   9.887  22.800  1.00  0.00    -0.020 C
HETATM   21  C27 UNL     1       5.589   9.482  21.337  1.00  0.00     0.017 C
HETATM   22  C28 UNL     1       6.741  10.964  22.909  1.00  0.00     0.017 C
ENDROOT
BRANCH  13  23
HETATM   23  C17 UNL     1       0.946  11.984  23.600  1.00  0.00     0.062 C
HETATM   24  C18 UNL     1       0.465  13.429  23.866  1.00  0.00     0.038 C
HETATM   25  C19 UNL     1      -0.841  13.005  23.226  1.00  0.00     0.006 C
HETATM   26  C20 UNL     1      -0.477  11.599  23.740  1.00  0.00     0.038 C
BRANCH  23  27
HETATM   27  O3  UNL     1       1.401  11.874  22.287  1.00  0.00    -0.389 OA
ATOM     28  H3  UNL     1       1.180  11.051  21.865  1.00  0.00     0.210 HD
ENDBRANCH  23  27
ENDBRANCH  13  23
BRANCH   3  29
HETATM   29  O2  UNL     1       3.643   5.297  24.128  1.00  0.00    -0.395 OA
ATOM     30  H2  UNL     1       3.896   5.701  24.950  1.00  0.00     0.210 HD
ENDBRANCH   3  29
BRANCH   1  31
HETATM   31  C3  UNL     1      -0.192   5.546  26.266  1.00  0.00     0.065 C
BRANCH  31  32
HETATM   32  C2  UNL     1       0.229   4.119  26.281  1.00  0.00    -0.034 C
HETATM   33  C1  UNL     1       1.003   3.617  27.225  1.00  0.00     0.007 C
ENDBRANCH  31  32
ENDBRANCH   1  31
BRANCH   1  34
HETATM   34  O1  UNL     1      -0.400   7.030  24.535  1.00  0.00    -0.389 OA
ATOM     35  H1  UNL     1       0.062   7.807  24.242  1.00  0.00     0.210 HD
ENDBRANCH   1  34
TORSDOF 6
ENDMDL