MODEL 2
REMARK VINA RESULT: -7.884851980      1.246      1.734
REMARK  5 active torsions:
REMARK  status: ('A' for Active; 'I' for Inactive)
REMARK    1  A    between atoms: C14_18  and  C15_19
REMARK    2  A    between atoms: C16_20  and  C17_21
REMARK    3  A    between atoms: C17_21  and  O2_22
REMARK    4  A    between atoms: C17_21  and  C18_24
REMARK    5  A    between atoms: C18_24  and  O3_25
ROOT
HETATM    1  C1  UNL     1       3.225  14.480  24.979  1.00  0.00     0.010 C
HETATM    2  C2  UNL     1       4.441  13.624  24.568  1.00  0.00    -0.017 C
HETATM    3  C3  UNL     1       5.350  13.597  25.743  1.00  0.00     0.014 C
HETATM    4  C4  UNL     1       6.692  13.035  25.534  1.00  0.00     0.049 C
HETATM    5  C5  UNL     1       6.995  12.608  24.130  1.00  0.00     0.133 C
HETATM    6  O1  UNL     1       8.342  12.959  24.400  1.00  0.00    -0.374 OA
HETATM    7  C6  UNL     1       7.852  13.931  25.306  1.00  0.00     0.060 C
HETATM    8  C7  UNL     1       7.640  15.257  24.693  1.00  0.00     0.046 C
HETATM    9  C8  UNL     1       8.797  14.008  26.491  1.00  0.00     0.046 C
HETATM   10  C9  UNL     1       6.751  11.153  23.901  1.00  0.00     0.012 C
HETATM   11  C10 UNL     1       6.686  10.817  22.421  1.00  0.00     0.012 C
HETATM   12  C11 UNL     1       5.644  10.555  24.684  1.00  0.00     0.018 C
HETATM   13  C12 UNL     1       4.288  11.075  24.540  1.00  0.00    -0.014 C
HETATM   14  C13 UNL     1       3.566  10.927  25.877  1.00  0.00     0.242 C
HETATM   15  N1  UNL     1       2.842   9.682  25.841  1.00  0.00    -0.067 N
ATOM     16  H11 UNL     1       2.160   9.561  26.589  1.00  0.00     0.277 HD
ATOM     17  H12 UNL     1       3.395   8.858  26.075  1.00  0.00     0.277 HD
HETATM   18  C14 UNL     1       2.291   9.681  24.516  1.00  0.00     0.209 C
HETATM   19  C27 UNL     1       3.475  10.076  23.687  1.00  0.00     0.048 C
HETATM   20  C28 UNL     1       4.077  12.385  23.904  1.00  0.00     0.015 C
ENDROOT
BRANCH  18  21
HETATM   21  C15 UNL     1       1.861   8.305  24.177  1.00  0.00     0.004 C
HETATM   22  C16 UNL     1       0.815   7.800  24.810  1.00  0.00     0.005 C
BRANCH  22  23
HETATM   23  C17 UNL     1       0.391   6.415  24.462  1.00  0.00     0.175 C
BRANCH  23  24
HETATM   24  O2  UNL     1       1.165   5.966  23.360  1.00  0.00    -0.389 OA
ATOM     25  H2  UNL     1       1.541   5.121  23.576  1.00  0.00     0.210 HD
ENDBRANCH  23  24
BRANCH  23  26
HETATM   26  C18 UNL     1       0.572   5.470  25.632  1.00  0.00     0.087 C
HETATM   27  C19 UNL     1       0.439   6.316  26.876  1.00  0.00     0.041 C
HETATM   28  C20 UNL     1       0.872   5.604  28.131  1.00  0.00     0.003 C
HETATM   29  C21 UNL     1       1.675   6.497  29.006  1.00  0.00     0.000 C
HETATM   30  C22 UNL     1       3.166   6.424  28.780  1.00  0.00     0.000 C
HETATM   31  C23 UNL     1       3.671   5.065  28.467  1.00  0.00     0.000 C
HETATM   32  C24 UNL     1       3.841   4.717  27.038  1.00  0.00     0.000 C
HETATM   33  C25 UNL     1       3.064   5.510  26.047  1.00  0.00     0.003 C
HETATM   34  C26 UNL     1       1.858   4.747  25.483  1.00  0.00     0.041 C
BRANCH  26  35
HETATM   35  O3  UNL     1      -0.474   4.526  25.580  1.00  0.00    -0.387 OA
ATOM     36  H3  UNL     1      -0.415   4.080  24.743  1.00  0.00     0.210 HD
ENDBRANCH  26  35
ENDBRANCH  23  26
ENDBRANCH  22  23
ENDBRANCH  18  21
TORSDOF 5
ENDMDL