MODEL 2
REMARK VINA RESULT: -4.553009893      8.022      9.639
REMARK  2 active torsions:
REMARK  status: ('A' for Active; 'I' for Inactive)
REMARK    1  A    between atoms: C2_2  and  C3_3
REMARK    2  A    between atoms: C5_5  and  N1_6
REMARK       I    between atoms: N1_6  and  C6_8
ROOT
HETATM    1  C3  UNL     1      11.395   6.640   7.533  1.00  0.00     0.018 C
HETATM    2  C4  UNL     1      11.652   7.814   8.500  1.00  0.00     0.035 C
HETATM    3  C5  UNL     1      12.137   8.936   7.577  1.00  0.00     0.089 C
HETATM    4  C7  UNL     1      12.556   8.161   6.398  1.00  0.00     0.018 A
HETATM    5  C8  UNL     1      11.983   7.725   5.191  1.00  0.00     0.017 A
HETATM    6  C9  UNL     1      11.159   7.406   6.316  1.00  0.00    -0.031 A
HETATM    7  C10 UNL     1       9.942   8.339   6.450  1.00  0.00     0.016 C
ENDROOT
BRANCH   3   8
HETATM    8  N1  UNL     1      13.323   9.507   8.207  1.00  0.00    -0.360 N
HETATM    9  C6  UNL     1      13.173  10.210   9.436  1.00  0.00     0.182 C
HETATM   10  N2  UNL     1      13.235  11.492   9.444  1.00  0.00    -0.374 N
HETATM   11  N3  UNL     1      12.955   9.526  10.655  1.00  0.00    -0.064 NA
ATOM     12  H22 UNL     1      13.392  11.985   8.566  1.00  0.00     0.158 HD
ATOM     13  H21 UNL     1      13.128  11.995  10.325  1.00  0.00     0.158 HD
ATOM     14  H1  UNL     1      14.242   9.405   7.775  1.00  0.00     0.162 HD
ENDBRANCH   3   8
BRANCH   1  15
HETATM   15  C2  UNL     1      10.442   5.668   8.007  1.00  0.00    -0.031 C
HETATM   16  C1  UNL     1       9.858   4.675   7.382  1.00  0.00     0.007 C
ENDBRANCH   1  15
TORSDOF 2
ENDMDL