MODEL 1
REMARK VINA RESULT: -4.665615094      0.000      0.000
REMARK  2 active torsions:
REMARK  status: ('A' for Active; 'I' for Inactive)
REMARK       I    between atoms: C1_2  and  N1_3
REMARK       I    between atoms: C1_2  and  N2_8
REMARK    1  A    between atoms: N1_3  and  C2_5
REMARK    2  A    between atoms: N2_8  and  C5_10
ROOT
HETATM    1  O1  UNL     1      17.031  13.053   2.734  1.00  0.00    -0.247 OA
HETATM    2  C1  UNL     1      16.718  13.539   1.628  1.00  0.00     0.318 C
HETATM    3  N1  UNL     1      17.377  13.141   0.408  1.00  0.00    -0.338 N
ATOM      4  H1  UNL     1      17.096  13.558  -0.479  1.00  0.00     0.164 HD
HETATM    5  N2  UNL     1      15.680  14.504   1.621  1.00  0.00    -0.311 N
ATOM      6  H2  UNL     1      15.400  14.921   0.733  1.00  0.00     0.166 HD
ENDROOT
BRANCH   5   7
HETATM    7  C5  UNL     1      15.016  14.911   2.809  1.00  0.00     0.359 A
HETATM    8  C6  UNL     1      13.633  14.367   3.044  1.00  0.00     0.278 A
HETATM    9  C7  UNL     1      12.928  13.842   1.828  1.00  0.00     0.042 C
HETATM   10  N3  UNL     1      13.883  15.763   2.824  1.00  0.00     0.122 N
HETATM   11  C8  UNL     1      12.563  15.026   0.989  1.00  0.00     0.033 C
HETATM   12  C9  UNL     1      13.183  16.193   1.671  1.00  0.00     0.276 C
ENDBRANCH   5   7
BRANCH   3  13
HETATM   13  C2  UNL     1      18.427  12.161   0.433  1.00  0.00     0.086 A
HETATM   14  C3  UNL     1      18.137  10.718   0.350  1.00  0.00     0.027 A
HETATM   15  C4  UNL     1      18.679  11.379  -0.869  1.00  0.00     0.027 A
ENDBRANCH   3  13
TORSDOF 2
ENDMDL