MODEL 2
REMARK VINA RESULT: -4.394295822      8.888     10.344
REMARK  3 active torsions:
REMARK  status: ('A' for Active; 'I' for Inactive)
REMARK       I    between atoms: C1_2  and  N3_8
REMARK    1  A    between atoms: N2_3  and  C2_5
REMARK    2  A    between atoms: N3_8  and  C5_10
REMARK    3  A    between atoms: C9_14  and  N4_15
ROOT
HETATM    1  C5  UNL     1      11.281   7.264   7.161  1.00  0.00     0.114 C
HETATM    2  C6  UNL     1      11.367   5.759   6.974  1.00  0.00     0.027 C
HETATM    3  C7  UNL     1       9.944   5.265   6.824  1.00  0.00     0.004 C
HETATM    4  C8  UNL     1       9.222   6.513   6.372  1.00  0.00     0.035 C
HETATM    5  C9  UNL     1       9.800   7.540   7.338  1.00  0.00     0.206 C
ENDROOT
BRANCH   1   6
HETATM    6  N3  UNL     1      12.052   7.717   8.282  1.00  0.00    -0.358 N
HETATM    7  C1  UNL     1      12.884   8.852   8.147  1.00  0.00     0.184 C
HETATM    8  N1  UNL     1      13.172   9.403   6.852  1.00  0.00    -0.064 NA
HETATM    9  N2  UNL     1      13.408   9.425   9.169  1.00  0.00    -0.360 N
ATOM     10  H2  UNL     1      13.218   9.051  10.098  1.00  0.00     0.162 HD
ATOM     11  H3  UNL     1      12.000   7.222   9.172  1.00  0.00     0.162 HD
BRANCH   9  12
HETATM   12  C2  UNL     1      14.262  10.588   9.041  1.00  0.00     0.084 A
HETATM   13  C3  UNL     1      14.268  11.492  10.224  1.00  0.00     0.027 A
HETATM   14  C4  UNL     1      13.658  11.946   8.908  1.00  0.00     0.027 A
ENDBRANCH   9  12
ENDBRANCH   1   6
BRANCH   5  15
HETATM   15  N4  UNL     1       9.475   7.223   8.713  1.00  0.00    -0.073 N
ATOM     16  H43 UNL     1      10.103   7.664   9.385  1.00  0.00     0.274 HD
ATOM     17  H42 UNL     1       8.612   7.663   9.034  1.00  0.00     0.274 HD
ATOM     18  H41 UNL     1       9.459   6.206   8.787  1.00  0.00     0.274 HD
ENDBRANCH   5  15
TORSDOF 3
ENDMDL