MODEL 5
REMARK VINA RESULT: -4.748823362      1.239      1.889
REMARK  1 active torsions:
REMARK  status: ('A' for Active; 'I' for Inactive)
REMARK       I    between atoms: C1_4  and  N3_6
REMARK       I    between atoms: C2_8  and  N5_10
REMARK    1  A    between atoms: N5_10  and  C3_12
ROOT
HETATM    1  N1  UNL     1      14.564  10.872   9.490  1.00  0.00    -0.373 N
ATOM      2  H11 UNL     1      14.735  11.158   8.526  1.00  0.00     0.158 HD
ATOM      3  H12 UNL     1      15.282  11.075  10.186  1.00  0.00     0.158 HD
HETATM    4  C1  UNL     1      13.476  10.276   9.808  1.00  0.00     0.188 C
HETATM    5  N2  UNL     1      13.239   9.880  11.145  1.00  0.00    -0.064 NA
HETATM    6  N3  UNL     1      12.479   9.994   8.841  1.00  0.00    -0.305 N
ATOM      7  H3  UNL     1      11.541  10.365   8.993  1.00  0.00     0.171 HD
HETATM    8  C2  UNL     1      12.692   9.297   7.784  1.00  0.00     0.190 C
HETATM    9  N4  UNL     1      13.922   8.714   7.425  1.00  0.00    -0.063 NA
HETATM   10  N5  UNL     1      11.583   9.106   6.910  1.00  0.00    -0.360 N
ATOM     11  H5  UNL     1      11.588   9.591   6.012  1.00  0.00     0.162 HD
ENDROOT
BRANCH  10  12
HETATM   12  C3  UNL     1      10.464   8.273   7.219  1.00  0.00     0.084 C
HETATM   13  C4  UNL     1      10.781   7.461   8.454  1.00  0.00     0.025 C
HETATM   14  C5  UNL     1      11.450   6.174   8.025  1.00  0.00     0.002 C
HETATM   15  C6  UNL     1      10.448   5.290   7.342  1.00  0.00     0.000 C
HETATM   16  C7  UNL     1       9.527   6.098   6.455  1.00  0.00     0.002 C
HETATM   17  C8  UNL     1      10.231   7.353   6.021  1.00  0.00     0.025 C
ENDBRANCH  10  12
TORSDOF 1
ENDMDL