MODEL 5
REMARK VINA RESULT: -5.665843204      8.235      9.284
REMARK  1 active torsions:
REMARK  status: ('A' for Active; 'I' for Inactive)
REMARK       I    between atoms: C1_4  and  N3_6
REMARK    1  A    between atoms: N3_6  and  C2_8
ROOT
HETATM    1  C2  UNL     1      15.562  14.729   2.569  1.00  0.00     0.037 C
HETATM    2  C3  UNL     1      14.502  14.690   1.478  1.00  0.00     0.032 C
HETATM    3  C4  UNL     1      13.247  14.228   2.240  1.00  0.00     0.013 C
HETATM    4  C5  UNL     1      13.436  14.887   3.523  1.00  0.00    -0.029 A
HETATM    5  C6  UNL     1      13.411  16.405   3.379  1.00  0.00     0.015 C
HETATM    6  C7  UNL     1      14.751  16.432   4.056  1.00  0.00    -0.006 C
HETATM    7  C8  UNL     1      15.814  16.152   3.039  1.00  0.00     0.036 C
HETATM    8  C9  UNL     1      14.292  15.093   4.594  1.00  0.00     0.006 A
HETATM    9  C10 UNL     1      14.830  14.162   3.725  1.00  0.00     0.028 A
ENDROOT
BRANCH   1  10
HETATM   10  N3  UNL     1      16.781  14.080   2.210  1.00  0.00    -0.355 N
HETATM   11  C1  UNL     1      16.876  12.773   1.673  1.00  0.00     0.182 C
HETATM   12  N1  UNL     1      15.848  12.031   1.621  1.00  0.00    -0.374 N
HETATM   13  N2  UNL     1      18.132  12.312   1.195  1.00  0.00    -0.064 NA
ATOM     14  H12 UNL     1      15.917  11.090   1.234  1.00  0.00     0.158 HD
ATOM     15  H11 UNL     1      14.947  12.362   1.963  1.00  0.00     0.158 HD
ATOM     16  H3  UNL     1      17.650  14.595   2.350  1.00  0.00     0.163 HD
ENDBRANCH   1  10
TORSDOF 1
ENDMDL