MODEL 5
REMARK VINA RESULT: -5.099023683      1.924      4.773
REMARK  1 active torsions:
REMARK  status: ('A' for Active; 'I' for Inactive)
REMARK       I    between atoms: C1_4  and  N3_6
REMARK    1  A    between atoms: N3_6  and  C2_8
ROOT
HETATM    1  C2  UNL     1      11.673   7.880   8.114  1.00  0.00     0.114 C
HETATM    2  C3  UNL     1      12.119   8.891   9.159  1.00  0.00     0.062 C
HETATM    3  C4  UNL     1      13.469   9.170   8.620  1.00  0.00     0.225 C
HETATM    4  C5  UNL     1      14.128  10.426   9.004  1.00  0.00     0.037 C
HETATM    5  C6  UNL     1      15.012  10.627   7.762  1.00  0.00     0.032 C
HETATM    6  C7  UNL     1      14.366   9.758   6.671  1.00  0.00     0.273 C
HETATM    7  N4  UNL     1      13.097   9.480   7.221  1.00  0.00     0.095 N
HETATM    8  C8  UNL     1      12.463   8.263   6.854  1.00  0.00     0.298 C
ENDROOT
BRANCH   1   9
HETATM    9  N3  UNL     1      10.276   7.862   7.906  1.00  0.00    -0.358 N
HETATM   10  C1  UNL     1       9.651   7.008   6.964  1.00  0.00     0.182 C
HETATM   11  N1  UNL     1       8.637   7.463   6.312  1.00  0.00    -0.374 N
HETATM   12  N2  UNL     1      10.102   5.684   6.718  1.00  0.00    -0.064 NA
ATOM     13  H12 UNL     1       8.188   6.848   5.634  1.00  0.00     0.158 HD
ATOM     14  H11 UNL     1       8.314   8.414   6.489  1.00  0.00     0.158 HD
ATOM     15  H3  UNL     1       9.691   8.490   8.458  1.00  0.00     0.162 HD
ENDBRANCH   1   9
TORSDOF 1
ENDMDL