MODEL 4
REMARK VINA RESULT: -5.064571970      2.442      3.440
REMARK  2 active torsions:
REMARK  status: ('A' for Active; 'I' for Inactive)
REMARK       I    between atoms: N1_2  and  C2_4
REMARK       I    between atoms: C2_4  and  N2_6
REMARK       I    between atoms: N2_6  and  C3_8
REMARK       I    between atoms: C3_8  and  N3_10
REMARK    1  A    between atoms: N3_10  and  C4_12
REMARK    2  A    between atoms: C4_12  and  C6_14
ROOT
HETATM    1  C1  UNL     1      14.892  10.981   5.053  1.00  0.00     0.151 C
HETATM    2  N1  UNL     1      13.935  10.150   5.927  1.00  0.00    -0.347 N
ATOM      3  H1  UNL     1      13.015   9.877   5.582  1.00  0.00     0.163 HD
HETATM    4  C2  UNL     1      14.327   9.807   7.110  1.00  0.00     0.323 C
HETATM    5  O1  UNL     1      15.450  10.119   7.581  1.00  0.00    -0.247 OA
HETATM    6  N2  UNL     1      13.491   8.902   8.268  1.00  0.00    -0.261 N
ATOM      7  H2  UNL     1      13.756   8.608   9.209  1.00  0.00     0.175 HD
HETATM    8  C3  UNL     1      12.319   8.681   7.530  1.00  0.00     0.324 C
HETATM    9  O2  UNL     1      11.935   8.971   6.439  1.00  0.00    -0.247 OA
HETATM   10  N3  UNL     1      11.281   7.890   8.271  1.00  0.00    -0.338 N
ATOM     11  H3  UNL     1      11.460   7.567   9.221  1.00  0.00     0.164 HD
ENDROOT
BRANCH  10  12
HETATM   12  C4  UNL     1      10.060   7.599   7.639  1.00  0.00     0.086 C
HETATM   13  C5  UNL     1       8.959   7.536   8.706  1.00  0.00     0.032 C
BRANCH  12  14
HETATM   14  C6  UNL     1      10.031   6.319   6.842  1.00  0.00     0.008 A
HETATM   15  C7  UNL     1      11.364   5.686   6.473  1.00  0.00     0.007 A
HETATM   16  C8  UNL     1      10.390   5.011   7.433  1.00  0.00     0.007 A
ENDBRANCH  12  14
ENDBRANCH  10  12
TORSDOF 2
ENDMDL