MODEL 4
REMARK VINA RESULT: -5.937235307      1.093      1.712
REMARK  2 active torsions:
REMARK  status: ('A' for Active; 'I' for Inactive)
REMARK    1  A    between atoms: C2_2  and  C4_4
REMARK    2  A    between atoms: C4_4  and  N1_6
REMARK       I    between atoms: N1_6  and  C6_8
REMARK       I    between atoms: C6_8  and  N2_10
ROOT
HETATM    1  N1  UNL     1      11.561   8.661   8.320  1.00  0.00    -0.338 N
ATOM      2  H1  UNL     1      10.983   9.218   8.950  1.00  0.00     0.164 HD
HETATM    3  C6  UNL     1      12.851   9.094   7.957  1.00  0.00     0.322 C
HETATM    4  O1  UNL     1      13.579   8.422   7.181  1.00  0.00    -0.247 OA
HETATM    5  N2  UNL     1      13.317  10.325   8.498  1.00  0.00    -0.285 N
ATOM      6  H2  UNL     1      13.587  11.087   7.876  1.00  0.00     0.172 HD
HETATM    7  C7  UNL     1      13.397  10.472   9.757  1.00  0.00     0.204 C
HETATM    8  N3  UNL     1      13.026   9.426  10.651  1.00  0.00    -0.066 NA
HETATM    9  N4  UNL     1      13.857  11.683  10.340  1.00  0.00    -0.066 NA
ENDROOT
BRANCH   1  10
HETATM   10  C4  UNL     1      11.074   7.428   7.789  1.00  0.00     0.085 C
HETATM   11  C5  UNL     1       9.902   6.982   8.650  1.00  0.00     0.032 C
BRANCH  10  12
HETATM   12  C2  UNL     1      10.704   7.486   6.335  1.00  0.00    -0.000 C
HETATM   13  C1  UNL     1      11.590   6.696   5.447  1.00  0.00     0.011 C
HETATM   14  C3  UNL     1       9.263   7.105   6.132  1.00  0.00     0.011 C
ENDBRANCH  10  12
ENDBRANCH   1  10
TORSDOF 2
ENDMDL