MODEL 2
REMARK VINA RESULT: -5.571978908      1.147      5.047
REMARK  2 active torsions:
REMARK  status: ('A' for Active; 'I' for Inactive)
REMARK       I    between atoms: C1_4  and  N2_5
REMARK       I    between atoms: C1_4  and  N3_10
REMARK    1  A    between atoms: N2_5  and  C2_7
REMARK    2  A    between atoms: N3_10  and  C5_12
ROOT
HETATM    1  N1  UNL     1      12.284   7.805   5.286  1.00  0.00    -0.235 N
ATOM      2  H11 UNL     1      13.037   8.010   4.630  1.00  0.00     0.174 HD
ATOM      3  H12 UNL     1      11.422   7.373   4.953  1.00  0.00     0.174 HD
HETATM    4  C1  UNL     1      12.412   8.086   6.521  1.00  0.00     0.668 C
HETATM    5  N2  UNL     1      11.373   7.803   7.428  1.00  0.00    -0.222 N
ATOM      6  H2  UNL     1      11.336   8.272   8.333  1.00  0.00     0.178 HD
HETATM    7  N3  UNL     1      13.598   8.680   6.978  1.00  0.00    -0.222 N
ATOM      8  H3  UNL     1      14.481   8.171   6.932  1.00  0.00     0.178 HD
ENDROOT
BRANCH   5   9
HETATM    9  C2  UNL     1      10.350   6.836   7.061  1.00  0.00     0.099 A
HETATM   10  C3  UNL     1      10.596   5.387   7.149  1.00  0.00     0.028 A
HETATM   11  C4  UNL     1       9.632   6.093   8.139  1.00  0.00     0.028 A
ENDBRANCH   5   9
BRANCH   7  12
HETATM   12  C5  UNL     1      13.556  10.009   7.508  1.00  0.00     0.103 C
HETATM   13  C6  UNL     1      14.910  10.375   8.153  1.00  0.00     0.030 C
HETATM   14  C7  UNL     1      14.452  10.707   9.530  1.00  0.00    -0.012 C
HETATM   15  C8  UNL     1      13.163  11.493   9.257  1.00  0.00     0.011 C
HETATM   16  C10 UNL     1      13.511   9.555   9.861  1.00  0.00     0.011 C
HETATM   17  C9  UNL     1      12.684  10.149   8.721  1.00  0.00     0.010 C
ENDBRANCH   7  12
TORSDOF 2
ENDMDL