MODEL 4
REMARK VINA RESULT: -4.659497194      8.590      9.667
REMARK  2 active torsions:
REMARK  status: ('A' for Active; 'I' for Inactive)
REMARK    1  A    between atoms: C2_2  and  C3_3
REMARK    2  A    between atoms: C9_9  and  N1_10
REMARK       I    between atoms: N1_10  and  C10_12
ROOT
HETATM    1  C3  UNL     1      13.810  14.757   3.134  1.00  0.00     0.030 C
HETATM    2  C4  UNL     1      12.388  14.573   2.650  1.00  0.00     0.011 C
HETATM    3  C5  UNL     1      11.848  15.840   2.032  1.00  0.00     0.006 C
HETATM    4  C6  UNL     1      12.737  16.258   0.922  1.00  0.00    -0.008 A
HETATM    5  C7  UNL     1      13.307  15.275  -0.035  1.00  0.00     0.012 A
HETATM    6  C8  UNL     1      14.153  16.060   1.010  1.00  0.00     0.013 A
HETATM    7  C9  UNL     1      14.736  15.196   2.046  1.00  0.00     0.096 C
ENDROOT
BRANCH   7   8
HETATM    8  N1  UNL     1      15.294  14.016   1.402  1.00  0.00    -0.359 N
HETATM    9  C10 UNL     1      16.311  13.244   2.032  1.00  0.00     0.182 C
HETATM   10  N2  UNL     1      17.165  13.754   2.824  1.00  0.00    -0.374 N
HETATM   11  N3  UNL     1      16.344  11.859   1.745  1.00  0.00    -0.064 NA
ATOM     12  H22 UNL     1      17.142  14.752   3.031  1.00  0.00     0.158 HD
ATOM     13  H21 UNL     1      17.894  13.201   3.275  1.00  0.00     0.158 HD
ATOM     14  H1  UNL     1      14.950  13.738   0.483  1.00  0.00     0.162 HD
ENDBRANCH   7   8
BRANCH   1  15
HETATM   15  C2  UNL     1      13.735  15.691   4.289  1.00  0.00    -0.030 C
HETATM   16  C1  UNL     1      14.737  16.377   4.793  1.00  0.00     0.007 C
ENDBRANCH   1  15
TORSDOF 2
ENDMDL