MODEL 3
REMARK VINA RESULT: -8.973426623      1.405      1.867
REMARK  4 active torsions:
REMARK  status: ('A' for Active; 'I' for Inactive)
REMARK    1  A    between atoms: C3_3  and  C4_4
REMARK    2  A    between atoms: C4_4  and  C5_5
REMARK    3  A    between atoms: C9_9  and  C10_10
REMARK    4  A    between atoms: C10_10  and  C11_11
ROOT
HETATM    1  C1  UNL     1      -7.207  70.865   5.808  1.00  0.00     0.012 C
HETATM    2  C2  UNL     1      -7.291  71.469   4.777  1.00  0.00    -0.114 C
HETATM    3  C3  UNL     1      -7.402  72.253   3.490  1.00  0.00     0.121 C
ENDROOT
BRANCH   3   4
HETATM    4  C4  UNL     1      -8.763  72.770   3.401  1.00  0.00     0.003 C
BRANCH   4   5
HETATM    5  C5  UNL     1      -9.921  72.245   3.667  1.00  0.00     0.035 A
HETATM    6  C6  UNL     1     -10.635  71.439   2.855  1.00  0.00    -0.044 A
HETATM    7  C7  UNL     1     -10.158  71.043   1.510  1.00  0.00     0.049 C
HETATM    8  C8  UNL     1     -11.894  70.940   3.287  1.00  0.00     0.037 A
HETATM    9  C9  UNL     1     -12.414  71.253   4.511  1.00  0.00     0.036 A
HETATM   10  N2  UNL     1     -11.684  72.056   5.297  1.00  0.00    -0.323 N
HETATM   11  C18 UNL     1     -10.499  72.535   4.910  1.00  0.00     0.256 A
ATOM     12  H2  UNL     1     -12.043  72.309   6.217  1.00  0.00     0.169 HD
HETATM   13  O3  UNL     1      -9.867  73.279   5.691  1.00  0.00    -0.267 OA
BRANCH   9  14
HETATM   14  C10 UNL     1     -13.579  70.795   4.915  1.00  0.00     0.041 C
BRANCH  14  15
HETATM   15  C11 UNL     1     -13.802  69.370   5.202  1.00  0.00    -0.031 A
HETATM   16  C12 UNL     1     -15.078  68.868   5.351  1.00  0.00     0.014 A
HETATM   17  C13 UNL     1     -15.313  67.537   5.620  1.00  0.00     0.033 A
HETATM   18  C14 UNL     1     -14.275  66.640   5.752  1.00  0.00     0.071 A
HETATM   19  N1  UNL     1     -14.210  65.306   6.011  1.00  0.00    -0.300 N
HETATM   20  C16 UNL     1     -12.991  67.126   5.606  1.00  0.00     0.108 A
HETATM   21  C15 UNL     1     -12.902  65.000   6.017  1.00  0.00     0.370 A
ATOM     22  H1  UNL     1     -14.993  64.671   6.167  1.00  0.00     0.171 HD
HETATM   23  O1  UNL     1     -12.450  63.827   6.228  1.00  0.00    -0.238 OA
HETATM   24  O2  UNL     1     -12.206  66.086   5.777  1.00  0.00    -0.259 OA
HETATM   25  C17 UNL     1     -12.763  68.472   5.335  1.00  0.00     0.051 A
ENDBRANCH  14  15
ENDBRANCH   9  14
ENDBRANCH   4   5
ENDBRANCH   3   4
TORSDOF 4
ENDMDL