MODEL 5
REMARK VINA RESULT: -6.815932508      3.227      5.579
REMARK  3 active torsions:
REMARK  status: ('A' for Active; 'I' for Inactive)
REMARK    1  A    between atoms: C2_2  and  N1_3
REMARK    2  A    between atoms: C5_7  and  C6_8
REMARK    3  A    between atoms: C7_9  and  C8_10
ROOT
HETATM    1  C6  UNL     1     -10.421  71.711   4.912  1.00  0.00     0.060 A
HETATM    2  C7  UNL     1      -9.621  71.190   5.934  1.00  0.00     0.049 A
HETATM    3  N2  UNL     1     -10.424  70.768   6.920  1.00  0.00    -0.300 N
ATOM      4  H2  UNL     1     -10.108  70.342   7.791  1.00  0.00     0.186 HD
HETATM    5  N3  UNL     1     -11.684  70.984   6.597  1.00  0.00    -0.266 N
ATOM      6  H3  UNL     1     -12.497  70.757   7.169  1.00  0.00     0.190 HD
HETATM    7  C12 UNL     1     -11.709  71.567   5.360  1.00  0.00     0.272 A
HETATM    8  O2  UNL     1     -12.753  71.913   4.746  1.00  0.00    -0.266 OA
ENDROOT
BRANCH   1   9
HETATM    9  C5  UNL     1      -9.899  72.318   3.725  1.00  0.00     0.054 C
HETATM   10  C4  UNL     1      -9.971  71.916   2.468  1.00  0.00     0.106 A
HETATM   11  C3  UNL     1      -9.393  72.646   1.317  1.00  0.00     0.276 A
HETATM   12  N4  UNL     1     -10.528  70.738   1.905  1.00  0.00    -0.323 N
HETATM   13  N1  UNL     1      -9.619  71.898   0.138  1.00  0.00    -0.289 N
HETATM   14  O1  UNL     1      -8.801  73.749   1.402  1.00  0.00    -0.265 OA
HETATM   15  C14 UNL     1     -10.318  70.719   0.475  1.00  0.00     0.183 A
HETATM   16  S1  UNL     1     -10.828  69.512  -0.517  1.00  0.00    -0.040 SA
HETATM   17  C13 UNL     1     -11.194  69.646   2.618  1.00  0.00     0.159 C
BRANCH  13  18
HETATM   18  C2  UNL     1      -9.189  72.302  -1.173  1.00  0.00     0.130 C
HETATM   19  C1  UNL     1     -10.235  73.031  -1.952  1.00  0.00     0.027 C
ENDBRANCH  13  18
ENDBRANCH   1   9
BRANCH   2  20
HETATM   20  C8  UNL     1      -8.140  71.139   5.898  1.00  0.00    -0.006 C
HETATM   21  C9  UNL     1      -7.650  70.397   7.150  1.00  0.00     0.021 C
HETATM   22  C10 UNL     1      -7.551  72.539   5.999  1.00  0.00     0.021 C
HETATM   23  C11 UNL     1      -7.614  70.395   4.704  1.00  0.00     0.021 C
ENDBRANCH   2  20
TORSDOF 3
ENDMDL