MODEL 1
REMARK VINA RESULT: -8.635533064      0.000      0.000
REMARK  4 active torsions:
REMARK  status: ('A' for Active; 'I' for Inactive)
REMARK    1  A    between atoms: N1_2  and  C2_4
REMARK    2  A    between atoms: C3_7  and  O1_8
REMARK    3  A    between atoms: C4_10  and  C5_11
REMARK    4  A    between atoms: C5_11  and  C6_12
ROOT
HETATM    1  C5  UNL     1      -9.990  69.992   3.644  1.00  0.00     0.088 C
ENDROOT
BRANCH   1   2
HETATM    2  C4  UNL     1     -10.106  70.265   2.197  1.00  0.00    -0.002 A
HETATM    3  C3  UNL     1      -9.782  71.475   1.630  1.00  0.00     0.148 A
HETATM    4  N2  UNL     1      -9.923  71.628   0.302  1.00  0.00    -0.323 N
HETATM    5  C2  UNL     1     -10.375  70.634  -0.506  1.00  0.00     0.108 A
ATOM      6  H2  UNL     1      -9.682  72.526  -0.116  1.00  0.00     0.169 HD
HETATM    7  C17 UNL     1     -10.716  69.395   0.018  1.00  0.00    -0.018 A
HETATM    8  C16 UNL     1     -10.565  69.251   1.382  1.00  0.00     0.022 A
HETATM    9  C18 UNL     1     -11.203  68.333  -0.882  1.00  0.00     0.052 C
BRANCH   3  10
HETATM   10  O1  UNL     1      -9.312  72.528   2.421  1.00  0.00    -0.346 OA
ATOM     11  H1  UNL     1      -9.898  72.990   3.008  1.00  0.00     0.219 HD
ENDBRANCH   3  10
BRANCH   5  12
HETATM   12  N1  UNL     1     -10.505  70.802  -1.785  1.00  0.00    -0.380 N
HETATM   13  C1  UNL     1     -10.905  72.103  -2.278  1.00  0.00     0.147 C
ATOM     14  H1  UNL     1     -10.329  70.032  -2.431  1.00  0.00     0.160 HD
ENDBRANCH   5  12
ENDBRANCH   1   2
BRANCH   1  15
HETATM   15  C6  UNL     1     -11.192  70.322   4.419  1.00  0.00     0.027 A
HETATM   16  C7  UNL     1     -11.993  69.445   4.997  1.00  0.00     0.004 A
HETATM   17  C8  UNL     1     -11.945  68.045   5.041  1.00  0.00     0.021 A
HETATM   18  C14 UNL     1     -13.018  70.111   5.632  1.00  0.00     0.052 A
HETATM   19  C9  UNL     1     -12.888  67.292   5.702  1.00  0.00    -0.061 A
HETATM   20  C10 UNL     1     -12.812  65.796   5.733  1.00  0.00     0.048 C
HETATM   21  C11 UNL     1     -13.907  67.973   6.332  1.00  0.00     0.015 A
HETATM   22  C12 UNL     1     -13.963  69.348   6.294  1.00  0.00    -0.034 A
HETATM   23  C13 UNL     1     -15.084  70.036   6.992  1.00  0.00     0.050 C
HETATM   24  N3  UNL     1     -12.917  71.397   5.490  1.00  0.00    -0.322 N
HETATM   25  C15 UNL     1     -11.746  71.631   4.707  1.00  0.00     0.253 A
ATOM     26  H3  UNL     1     -13.550  72.103   5.865  1.00  0.00     0.169 HD
HETATM   27  O2  UNL     1     -11.239  72.711   4.311  1.00  0.00    -0.268 OA
ENDBRANCH   1  15
TORSDOF 4
ENDMDL