MODEL 3
REMARK VINA RESULT: -8.116764697      1.716      7.534
REMARK  2 active torsions:
REMARK  status: ('A' for Active; 'I' for Inactive)
REMARK       I    between atoms: N2_7  and  C4_9
REMARK    1  A    between atoms: C4_9  and  C5_11
REMARK    2  A    between atoms: C5_11  and  N3_12
ROOT
HETATM    1  N3  UNL     1     -13.753  69.162   5.807  1.00  0.00    -0.259 N
HETATM    2  C6  UNL     1     -13.952  70.167   6.823  1.00  0.00     0.326 C
HETATM    3  O3  UNL     1     -12.997  70.683   7.467  1.00  0.00    -0.247 OA
HETATM    4  N4  UNL     1     -15.342  70.446   6.948  1.00  0.00    -0.323 N
ATOM      5  H4  UNL     1     -15.815  70.906   7.726  1.00  0.00     0.165 HD
HETATM    6  C7  UNL     1     -15.935  69.941   5.744  1.00  0.00     0.127 A
HETATM    7  C8  UNL     1     -15.057  68.853   5.337  1.00  0.00     0.258 C
HETATM    8  O4  UNL     1     -15.368  67.806   4.681  1.00  0.00    -0.270 OA
HETATM    9  C9  UNL     1     -17.324  70.093   5.378  1.00  0.00     0.031 A
HETATM   10  C10 UNL     1     -18.262  70.893   6.251  1.00  0.00     0.014 C
HETATM   11  C11 UNL     1     -16.312  70.905   4.640  1.00  0.00    -0.007 A
HETATM   12  C12 UNL     1     -16.083  72.353   5.000  1.00  0.00     0.018 C
HETATM   13  C13 UNL     1     -15.931  70.528   3.229  1.00  0.00     0.018 C
ENDROOT
BRANCH   1  14
HETATM   14  C5  UNL     1     -12.479  68.601   5.382  1.00  0.00     0.240 C
BRANCH  14  15
HETATM   15  C4  UNL     1     -11.593  69.706   4.987  1.00  0.00     0.242 C
HETATM   16  N2  UNL     1     -10.429  69.980   5.728  1.00  0.00    -0.304 N
HETATM   17  C3  UNL     1      -9.438  70.540   5.119  1.00  0.00     0.180 A
ATOM     18  H2  UNL     1     -10.370  69.744   6.719  1.00  0.00     0.171 HD
HETATM   19  O1  UNL     1      -9.333  70.913   3.865  1.00  0.00    -0.219 OA
HETATM   20  C14 UNL     1      -8.253  70.855   5.736  1.00  0.00     0.015 A
HETATM   21  N1  UNL     1      -8.178  71.439   3.635  1.00  0.00    -0.263 N
HETATM   22  C2  UNL     1      -7.456  71.432   4.769  1.00  0.00     0.039 A
ATOM     23  H1  UNL     1      -7.863  71.804   2.735  1.00  0.00     0.194 HD
HETATM   24  C1  UNL     1      -6.076  71.922   5.019  1.00  0.00     0.071 C
HETATM   25  C15 UNL     1      -7.912  70.616   7.164  1.00  0.00     0.055 C
HETATM   26  O2  UNL     1     -11.884  70.396   3.993  1.00  0.00    -0.271 OA
ENDBRANCH  14  15
ENDBRANCH   1  14
TORSDOF 2
ENDMDL