MODEL 5
REMARK VINA RESULT: -8.575518994      1.943      8.256
REMARK  4 active torsions:
REMARK  status: ('A' for Active; 'I' for Inactive)
REMARK    1  A    between atoms: C5_5  and  C6_6
REMARK    2  A    between atoms: C6_6  and  C7_7
REMARK    3  A    between atoms: C9_12  and  C10_13
REMARK    4  A    between atoms: C10_13  and  C11_14
ROOT
HETATM    1  C7  UNL     1     -15.314  70.055   5.154  1.00  0.00     0.104 A
HETATM    2  N1  UNL     1     -15.079  70.359   3.865  1.00  0.00    -0.317 N
ATOM      3  H1  UNL     1     -15.823  70.219   3.180  1.00  0.00     0.169 HD
HETATM    4  C8  UNL     1     -13.895  70.840   3.451  1.00  0.00     0.273 A
HETATM    5  O1  UNL     1     -13.666  71.130   2.230  1.00  0.00    -0.266 OA
HETATM    6  C9  UNL     1     -12.873  71.040   4.352  1.00  0.00     0.106 A
HETATM    7  N2  UNL     1     -13.112  70.736   5.633  1.00  0.00    -0.317 N
ATOM      8  H2  UNL     1     -12.369  70.875   6.317  1.00  0.00     0.169 HD
HETATM    9  C16 UNL     1     -14.288  70.256   6.049  1.00  0.00     0.273 A
HETATM   10  O3  UNL     1     -14.473  69.980   7.281  1.00  0.00    -0.266 OA
ENDROOT
BRANCH   1  11
HETATM   11  C6  UNL     1     -16.485  69.582   5.542  1.00  0.00     0.046 C
BRANCH  11  12
HETATM   12  C5  UNL     1     -17.692  70.380   5.576  1.00  0.00    -0.034 A
HETATM   13  C4  UNL     1     -18.623  70.357   4.562  1.00  0.00     0.012 A
HETATM   14  C3  UNL     1     -19.749  71.141   4.656  1.00  0.00     0.007 A
HETATM   15  C2  UNL     1     -19.984  71.958   5.738  1.00  0.00    -0.062 A
HETATM   16  C1  UNL     1     -21.210  72.790   5.805  1.00  0.00     0.048 C
HETATM   17  C18 UNL     1     -19.053  71.978   6.748  1.00  0.00     0.007 A
HETATM   18  C17 UNL     1     -17.923  71.197   6.662  1.00  0.00     0.012 A
ENDBRANCH  11  12
ENDBRANCH   1  11
BRANCH   6  19
HETATM   19  C10 UNL     1     -11.684  71.517   3.974  1.00  0.00     0.072 C
BRANCH  19  20
HETATM   20  C11 UNL     1     -10.586  71.702   4.884  1.00  0.00     0.078 A
HETATM   21  C12 UNL     1     -10.091  72.957   5.230  1.00  0.00     0.040 A
HETATM   22  C13 UNL     1      -9.063  72.725   6.103  1.00  0.00     0.035 A
HETATM   23  C14 UNL     1      -8.957  71.357   6.265  1.00  0.00     0.050 A
HETATM   24  C15 UNL     1      -7.966  70.648   7.134  1.00  0.00     0.076 C
HETATM   25  O2  UNL     1      -9.880  70.819   5.523  1.00  0.00    -0.316 OA
ENDBRANCH  19  20
ENDBRANCH   6  19
TORSDOF 4
ENDMDL