MODEL 4
REMARK VINA RESULT: -7.126895849      3.671      6.690
REMARK  3 active torsions:
REMARK  status: ('A' for Active; 'I' for Inactive)
REMARK       I    between atoms: N1_2  and  C2_4
REMARK       I    between atoms: C2_4  and  N2_6
REMARK    1  A    between atoms: N2_6  and  C3_8
REMARK    2  A    between atoms: C3_8  and  C5_10
REMARK       I    between atoms: C5_10  and  N3_12
REMARK    3  A    between atoms: N4_15  and  C8_16
ROOT
HETATM    1  C5  UNL     1     -10.150  71.506   0.914  1.00  0.00     0.246 C
HETATM    2  O2  UNL     1     -10.099  70.437   0.209  1.00  0.00    -0.271 OA
HETATM    3  N3  UNL     1     -10.537  71.370   2.292  1.00  0.00    -0.327 N
HETATM    4  C6  UNL     1     -10.492  72.534   3.057  1.00  0.00     0.082 C
HETATM    5  C7  UNL     1      -9.514  72.796   4.165  1.00  0.00     0.149 C
HETATM    6  N4  UNL     1      -9.381  71.683   5.138  1.00  0.00    -0.240 NA
HETATM    7  C12 UNL     1      -9.862  70.566   4.559  1.00  0.00    -0.085 C
HETATM    8  C13 UNL     1     -10.395  69.460   3.897  1.00  0.00     0.036 C
HETATM    9  C14 UNL     1     -11.538  68.767   4.656  1.00  0.00     0.031 C
HETATM   10  C15 UNL     1      -9.411  68.321   3.588  1.00  0.00     0.031 C
HETATM   11  C16 UNL     1     -10.944  69.958   2.535  1.00  0.00     0.153 C
ENDROOT
BRANCH   1  12
HETATM   12  C3  UNL     1      -9.806  72.759   0.233  1.00  0.00     0.174 C
HETATM   13  C4  UNL     1      -9.984  72.662  -1.277  1.00  0.00     0.042 C
BRANCH  12  14
HETATM   14  N2  UNL     1      -8.375  73.019   0.469  1.00  0.00    -0.330 N
HETATM   15  C2  UNL     1      -7.728  74.205   0.069  1.00  0.00     0.316 C
HETATM   16  N1  UNL     1      -6.352  74.376   0.338  1.00  0.00    -0.347 N
HETATM   17  O1  UNL     1      -8.342  75.125  -0.525  1.00  0.00    -0.247 OA
HETATM   18  C1  UNL     1      -5.648  75.592  -0.060  1.00  0.00     0.151 C
ATOM     19  H1  UNL     1      -5.840  73.637   0.820  1.00  0.00     0.163 HD
ATOM     20  H2  UNL     1      -7.826  72.305   0.946  1.00  0.00     0.165 HD
ENDBRANCH  12  14
ENDBRANCH   1  12
BRANCH   6  21
HETATM   21  C8  UNL     1      -8.113  71.657   5.782  1.00  0.00     0.014 C
HETATM   22  C9  UNL     1      -8.075  72.796   6.743  1.00  0.00     0.032 C
HETATM   23  C10 UNL     1      -6.924  71.743   4.861  1.00  0.00     0.032 C
HETATM   24  C11 UNL     1      -8.016  70.377   6.579  1.00  0.00     0.032 C
ENDBRANCH   6  21
TORSDOF 3
ENDMDL