MODEL 5
REMARK VINA RESULT: -6.886667452      1.293      2.597
REMARK  2 active torsions:
REMARK  status: ('A' for Active; 'I' for Inactive)
REMARK    1  A    between atoms: C4_6  and  S1_7
REMARK    2  A    between atoms: S1_7  and  N2_10
ROOT
HETATM    1  C1  UNL     1     -12.760  64.880   6.048  1.00  0.00     0.019 C
HETATM    2  C2  UNL     1     -12.826  66.070   5.858  1.00  0.00    -0.059 C
HETATM    3  C3  UNL     1     -12.926  67.511   5.645  1.00  0.00     0.093 A
HETATM    4  N1  UNL     1     -11.913  68.390   5.606  1.00  0.00    -0.338 N
ATOM      5  H1  UNL     1     -10.932  68.135   5.725  1.00  0.00     0.167 HD
HETATM    6  C4  UNL     1     -12.346  69.653   5.389  1.00  0.00     0.150 A
HETATM    7  C12 UNL     1     -13.722  69.531   5.292  1.00  0.00     0.053 A
HETATM    8  C13 UNL     1     -14.095  68.213   5.448  1.00  0.00    -0.024 A
HETATM    9  C14 UNL     1     -15.439  67.603   5.422  1.00  0.00     0.051 C
ENDROOT
BRANCH   6  10
HETATM   10  S1  UNL     1     -11.362  71.104   5.279  1.00  0.00     0.279 S
HETATM   11  O1  UNL     1     -10.725  71.329   6.617  1.00  0.00    -0.199 OA
HETATM   12  O2  UNL     1     -12.360  72.249   5.118  1.00  0.00    -0.199 OA
BRANCH  10  13
HETATM   13  N2  UNL     1     -10.334  71.085   3.981  1.00  0.00    -0.260 N
HETATM   14  C5  UNL     1     -10.750  70.467   2.783  1.00  0.00     0.112 C
HETATM   15  C6  UNL     1     -10.645  68.955   2.802  1.00  0.00     0.064 C
HETATM   16  C7  UNL     1     -12.157  70.850   2.327  1.00  0.00     0.064 C
HETATM   17  N3  UNL     1      -9.863  71.028   1.778  1.00  0.00    -0.332 N
HETATM   18  C8  UNL     1      -9.465  72.294   2.267  1.00  0.00     0.248 C
ATOM     19  H3  UNL     1      -9.585  70.596   0.897  1.00  0.00     0.165 HD
HETATM   20  O3  UNL     1      -9.153  73.332   1.590  1.00  0.00    -0.271 OA
HETATM   21  C9  UNL     1      -9.477  72.181   3.751  1.00  0.00     0.119 C
HETATM   22  C10 UNL     1      -9.884  73.489   4.317  1.00  0.00     0.049 C
HETATM   23  C11 UNL     1      -8.031  71.913   4.167  1.00  0.00     0.049 C
ENDBRANCH  10  13
ENDBRANCH   6  10
TORSDOF 2
ENDMDL