MODEL 2
REMARK VINA RESULT: -7.956060844      4.971      8.374
REMARK  2 active torsions:
REMARK  status: ('A' for Active; 'I' for Inactive)
REMARK    1  A    between atoms: C1_2  and  C2_3
REMARK       I    between atoms: C1_2  and  N3_13
REMARK    2  A    between atoms: C2_3  and  N1_4
ROOT
HETATM    1  O1  UNL     1     -12.676  70.443   6.773  1.00  0.00    -0.272 OA
HETATM    2  C1  UNL     1     -13.063  70.549   5.583  1.00  0.00     0.237 C
HETATM    3  N3  UNL     1     -14.434  70.575   5.297  1.00  0.00    -0.351 N
HETATM    4  C8  UNL     1     -15.445  70.481   6.332  1.00  0.00     0.126 C
HETATM    5  C9  UNL     1     -16.537  71.498   6.069  1.00  0.00     0.029 C
HETATM    6  C10 UNL     1     -17.216  71.171   4.779  1.00  0.00    -0.034 C
HETATM    7  C11 UNL     1     -18.448  70.306   5.078  1.00  0.00     0.037 C
HETATM    8  C12 UNL     1     -19.427  70.568   3.950  1.00  0.00     0.233 C
HETATM    9  N4  UNL     1     -20.007  71.878   4.178  1.00  0.00    -0.075 N
ATOM     10  H41 UNL     1     -20.813  71.826   4.801  1.00  0.00     0.277 HD
ATOM     11  H42 UNL     1     -20.477  72.230   3.344  1.00  0.00     0.277 HD
HETATM   12  C13 UNL     1     -19.015  72.816   4.668  1.00  0.00     0.233 C
HETATM   13  C14 UNL     1     -17.687  72.434   4.080  1.00  0.00     0.037 C
HETATM   14  C15 UNL     1     -16.371  70.405   3.812  1.00  0.00     0.029 C
HETATM   15  C16 UNL     1     -14.898  70.697   3.932  1.00  0.00     0.126 C
ENDROOT
BRANCH   2  16
HETATM   16  C2  UNL     1     -12.056  70.647   4.505  1.00  0.00     0.230 C
BRANCH  16  17
HETATM   17  N1  UNL     1     -10.732  70.972   4.998  1.00  0.00    -0.326 N
HETATM   18  C3  UNL     1     -10.512  72.368   5.274  1.00  0.00     0.128 C
HETATM   19  C4  UNL     1      -9.276  72.684   6.034  1.00  0.00     0.022 C
HETATM   20  C5  UNL     1      -8.996  71.737   7.164  1.00  0.00     0.021 C
HETATM   21  C6  UNL     1      -7.980  70.682   6.792  1.00  0.00     0.124 C
HETATM   22  N2  UNL     1      -8.542  69.892   5.717  1.00  0.00    -0.343 N
HETATM   23  C7  UNL     1      -9.839  69.884   5.138  1.00  0.00     0.318 C
ATOM     24  H2  UNL     1      -7.891  69.225   5.302  1.00  0.00     0.164 HD
HETATM   25  O2  UNL     1     -10.248  68.750   4.687  1.00  0.00    -0.247 OA
ENDBRANCH  16  17
ENDBRANCH   2  16
TORSDOF 2
ENDMDL