MODEL 4
REMARK VINA RESULT: -8.697561334      3.525      7.445
REMARK  5 active torsions:
REMARK  status: ('A' for Active; 'I' for Inactive)
REMARK    1  A    between atoms: C4_7  and  C5_8
REMARK    2  A    between atoms: C5_8  and  C6_9
REMARK    3  A    between atoms: N2_12  and  O2_13
REMARK    4  A    between atoms: C12_18  and  C13_19
REMARK    5  A    between atoms: C16_22  and  O3_23
ROOT
HETATM    1  C1  UNL     1     -15.113  67.091   6.328  1.00  0.00     0.044 C
HETATM    2  C2  UNL     1     -14.153  67.841   5.843  1.00  0.00     0.036 A
HETATM    3  N1  UNL     1     -12.936  67.290   5.549  1.00  0.00    -0.323 N
ATOM      4  H1  UNL     1     -12.819  66.289   5.705  1.00  0.00     0.169 HD
HETATM    5  C3  UNL     1     -11.892  67.969   5.073  1.00  0.00     0.256 A
HETATM    6  O1  UNL     1     -10.792  67.373   4.825  1.00  0.00    -0.267 OA
HETATM    7  C4  UNL     1     -12.005  69.318   4.848  1.00  0.00     0.034 A
HETATM    8  C11 UNL     1     -13.211  69.919   5.127  1.00  0.00     0.031 A
HETATM    9  C12 UNL     1     -14.309  69.185   5.630  1.00  0.00     0.001 A
ENDROOT
BRANCH   7  10
HETATM   10  C5  UNL     1     -10.993  69.993   4.384  1.00  0.00     0.028 C
BRANCH  10  11
HETATM   11  C6  UNL     1     -10.132  70.849   5.161  1.00  0.00    -0.033 A
HETATM   12  C7  UNL     1      -9.132  70.299   5.927  1.00  0.00     0.031 A
HETATM   13  C8  UNL     1      -8.277  71.097   6.694  1.00  0.00     0.123 A
HETATM   14  N2  UNL     1      -8.422  72.432   6.693  1.00  0.00    -0.247 N
HETATM   15  C9  UNL     1      -9.392  72.969   5.950  1.00  0.00     0.123 A
HETATM   16  C10 UNL     1     -10.275  72.219   5.165  1.00  0.00     0.031 A
BRANCH  14  17
HETATM   17  O2  UNL     1      -7.583  73.247   7.449  1.00  0.00    -0.284 OA
ATOM     18  H2  UNL     1      -7.886  74.079   7.793  1.00  0.00     0.245 HD
ENDBRANCH  14  17
ENDBRANCH  10  11
ENDBRANCH   7  10
BRANCH   9  19
HETATM   19  C13 UNL     1     -15.570  69.874   5.864  1.00  0.00    -0.024 A
HETATM   20  C14 UNL     1     -16.624  69.705   4.995  1.00  0.00     0.015 A
HETATM   21  C15 UNL     1     -17.823  70.353   5.209  1.00  0.00     0.037 A
HETATM   22  C16 UNL     1     -17.971  71.180   6.304  1.00  0.00     0.065 A
HETATM   23  C17 UNL     1     -16.924  71.358   7.182  1.00  0.00     0.037 A
HETATM   24  C18 UNL     1     -15.729  70.715   6.972  1.00  0.00     0.015 A
BRANCH  22  25
HETATM   25  O3  UNL     1     -19.202  71.834   6.505  1.00  0.00    -0.361 OA
ATOM     26  H3  UNL     1     -19.713  71.628   7.279  1.00  0.00     0.217 HD
ENDBRANCH  22  25
ENDBRANCH   9  19
TORSDOF 5
ENDMDL