MODEL 3
REMARK VINA RESULT: -7.419834236      1.723      2.271
REMARK  2 active torsions:
REMARK  status: ('A' for Active; 'I' for Inactive)
REMARK    1  A    between atoms: N2_9  and  S1_10
REMARK    2  A    between atoms: S1_10  and  N3_13
ROOT
HETATM    1  O1  UNL     1      -8.301  72.620  -1.222  1.00  0.00    -0.247 OA
HETATM    2  C1  UNL     1      -9.282  71.871  -0.906  1.00  0.00     0.316 C
HETATM    3  N1  UNL     1      -9.918  70.978  -1.780  1.00  0.00    -0.341 N
ATOM      4  H1  UNL     1      -9.657  70.837  -2.756  1.00  0.00     0.164 HD
HETATM    5  C2  UNL     1     -10.994  70.286  -1.107  1.00  0.00     0.156 C
HETATM    6  C3  UNL     1     -10.849  70.661   0.364  1.00  0.00     0.059 C
HETATM    7  C4  UNL     1     -12.198  71.079   0.852  1.00  0.00     0.079 C
HETATM    8  C5  UNL     1     -12.491  70.755   2.272  1.00  0.00     0.085 C
HETATM    9  N2  UNL     1     -11.430  70.322   3.062  1.00  0.00    -0.253 N
HETATM   10  C12 UNL     1     -10.424  69.502   2.547  1.00  0.00     0.085 C
HETATM   11  C13 UNL     1     -10.293  69.452   1.066  1.00  0.00     0.079 C
HETATM   12  N4  UNL     1      -9.937  71.767   0.350  1.00  0.00    -0.332 N
ATOM     13  H4  UNL     1      -9.779  72.396   1.138  1.00  0.00     0.165 HD
ENDROOT
BRANCH   9  14
HETATM   14  S1  UNL     1     -11.339  70.829   4.657  1.00  0.00     0.326 S
HETATM   15  O2  UNL     1     -12.175  72.039   4.958  1.00  0.00    -0.182 OA
HETATM   16  O3  UNL     1     -11.864  69.730   5.564  1.00  0.00    -0.182 OA
BRANCH  14  17
HETATM   17  N3  UNL     1      -9.712  71.219   5.055  1.00  0.00    -0.294 N
HETATM   18  C6  UNL     1      -9.489  71.408   6.440  1.00  0.00     0.137 C
HETATM   19  C7  UNL     1      -8.406  70.529   7.015  1.00  0.00     0.021 C
HETATM   20  C8  UNL     1      -7.083  70.955   6.414  1.00  0.00     0.002 C
HETATM   21  C9  UNL     1      -7.176  70.804   4.930  1.00  0.00     0.002 C
HETATM   22  C10 UNL     1      -7.600  72.088   4.248  1.00  0.00     0.021 C
HETATM   23  C11 UNL     1      -9.100  72.171   4.193  1.00  0.00     0.137 C
ENDBRANCH  14  17
ENDBRANCH   9  14
TORSDOF 2
ENDMDL