MODEL 4
REMARK VINA RESULT: -5.646666566      1.997      7.609
REMARK  9 active torsions:
REMARK  status: ('A' for Active; 'I' for Inactive)
REMARK    1  A    between atoms: N3_4  and  C2_6
REMARK    2  A    between atoms: C3_8  and  N4_9
REMARK    3  A    between atoms: C4_13  and  N5_14
REMARK    4  A    between atoms: N5_14  and  C5_16
REMARK    5  A    between atoms: C5_16  and  N6_17
REMARK    6  A    between atoms: C5_16  and  C6_21
REMARK    7  A    between atoms: C7_22  and  C8_23
REMARK    8  A    between atoms: N7_24  and  O2_26
REMARK    9  A    between atoms: N9_32  and  N10_33
ROOT
HETATM    1  C5  UNL     1     -23.840  18.047  23.783  1.00  0.00     0.338 C
ENDROOT
BRANCH   1   2
HETATM    2  N5  UNL     1     -23.715  17.977  22.304  1.00  0.00    -0.344 N
ATOM      3  H5  UNL     1     -24.165  18.683  21.721  1.00  0.00     0.163 HD
BRANCH   2   4
HETATM    4  C4  UNL     1     -22.963  16.917  21.694  1.00  0.00     0.139 C
HETATM    5  C3  UNL     1     -22.902  15.606  22.390  1.00  0.00     0.389 C
HETATM    6  O1  UNL     1     -21.769  14.886  22.020  1.00  0.00    -0.319 OA
HETATM    7  C2  UNL     1     -21.802  14.666  20.624  1.00  0.00     0.320 C
HETATM    8  C10 UNL     1     -21.628  16.009  20.017  1.00  0.00     0.272 C
HETATM    9  N11 UNL     1     -22.353  17.091  20.570  1.00  0.00    -0.309 N
HETATM   10  O4  UNL     1     -20.840  16.168  19.023  1.00  0.00    -0.268 OA
ATOM     11  H11 UNL     1     -22.393  17.990  20.091  1.00  0.00     0.170 HD
BRANCH   5  12
HETATM   12  N4  UNL     1     -24.054  14.768  22.066  1.00  0.00    -0.046 N
ATOM     13  H43 UNL     1     -24.016  14.379  21.124  1.00  0.00     0.277 HD
ATOM     14  H42 UNL     1     -24.062  13.881  22.570  1.00  0.00     0.277 HD
ATOM     15  H41 UNL     1     -24.885  15.335  22.236  1.00  0.00     0.277 HD
ENDBRANCH   5  12
BRANCH   7  16
HETATM   16  N3  UNL     1     -20.757  13.747  20.277  1.00  0.00    -0.333 N
HETATM   17  C1  UNL     1     -20.900  12.462  20.292  1.00  0.00     0.199 C
HETATM   18  N1  UNL     1     -22.167  11.957  20.675  1.00  0.00    -0.067 NA
HETATM   19  N2  UNL     1     -19.796  11.652  19.929  1.00  0.00    -0.067 NA
ATOM     20  H3  UNL     1     -19.851  14.128  20.004  1.00  0.00     0.164 HD
ENDBRANCH   7  16
ENDBRANCH   2   4
ENDBRANCH   1   2
BRANCH   1  21
HETATM   21  N6  UNL     1     -25.169  18.508  24.028  1.00  0.00    -0.052 N
ATOM     22  H63 UNL     1     -25.888  17.954  23.563  1.00  0.00     0.277 HD
ATOM     23  H62 UNL     1     -25.491  18.344  24.982  1.00  0.00     0.277 HD
ATOM     24  H61 UNL     1     -25.166  19.491  23.757  1.00  0.00     0.277 HD
ENDBRANCH   1  21
BRANCH   1  25
HETATM   25  C6  UNL     1     -22.756  18.915  24.317  1.00  0.00     0.116 A
HETATM   26  C7  UNL     1     -22.640  20.278  24.355  1.00  0.00     0.082 A
HETATM   27  N8  UNL     1     -21.430  20.533  24.934  1.00  0.00    -0.304 N
HETATM   28  C9  UNL     1     -20.811  19.376  25.249  1.00  0.00     0.346 A
ATOM     29  H8  UNL     1     -21.049  21.463  25.105  1.00  0.00     0.171 HD
HETATM   30  O3  UNL     1     -19.684  19.224  25.793  1.00  0.00    -0.245 OA
HETATM   31  N9  UNL     1     -21.614  18.377  24.875  1.00  0.00    -0.210 N
BRANCH  26  32
HETATM   32  C8  UNL     1     -23.589  21.281  23.908  1.00  0.00     0.145 C
HETATM   33  N7  UNL     1     -23.357  22.179  23.034  1.00  0.00    -0.278 N
ATOM     34  H7  UNL     1     -24.147  22.798  22.848  1.00  0.00     0.193 HD
BRANCH  33  35
HETATM   35  O2  UNL     1     -22.267  22.455  22.319  1.00  0.00    -0.290 OA
ATOM     36  H2  UNL     1     -21.398  22.737  22.579  1.00  0.00     0.244 HD
ENDBRANCH  33  35
ENDBRANCH  26  32
BRANCH  31  37
HETATM   37  N10 UNL     1     -21.357  17.006  25.020  1.00  0.00    -0.334 N
ATOM     38 2H10 UNL     1     -21.732  16.394  25.745  1.00  0.00     0.177 HD
ATOM     39 1H10 UNL     1     -20.757  16.455  24.407  1.00  0.00     0.177 HD
ENDBRANCH  31  37
ENDBRANCH   1  25
TORSDOF 9
ENDMDL