MODEL 5
REMARK VINA RESULT: -5.197364789      3.063      7.642
REMARK  9 active torsions:
REMARK  status: ('A' for Active; 'I' for Inactive)
REMARK    1  A    between atoms: C3_5  and  O2_6
REMARK    2  A    between atoms: C3_5  and  C4_8
REMARK    3  A    between atoms: C4_8  and  O3_9
REMARK    4  A    between atoms: C4_8  and  N2_11
REMARK    5  A    between atoms: N2_11  and  C5_13
REMARK    6  A    between atoms: C8_20  and  N5_21
REMARK    7  A    between atoms: N5_21  and  C9_24
REMARK    8  A    between atoms: C9_24  and  O4_25
REMARK    9  A    between atoms: C9_24  and  N6_27
ROOT
HETATM    1  C1  UNL     1     -22.146  16.430  19.615  1.00  0.00     0.162 C
HETATM    2  N1  UNL     1     -21.875  15.991  20.972  1.00  0.00    -0.294 N
HETATM    3  C2  UNL     1     -22.390  16.725  22.070  1.00  0.00     0.269 C
HETATM    4  O1  UNL     1     -23.396  17.451  21.931  1.00  0.00    -0.269 OA
HETATM    5  C3  UNL     1     -21.660  16.572  23.369  1.00  0.00     0.229 C
HETATM    6  C8  UNL     1     -21.338  15.123  23.631  1.00  0.00     0.340 C
HETATM    7  N7  UNL     1     -20.887  14.486  22.446  1.00  0.00    -0.333 N
ATOM      8  H7  UNL     1     -20.322  13.646  22.576  1.00  0.00     0.164 HD
HETATM    9  C12 UNL     1     -21.101  14.834  21.241  1.00  0.00     0.194 C
HETATM   10  N8  UNL     1     -20.590  14.107  20.123  1.00  0.00    -0.063 NA
ENDROOT
BRANCH   5  11
HETATM   11  O2  UNL     1     -20.455  17.260  23.209  1.00  0.00    -0.373 OA
ATOM     12  H2  UNL     1     -20.361  17.797  23.987  1.00  0.00     0.211 HD
ENDBRANCH   5  11
BRANCH   5  13
HETATM   13  C4  UNL     1     -22.432  17.239  24.459  1.00  0.00     0.268 C
BRANCH  13  14
HETATM   14  O3  UNL     1     -23.765  16.787  24.339  1.00  0.00    -0.373 OA
ATOM     15  H3  UNL     1     -24.320  17.544  24.487  1.00  0.00     0.212 HD
ENDBRANCH  13  14
BRANCH  13  16
HETATM   16  N2  UNL     1     -22.494  18.685  24.280  1.00  0.00    -0.333 N
ATOM     17  H2  UNL     1     -23.159  19.075  23.611  1.00  0.00     0.165 HD
BRANCH  16  18
HETATM   18  C5  UNL     1     -21.651  19.565  25.013  1.00  0.00     0.173 C
HETATM   19  N3  UNL     1     -20.435  19.262  25.326  1.00  0.00    -0.361 N
HETATM   20  C6  UNL     1     -19.815  20.344  26.071  1.00  0.00     0.142 C
ATOM     21  H3  UNL     1     -19.974  18.385  25.083  1.00  0.00     0.162 HD
HETATM   22  C7  UNL     1     -20.960  21.268  26.433  1.00  0.00     0.142 C
HETATM   23  N4  UNL     1     -21.998  20.837  25.486  1.00  0.00    -0.361 N
ATOM     24  H4  UNL     1     -22.826  21.370  25.221  1.00  0.00     0.162 HD
ENDBRANCH  16  18
ENDBRANCH  13  16
ENDBRANCH   5  13
BRANCH   6  25
HETATM   25  N5  UNL     1     -22.501  14.486  24.217  1.00  0.00     0.004 N
ATOM     26  H52 UNL     1     -23.102  15.150  24.704  1.00  0.00     0.285 HD
ATOM     27  H51 UNL     1     -23.171  14.177  23.512  1.00  0.00     0.285 HD
BRANCH  25  28
HETATM   28  C9  UNL     1     -22.061  13.385  25.091  1.00  0.00     0.560 C
BRANCH  28  29
HETATM   29  O4  UNL     1     -20.662  13.241  24.955  1.00  0.00    -0.347 OA
ATOM     30  H4  UNL     1     -20.273  14.106  24.910  1.00  0.00     0.214 HD
ENDBRANCH  28  29
BRANCH  28  31
HETATM   31  N6  UNL     1     -22.282  13.849  26.448  1.00  0.00     0.136 N
HETATM   32  C10 UNL     1     -23.651  14.151  26.731  1.00  0.00     0.315 C
HETATM   33  C11 UNL     1     -21.619  13.065  27.438  1.00  0.00     0.315 C
ENDBRANCH  28  31
ENDBRANCH  25  28
ENDBRANCH   6  25
TORSDOF 9
ENDMDL