MODEL 3
REMARK VINA RESULT: -4.538731052      1.436      1.749
REMARK  10 active torsions:
REMARK  status: ('A' for Active; 'I' for Inactive)
REMARK    1  A    between atoms: N1_1  and  C1_5
REMARK    2  A    between atoms: C1_5  and  O1_6
REMARK    3  A    between atoms: C1_5  and  C2_8
REMARK    4  A    between atoms: C2_8  and  N2_9
REMARK    5  A    between atoms: C2_8  and  C3_13
REMARK    6  A    between atoms: C2_8  and  C5_21
REMARK    7  A    between atoms: C3_13  and  O2_14
REMARK    8  A    between atoms: C3_13  and  C4_16
REMARK    9  A    between atoms: C4_16  and  O3_17
REMARK   10  A    between atoms: C4_16  and  O4_19
ROOT
HETATM    1  C2  UNL     1     -24.017  17.130  18.248  1.00  0.00     0.219 C
ENDROOT
BRANCH   1   2
HETATM    2  C1  UNL     1     -24.554  16.734  16.908  1.00  0.00     0.356 C
BRANCH   2   3
HETATM    3  N1  UNL     1     -25.695  17.426  16.435  1.00  0.00    -0.050 N
ATOM      4  H13 UNL     1     -25.714  18.372  16.815  1.00  0.00     0.277 HD
ATOM      5  H12 UNL     1     -25.593  17.633  15.442  1.00  0.00     0.277 HD
ATOM      6  H11 UNL     1     -26.588  16.962  16.607  1.00  0.00     0.277 HD
ENDBRANCH   2   3
BRANCH   2   7
HETATM    7  O1  UNL     1     -23.490  16.661  16.013  1.00  0.00    -0.368 OA
ATOM      8  H1  UNL     1     -23.061  15.815  15.961  1.00  0.00     0.212 HD
ENDBRANCH   2   7
ENDBRANCH   1   2
BRANCH   1   9
HETATM    9  N2  UNL     1     -25.262  17.242  19.076  1.00  0.00    -0.062 N
ATOM     10  H23 UNL     1     -26.132  17.089  18.566  1.00  0.00     0.275 HD
ATOM     11  H22 UNL     1     -25.403  16.484  19.743  1.00  0.00     0.275 HD
ATOM     12  H21 UNL     1     -25.167  18.169  19.492  1.00  0.00     0.275 HD
ENDBRANCH   1   9
BRANCH   1  13
HETATM   13  C3  UNL     1     -23.484  18.543  18.312  1.00  0.00     0.214 C
BRANCH  13  14
HETATM   14  O2  UNL     1     -23.319  19.151  17.079  1.00  0.00    -0.388 OA
ATOM     15  H2  UNL     1     -23.065  18.560  16.380  1.00  0.00     0.210 HD
ENDBRANCH  13  14
BRANCH  13  16
HETATM   16  C4  UNL     1     -24.368  19.494  19.091  1.00  0.00     0.285 C
BRANCH  16  17
HETATM   17  O3  UNL     1     -24.120  20.772  18.519  1.00  0.00    -0.369 OA
ATOM     18  H3  UNL     1     -24.981  21.127  18.335  1.00  0.00     0.212 HD
ENDBRANCH  16  17
BRANCH  16  19
HETATM   19  O4  UNL     1     -24.018  19.639  20.422  1.00  0.00    -0.369 OA
ATOM     20  H4  UNL     1     -24.606  20.190  20.925  1.00  0.00     0.212 HD
ENDBRANCH  16  19
ENDBRANCH  13  16
ENDBRANCH   1  13
BRANCH   1  21
HETATM   21  C5  UNL     1     -23.224  16.103  18.939  1.00  0.00     0.142 C
HETATM   22  S1  UNL     1     -24.347  14.740  19.465  1.00  0.00    -0.085 SA
HETATM   23  S2  UNL     1     -22.926  13.160  19.891  1.00  0.00    -0.054 SA
HETATM   24  C6  UNL     1     -21.480  14.092  20.525  1.00  0.00     0.350 C
HETATM   25  N3  UNL     1     -21.176  15.245  19.766  1.00  0.00    -0.039 N
HETATM   26  C9  UNL     1     -21.767  14.314  21.959  1.00  0.00     0.266 C
HETATM   27  C7  UNL     1     -22.173  16.356  19.902  1.00  0.00     0.296 C
ATOM     28  H32 UNL     1     -20.238  15.580  19.986  1.00  0.00     0.280 HD
ATOM     29  H31 UNL     1     -21.048  15.001  18.784  1.00  0.00     0.280 HD
HETATM   30  C8  UNL     1     -22.438  16.584  21.315  1.00  0.00     0.256 C
HETATM   31  O5  UNL     1     -22.592  17.719  21.822  1.00  0.00    -0.271 OA
HETATM   32  N4  UNL     1     -22.538  15.487  22.251  1.00  0.00    -0.293 N
ATOM     33  H4  UNL     1     -23.129  15.545  23.081  1.00  0.00     0.171 HD
HETATM   34  O6  UNL     1     -21.344  13.510  22.801  1.00  0.00    -0.270 OA
ENDBRANCH   1  21
TORSDOF 10
ENDMDL