MODEL 1
REMARK VINA RESULT: -5.293258662      0.000      0.000
REMARK  13 active torsions:
REMARK  status: ('A' for Active; 'I' for Inactive)
REMARK    1  A    between atoms: N2_3  and  C2_5
REMARK    2  A    between atoms: C2_5  and  O1_7
REMARK    3  A    between atoms: O1_7  and  N3_8
REMARK    4  A    between atoms: C4_11  and  O2_12
REMARK    5  A    between atoms: C5_15  and  C6_16
REMARK    6  A    between atoms: C6_16  and  O4_17
REMARK    7  A    between atoms: C6_16  and  C7_19
REMARK    8  A    between atoms: C7_19  and  N4_20
REMARK    9  A    between atoms: C7_19  and  C8_24
REMARK   10  A    between atoms: C8_24  and  C9_26
REMARK   11  A    between atoms: C9_26  and  O6_27
REMARK   12  A    between atoms: C9_26  and  O7_29
REMARK   13  A    between atoms: C10_31  and  N5_32
ROOT
HETATM    1  N1  UNL     1     -19.637  20.575  26.109  1.00  0.00    -0.172 NA
HETATM    2  C1  UNL     1     -20.256  19.731  25.616  1.00  0.00     0.184 C
HETATM    3  N2  UNL     1     -21.018  18.727  25.011  1.00  0.00    -0.263 N
ATOM      4  H2  UNL     1     -20.639  17.781  24.962  1.00  0.00     0.181 HD
ENDROOT
BRANCH   3   5
HETATM    5  C2  UNL     1     -22.300  18.981  24.465  1.00  0.00     0.248 C
HETATM    6  S1  UNL     1     -23.391  19.764  25.388  1.00  0.00    -0.030 SA
BRANCH   5   7
HETATM    7  O1  UNL     1     -22.624  18.582  23.193  1.00  0.00    -0.207 OA
BRANCH   7   8
HETATM    8  N3  UNL     1     -23.377  17.467  22.979  1.00  0.00    -0.259 N
HETATM    9  C3  UNL     1     -22.866  16.486  22.361  1.00  0.00     0.098 C
HETATM   10  C4  UNL     1     -21.497  16.341  21.796  1.00  0.00     0.308 C
HETATM   11  C10 UNL     1     -23.473  15.160  22.001  1.00  0.00     0.267 C
HETATM   12  O3  UNL     1     -21.254  14.991  21.657  1.00  0.00    -0.346 OA
HETATM   13  C5  UNL     1     -22.290  14.303  22.267  1.00  0.00     0.192 C
ATOM     14  H3  UNL     1     -24.340  17.422  23.311  1.00  0.00     0.194 HD
BRANCH  10  15
HETATM   15  O2  UNL     1     -21.529  16.890  20.502  1.00  0.00    -0.366 OA
ATOM     16  H2  UNL     1     -20.865  16.437  19.994  1.00  0.00     0.213 HD
ENDBRANCH  10  15
BRANCH  13  17
HETATM   17  C6  UNL     1     -22.361  12.902  21.804  1.00  0.00     0.187 C
BRANCH  17  18
HETATM   18  O4  UNL     1     -22.369  12.895  20.410  1.00  0.00    -0.390 OA
ATOM     19  H4  UNL     1     -22.385  11.993  20.113  1.00  0.00     0.210 HD
ENDBRANCH  17  18
BRANCH  17  20
HETATM   20  C7  UNL     1     -21.294  11.987  22.268  1.00  0.00     0.288 C
BRANCH  20  21
HETATM   21  N4  UNL     1     -20.241  12.663  22.993  1.00  0.00    -0.066 N
ATOM     22  H43 UNL     1     -19.833  13.410  22.429  1.00  0.00     0.275 HD
ATOM     23  H42 UNL     1     -20.626  13.220  23.756  1.00  0.00     0.275 HD
ATOM     24  H41 UNL     1     -19.518  12.030  23.334  1.00  0.00     0.275 HD
ENDBRANCH  20  21
BRANCH  20  25
HETATM   25  C8  UNL     1     -20.770  11.248  21.083  1.00  0.00     0.213 C
HETATM   26  O5  UNL     1     -21.341  10.201  20.811  1.00  0.00    -0.290 OA
BRANCH  25  27
HETATM   27  C9  UNL     1     -19.658  11.662  20.239  1.00  0.00     0.327 C
BRANCH  27  28
HETATM   28  O6  UNL     1     -19.311  12.981  20.305  1.00  0.00    -0.365 OA
ATOM     29  H6  UNL     1     -18.583  13.250  19.758  1.00  0.00     0.213 HD
ENDBRANCH  27  28
BRANCH  27  30
HETATM   30  O7  UNL     1     -19.945  11.363  18.897  1.00  0.00    -0.365 OA
ATOM     31  H7  UNL     1     -19.847  12.144  18.366  1.00  0.00     0.213 HD
ENDBRANCH  27  30
ENDBRANCH  25  27
ENDBRANCH  20  25
ENDBRANCH  17  20
ENDBRANCH  13  17
BRANCH  11  32
HETATM   32  N5  UNL     1     -23.846  15.283  20.634  1.00  0.00    -0.067 N
ATOM     33  H53 UNL     1     -24.177  16.214  20.379  1.00  0.00     0.275 HD
ATOM     34  H52 UNL     1     -23.058  15.257  19.988  1.00  0.00     0.275 HD
ATOM     35  H51 UNL     1     -24.532  14.544  20.478  1.00  0.00     0.275 HD
ENDBRANCH  11  32
ENDBRANCH   7   8
ENDBRANCH   5   7
ENDBRANCH   3   5
TORSDOF 13
ENDMDL