MODEL 1
REMARK VINA RESULT: -5.187175075      0.000      0.000
REMARK  10 active torsions:
REMARK  status: ('A' for Active; 'I' for Inactive)
REMARK       I    between atoms: C2_2  and  N1_4
REMARK       I    between atoms: N1_4  and  C3_6
REMARK    1  A    between atoms: C3_6  and  C4_8
REMARK    2  A    between atoms: C5_9  and  N2_10
REMARK    3  A    between atoms: N2_10  and  N3_11
REMARK    4  A    between atoms: N2_10  and  O5_21
REMARK    5  A    between atoms: N3_11  and  S1_13
REMARK    6  A    between atoms: S1_13  and  N4_16
REMARK    7  A    between atoms: N4_16  and  N5_18
REMARK    8  A    between atoms: O5_21  and  N6_22
REMARK    9  A    between atoms: C6_28  and  C7_29
REMARK   10  A    between atoms: C7_29  and  O6_30
ROOT
HETATM    1  C4  UNL     1     -22.832  15.268  20.902  1.00  0.00     0.174 C
HETATM    2  C5  UNL     1     -23.050  15.764  19.536  1.00  0.00     0.158 C
HETATM    3  N7  UNL     1     -22.752  17.014  19.513  1.00  0.00    -0.288 N
ATOM      4  H7  UNL     1     -22.810  17.615  18.691  1.00  0.00     0.183 HD
HETATM    5  N8  UNL     1     -22.331  17.434  20.800  1.00  0.00    -0.132 NA
HETATM    6  C6  UNL     1     -21.701  16.217  21.328  1.00  0.00     0.143 C
ENDROOT
BRANCH   2   7
HETATM    7  N2  UNL     1     -23.503  15.074  18.374  1.00  0.00    -0.111 N
BRANCH   7   8
HETATM    8  N3  UNL     1     -24.645  15.515  17.700  1.00  0.00    -0.179 N
ATOM      9  H3  UNL     1     -25.599  15.300  17.987  1.00  0.00     0.204 HD
BRANCH   8  10
HETATM   10  S1  UNL     1     -24.241  16.469  16.321  1.00  0.00     0.351 S
HETATM   11  O3  UNL     1     -25.393  16.706  15.419  1.00  0.00    -0.179 OA
HETATM   12  O4  UNL     1     -23.721  17.968  16.894  1.00  0.00    -0.179 OA
BRANCH  10  13
HETATM   13  N4  UNL     1     -23.093  15.806  15.484  1.00  0.00    -0.215 N
ATOM     14  H4  UNL     1     -23.289  15.184  14.700  1.00  0.00     0.201 HD
BRANCH  13  15
HETATM   15  N5  UNL     1     -21.787  16.114  15.873  1.00  0.00    -0.335 N
ATOM     16  H52 UNL     1     -20.992  15.868  15.284  1.00  0.00     0.177 HD
ATOM     17  H51 UNL     1     -21.684  16.593  16.768  1.00  0.00     0.177 HD
ENDBRANCH  13  15
ENDBRANCH  10  13
ENDBRANCH   8  10
ENDBRANCH   7   8
BRANCH   7  18
HETATM   18  O5  UNL     1     -22.873  13.988  17.873  1.00  0.00    -0.139 OA
BRANCH  18  19
HETATM   19  N6  UNL     1     -23.694  12.924  17.743  1.00  0.00    -0.284 N
ATOM     20  H62 UNL     1     -23.366  11.960  17.813  1.00  0.00     0.186 HD
ATOM     21  H61 UNL     1     -24.663  13.193  17.571  1.00  0.00     0.186 HD
ENDBRANCH  18  19
ENDBRANCH   7  18
ENDBRANCH   2   7
BRANCH   1  22
HETATM   22  C3  UNL     1     -22.494  13.865  21.001  1.00  0.00     0.237 C
HETATM   23  N1  UNL     1     -21.247  13.389  20.533  1.00  0.00    -0.297 N
HETATM   24  C2  UNL     1     -20.872  12.019  20.597  1.00  0.00     0.220 C
ATOM     25  H1  UNL     1     -20.589  14.057  20.132  1.00  0.00     0.171 HD
HETATM   26  C1  UNL     1     -19.569  11.551  20.103  1.00  0.00     0.117 C
HETATM   27  O1  UNL     1     -21.682  11.199  21.089  1.00  0.00    -0.274 OA
HETATM   28  O2  UNL     1     -23.296  13.042  21.500  1.00  0.00    -0.272 OA
ENDBRANCH   1  22
BRANCH   6  29
HETATM   29  C7  UNL     1     -21.517  16.261  22.798  1.00  0.00     0.188 C
BRANCH  29  30
HETATM   30  O6  UNL     1     -20.558  17.183  23.204  1.00  0.00    -0.399 OA
ATOM     31  H6  UNL     1     -20.335  17.111  24.125  1.00  0.00     0.209 HD
ENDBRANCH  29  30
ENDBRANCH   6  29
TORSDOF 10
ENDMDL