MODEL 5
REMARK VINA RESULT: -5.548966929      1.739      2.199
REMARK  8 active torsions:
REMARK  status: ('A' for Active; 'I' for Inactive)
REMARK    1  A    between atoms: N1_1  and  N2_4
REMARK       I    between atoms: N2_4  and  C1_6
REMARK    2  A    between atoms: C1_6  and  C2_8
REMARK    3  A    between atoms: C2_8  and  N3_9
REMARK    4  A    between atoms: N3_9  and  C3_11
REMARK    5  A    between atoms: C3_11  and  O2_12
REMARK    6  A    between atoms: C7_21  and  S1_22
REMARK    7  A    between atoms: C8_26  and  O7_27
REMARK    8  A    between atoms: N5_29  and  O8_30
ROOT
HETATM    1  C3  UNL     1     -21.402  17.487  23.799  1.00  0.00     0.340 C
HETATM    2  O3  UNL     1     -21.183  16.225  24.444  1.00  0.00    -0.321 OA
HETATM    3  C4  UNL     1     -22.261  15.465  24.011  1.00  0.00     0.207 C
HETATM    4  C5  UNL     1     -22.256  15.779  22.544  1.00  0.00     0.120 C
HETATM    5  C6  UNL     1     -23.477  15.276  21.837  1.00  0.00     0.266 C
HETATM    6  N4  UNL     1     -23.178  13.961  21.332  1.00  0.00    -0.050 N
ATOM      7  H41 UNL     1     -23.314  13.881  20.324  1.00  0.00     0.279 HD
ATOM      8  H42 UNL     1     -23.864  13.260  21.614  1.00  0.00     0.279 HD
HETATM    9  C7  UNL     1     -21.853  13.637  21.741  1.00  0.00     0.358 C
HETATM   10  C8  UNL     1     -21.172  14.977  21.854  1.00  0.00     0.195 C
HETATM   11  N5  UNL     1     -22.023  17.174  22.524  1.00  0.00    -0.104 NA
ENDROOT
BRANCH   1  12
HETATM   12  N3  UNL     1     -22.241  18.207  24.677  1.00  0.00    -0.325 N
ATOM     13  H3  UNL     1     -23.162  17.839  24.916  1.00  0.00     0.165 HD
BRANCH  12  14
HETATM   14  C2  UNL     1     -21.812  19.430  25.223  1.00  0.00     0.165 C
BRANCH  14  15
HETATM   15  C1  UNL     1     -22.462  20.609  24.591  1.00  0.00     0.274 C
HETATM   16  N2  UNL     1     -22.685  21.809  25.340  1.00  0.00    -0.272 N
ATOM     17  H2  UNL     1     -22.405  21.873  26.318  1.00  0.00     0.189 HD
HETATM   18  O1  UNL     1     -22.843  20.609  23.390  1.00  0.00    -0.265 OA
BRANCH  16  19
HETATM   19  N1  UNL     1     -23.290  22.881  24.702  1.00  0.00    -0.342 N
ATOM     20  H12 UNL     1     -24.288  23.051  24.831  1.00  0.00     0.176 HD
ATOM     21  H11 UNL     1     -22.715  23.483  24.112  1.00  0.00     0.176 HD
ENDBRANCH  16  19
ENDBRANCH  14  15
ENDBRANCH  12  14
ENDBRANCH   1  12
BRANCH   1  22
HETATM   22  O2  UNL     1     -20.138  17.958  23.567  1.00  0.00    -0.334 OA
ATOM     23  H2  UNL     1     -19.414  17.342  23.580  1.00  0.00     0.216 HD
ENDBRANCH   1  22
BRANCH  11  24
HETATM   24  O8  UNL     1     -23.077  17.925  22.217  1.00  0.00    -0.306 OA
ATOM     25  H8  UNL     1     -23.043  18.813  22.552  1.00  0.00     0.237 HD
ENDBRANCH  11  24
BRANCH  10  26
HETATM   26  O7  UNL     1     -19.986  14.944  22.553  1.00  0.00    -0.390 OA
ATOM     27  H7  UNL     1     -19.626  15.805  22.729  1.00  0.00     0.210 HD
ENDBRANCH  10  26
BRANCH   9  28
HETATM   28  S1  UNL     1     -20.995  12.616  20.565  1.00  0.00     0.136 S
HETATM   29  O4  UNL     1     -21.817  12.367  19.364  1.00  0.00    -0.593 OA
HETATM   30  O5  UNL     1     -20.686  11.306  21.281  1.00  0.00    -0.593 OA
HETATM   31  O6  UNL     1     -19.511  13.329  20.246  1.00  0.00    -0.593 OA
ENDBRANCH   9  28
TORSDOF 8
ENDMDL