MODEL 3
REMARK VINA RESULT: -5.916858309      4.279      6.934
REMARK  8 active torsions:
REMARK  status: ('A' for Active; 'I' for Inactive)
REMARK    1  A    between atoms: N1_1  and  C1_4
REMARK    2  A    between atoms: N5_14  and  C4_15
REMARK    3  A    between atoms: C5_17  and  C6_18
REMARK       I    between atoms: C6_18  and  N6_20
REMARK    4  A    between atoms: N6_20  and  C7_22
REMARK    5  A    between atoms: C7_22  and  C8_23
REMARK    6  A    between atoms: C8_23  and  O4_24
REMARK    7  A    between atoms: C8_23  and  O5_26
REMARK    8  A    between atoms: C9_30  and  O6_31
ROOT
HETATM    1  C4  UNL     1     -21.539  16.126  24.161  1.00  0.00     0.304 C
HETATM    2  O2  UNL     1     -21.199  16.237  22.699  1.00  0.00    -0.299 OA
HETATM    3  C5  UNL     1     -21.091  14.971  22.389  1.00  0.00     0.212 C
HETATM    4  N7  UNL     1     -22.457  14.472  22.829  1.00  0.00    -0.336 N
ATOM      5  H7  UNL     1     -23.203  14.015  22.306  1.00  0.00     0.164 HD
HETATM    6  C9  UNL     1     -22.366  14.852  24.232  1.00  0.00     0.271 C
ENDROOT
BRANCH   1   7
HETATM    7  N5  UNL     1     -22.358  17.237  24.541  1.00  0.00    -0.225 N
HETATM    8  N4  UNL     1     -23.681  17.329  24.550  1.00  0.00    -0.236 N
HETATM    9  N3  UNL     1     -23.974  18.547  24.956  1.00  0.00    -0.278 N
ATOM     10  H4  UNL     1     -24.343  16.598  24.292  1.00  0.00     0.208 HD
HETATM   11  C3  UNL     1     -22.874  19.251  25.214  1.00  0.00     0.164 A
ATOM     12  H3  UNL     1     -24.923  18.905  25.060  1.00  0.00     0.189 HD
HETATM   13  C2  UNL     1     -22.609  20.530  25.644  1.00  0.00     0.291 A
HETATM   14  C10 UNL     1     -21.793  18.403  24.949  1.00  0.00     0.175 A
HETATM   15  N2  UNL     1     -21.338  20.950  25.802  1.00  0.00    -0.154 N
HETATM   16  O1  UNL     1     -23.580  21.303  25.884  1.00  0.00    -0.265 OA
HETATM   17  C1  UNL     1     -20.294  20.133  25.543  1.00  0.00     0.680 A
ATOM     18  H2  UNL     1     -21.162  21.902  26.123  1.00  0.00     0.187 HD
HETATM   19  N8  UNL     1     -20.557  18.870  25.124  1.00  0.00    -0.173 N
ATOM     20  H8  UNL     1     -19.771  18.247  24.935  1.00  0.00     0.186 HD
BRANCH  17  21
HETATM   21  N1  UNL     1     -19.114  20.607  25.710  1.00  0.00    -0.234 N
ATOM     22  H12 UNL     1     -18.885  21.364  26.355  1.00  0.00     0.174 HD
ATOM     23  H11 UNL     1     -18.359  20.198  25.162  1.00  0.00     0.174 HD
ENDBRANCH  17  21
ENDBRANCH   1   7
BRANCH   6  24
HETATM   24  O6  UNL     1     -21.661  13.832  24.928  1.00  0.00    -0.372 OA
ATOM     25  H6  UNL     1     -20.804  13.692  24.544  1.00  0.00     0.212 HD
ENDBRANCH   6  24
BRANCH   3  26
HETATM   26  C6  UNL     1     -20.675  14.211  21.274  1.00  0.00     0.292 C
HETATM   27  O3  UNL     1     -20.706  14.582  20.093  1.00  0.00    -0.264 OA
HETATM   28  N6  UNL     1     -20.128  12.885  21.536  1.00  0.00    -0.349 N
ATOM     29  H6  UNL     1     -20.106  12.561  22.503  1.00  0.00     0.163 HD
BRANCH  28  30
HETATM   30  C7  UNL     1     -19.628  12.019  20.542  1.00  0.00     0.183 C
BRANCH  30  31
HETATM   31  C8  UNL     1     -20.511  11.078  19.818  1.00  0.00     0.271 C
BRANCH  31  32
HETATM   32  O4  UNL     1     -21.631  11.868  19.363  1.00  0.00    -0.370 OA
ATOM     33  H4  UNL     1     -22.155  12.039  20.137  1.00  0.00     0.212 HD
ENDBRANCH  31  32
BRANCH  31  34
HETATM   34  O5  UNL     1     -21.074  10.067  20.531  1.00  0.00    -0.370 OA
ATOM     35  H5  UNL     1     -21.529   9.387  20.047  1.00  0.00     0.212 HD
ENDBRANCH  31  34
ENDBRANCH  30  31
ENDBRANCH  28  30
ENDBRANCH   3  26
TORSDOF 8
ENDMDL