MODEL 2
REMARK VINA RESULT: -5.178815970      4.340      8.328
REMARK  9 active torsions:
REMARK  status: ('A' for Active; 'I' for Inactive)
REMARK    1  A    between atoms: N1_1  and  N2_4
REMARK       I    between atoms: N2_4  and  C1_6
REMARK    2  A    between atoms: C1_6  and  C2_8
REMARK    3  A    between atoms: C2_8  and  O2_9
REMARK    4  A    between atoms: C2_8  and  C11_31
REMARK    5  A    between atoms: O2_9  and  N3_10
REMARK    6  A    between atoms: C11_31  and  O3_32
REMARK    7  A    between atoms: C11_31  and  C12_34
REMARK    8  A    between atoms: C12_34  and  O4_35
REMARK    9  A    between atoms: C12_34  and  O5_37
ROOT
HETATM    1  N3  UNL     1     -21.643  16.018  19.063  1.00  0.00    -0.252 N
ATOM      2  H3  UNL     1     -21.317  16.984  19.058  1.00  0.00     0.196 HD
HETATM    3  C3  UNL     1     -22.572  15.725  18.230  1.00  0.00     0.123 C
HETATM    4  C4  UNL     1     -23.064  16.846  17.350  1.00  0.00     0.309 C
HETATM    5  N4  UNL     1     -24.310  17.394  17.855  1.00  0.00    -0.067 N
ATOM      6  H41 UNL     1     -24.156  18.234  18.413  1.00  0.00     0.277 HD
ATOM      7  H42 UNL     1     -24.719  16.803  18.578  1.00  0.00     0.277 HD
HETATM    8  C5  UNL     1     -25.237  17.634  16.763  1.00  0.00     0.260 C
HETATM    9  C6  UNL     1     -26.649  17.350  17.171  1.00  0.00     0.259 C
HETATM   10  N5  UNL     1     -26.730  16.420  18.281  1.00  0.00    -0.072 N
ATOM     11  H51 UNL     1     -26.927  16.894  19.163  1.00  0.00     0.277 HD
ATOM     12  H52 UNL     1     -25.819  16.031  18.520  1.00  0.00     0.277 HD
HETATM   13  C7  UNL     1     -27.703  15.385  17.993  1.00  0.00     0.259 C
HETATM   14  C8  UNL     1     -27.074  14.265  17.199  1.00  0.00     0.259 C
HETATM   15  N6  UNL     1     -25.767  13.981  17.791  1.00  0.00    -0.072 N
ATOM     16  H61 UNL     1     -25.860  13.489  18.679  1.00  0.00     0.277 HD
ATOM     17  H62 UNL     1     -25.318  14.834  18.129  1.00  0.00     0.277 HD
HETATM   18  C9  UNL     1     -24.910  13.261  16.877  1.00  0.00     0.251 C
HETATM   19  C10 UNL     1     -23.497  13.787  16.867  1.00  0.00     0.148 C
HETATM   20  N7  UNL     1     -23.136  14.428  18.113  1.00  0.00    -0.375 N
ATOM     21  H7  UNL     1     -23.300  13.907  18.975  1.00  0.00     0.160 HD
ENDROOT
BRANCH   1  22
HETATM   22  O2  UNL     1     -21.050  15.189  19.943  1.00  0.00    -0.261 OA
BRANCH  22  23
HETATM   23  C2  UNL     1     -21.674  14.833  21.204  1.00  0.00     0.279 C
BRANCH  23  24
HETATM   24  C1  UNL     1     -21.653  15.979  22.121  1.00  0.00     0.270 C
HETATM   25  N2  UNL     1     -21.475  15.799  23.516  1.00  0.00    -0.274 N
ATOM     26  H2  UNL     1     -21.360  14.848  23.864  1.00  0.00     0.189 HD
HETATM   27  O1  UNL     1     -21.791  17.155  21.720  1.00  0.00    -0.269 OA
BRANCH  25  28
HETATM   28  N1  UNL     1     -21.446  16.830  24.432  1.00  0.00    -0.343 N
ATOM     29  H12 UNL     1     -21.004  17.700  24.133  1.00  0.00     0.176 HD
ATOM     30  H11 UNL     1     -21.835  16.770  25.373  1.00  0.00     0.176 HD
ENDBRANCH  25  28
ENDBRANCH  23  24
BRANCH  23  31
HETATM   31  C11 UNL     1     -20.850  13.644  21.661  1.00  0.00     0.213 C
BRANCH  31  32
HETATM   32  O3  UNL     1     -19.605  14.200  22.082  1.00  0.00    -0.387 OA
ATOM     33  H3  UNL     1     -19.814  14.710  22.856  1.00  0.00     0.210 HD
ENDBRANCH  31  32
BRANCH  31  34
HETATM   34  C12 UNL     1     -20.525  12.651  20.604  1.00  0.00     0.285 C
BRANCH  34  35
HETATM   35  O4  UNL     1     -19.287  12.849  19.995  1.00  0.00    -0.369 OA
ATOM     36  H4  UNL     1     -19.027  13.761  19.929  1.00  0.00     0.212 HD
ENDBRANCH  34  35
BRANCH  34  37
HETATM   37  O5  UNL     1     -21.524  12.357  19.709  1.00  0.00    -0.369 OA
ATOM     38  H5  UNL     1     -21.855  11.467  19.719  1.00  0.00     0.212 HD
ENDBRANCH  34  37
ENDBRANCH  31  34
ENDBRANCH  23  31
ENDBRANCH  22  23
ENDBRANCH   1  22
TORSDOF 9
ENDMDL