MODEL 4
REMARK VINA RESULT: -5.059225482      2.363      5.714
REMARK  11 active torsions:
REMARK  status: ('A' for Active; 'I' for Inactive)
REMARK    1  A    between atoms: N1_1  and  N2_4
REMARK    2  A    between atoms: N2_4  and  C1_6
REMARK    3  A    between atoms: C1_6  and  O1_7
REMARK    4  A    between atoms: C1_6  and  C2_9
REMARK    5  A    between atoms: C3_10  and  C4_11
REMARK    6  A    between atoms: C5_16  and  C6_17
REMARK    7  A    between atoms: N5_23  and  O6_24
REMARK    8  A    between atoms: C8_26  and  O7_27
REMARK    9  A    between atoms: C9_29  and  C10_30
REMARK   10  A    between atoms: C10_30  and  O8_31
REMARK   11  A    between atoms: C10_30  and  O9_33
ROOT
HETATM    1  C2  UNL     1     -22.081  15.524  24.521  1.00  0.00     0.077 C
HETATM    2  C3  UNL     1     -21.472  16.625  24.117  1.00  0.00     0.124 C
HETATM    3  N3  UNL     1     -20.879  16.315  22.778  1.00  0.00    -0.356 N
ATOM      4  H3  UNL     1     -20.038  16.709  22.357  1.00  0.00     0.162 HD
HETATM    5  C5  UNL     1     -21.767  15.340  22.228  1.00  0.00     0.198 A
HETATM    6  C7  UNL     1     -21.814  14.474  23.473  1.00  0.00     0.089 A
HETATM    7  N4  UNL     1     -21.670  13.215  23.443  1.00  0.00    -0.272 N
ATOM      8  H4  UNL     1     -21.747  12.688  24.313  1.00  0.00     0.189 HD
HETATM    9  N5  UNL     1     -21.407  12.518  22.245  1.00  0.00    -0.139 N
HETATM   10  C8  UNL     1     -21.307  13.278  21.051  1.00  0.00     0.196 A
HETATM   11  C9  UNL     1     -21.471  14.614  21.039  1.00  0.00     0.073 A
ENDROOT
BRANCH   1  12
HETATM   12  C1  UNL     1     -22.837  15.188  25.700  1.00  0.00     0.169 C
BRANCH  12  13
HETATM   13  N2  UNL     1     -23.971  15.732  26.266  1.00  0.00    -0.286 N
ATOM     14  H2  UNL     1     -24.199  15.594  27.250  1.00  0.00     0.188 HD
BRANCH  13  15
HETATM   15  N1  UNL     1     -24.823  16.516  25.382  1.00  0.00    -0.343 N
ATOM     16  H12 UNL     1     -25.596  17.068  25.753  1.00  0.00     0.176 HD
ATOM     17  H11 UNL     1     -24.601  16.477  24.387  1.00  0.00     0.176 HD
ENDBRANCH  13  15
ENDBRANCH  12  13
BRANCH  12  18
HETATM   18  O1  UNL     1     -22.364  14.161  26.384  1.00  0.00    -0.344 OA
ATOM     19  H1  UNL     1     -21.823  14.424  27.119  1.00  0.00     0.219 HD
ENDBRANCH  12  18
ENDBRANCH   1  12
BRANCH   2  20
HETATM   20  C4  UNL     1     -21.314  17.930  24.691  1.00  0.00     0.227 C
HETATM   21  O2  UNL     1     -22.315  18.413  25.354  1.00  0.00    -0.643 OA
HETATM   22  O3  UNL     1     -20.262  18.766  24.653  1.00  0.00    -0.643 OA
ENDBRANCH   2  20
BRANCH   5  23
HETATM   23  C6  UNL     1     -23.110  16.047  22.105  1.00  0.00     0.214 C
HETATM   24  O4  UNL     1     -23.227  17.230  21.744  1.00  0.00    -0.646 OA
HETATM   25  O5  UNL     1     -24.217  15.301  22.418  1.00  0.00    -0.646 OA
ENDBRANCH   5  23
BRANCH  11  26
HETATM   26  C10 UNL     1     -21.327  15.293  19.731  1.00  0.00     0.292 C
BRANCH  26  27
HETATM   27  O8  UNL     1     -22.460  15.154  18.937  1.00  0.00    -0.367 OA
ATOM     28  H8  UNL     1     -22.287  14.657  18.146  1.00  0.00     0.213 HD
ENDBRANCH  26  27
BRANCH  26  29
HETATM   29  O9  UNL     1     -21.054  16.647  19.872  1.00  0.00    -0.367 OA
ATOM     30  H9  UNL     1     -21.622  17.062  20.510  1.00  0.00     0.213 HD
ENDBRANCH  26  29
ENDBRANCH  11  26
BRANCH   9  31
HETATM   31  O6  UNL     1     -21.247  11.185  22.175  1.00  0.00    -0.266 OA
ATOM     32  H6  UNL     1     -21.930  10.559  22.385  1.00  0.00     0.247 HD
ENDBRANCH   9  31
BRANCH  10  33
HETATM   33  O7  UNL     1     -21.032  12.615  19.851  1.00  0.00    -0.343 OA
ATOM     34  H7  UNL     1     -20.135  12.583  19.541  1.00  0.00     0.219 HD
ENDBRANCH  10  33
TORSDOF 11
ENDMDL