MODEL 1
REMARK VINA RESULT: -5.950704602      0.000      0.000
REMARK  9 active torsions:
REMARK  status: ('A' for Active; 'I' for Inactive)
REMARK    1  A    between atoms: N1_1  and  N2_4
REMARK    2  A    between atoms: N2_4  and  C1_5
REMARK       I    between atoms: N5_13  and  C5_15
REMARK    3  A    between atoms: C5_15  and  C6_17
REMARK    4  A    between atoms: C6_17  and  O2_18
REMARK    5  A    between atoms: O2_18  and  N6_19
REMARK    6  A    between atoms: C7_24  and  N8_25
REMARK    7  A    between atoms: N8_25  and  O5_27
REMARK    8  A    between atoms: C9_30  and  O6_31
REMARK    9  A    between atoms: C10_33  and  O7_34
ROOT
HETATM    1  C1  UNL     1     -23.773  13.971  16.081  1.00  0.00     0.223 C
HETATM    2  N3  UNL     1     -23.006  13.515  17.184  1.00  0.00    -0.396 N
ATOM      3  H3  UNL     1     -22.105  13.053  17.065  1.00  0.00     0.155 HD
HETATM    4  C2  UNL     1     -23.578  13.747  18.472  1.00  0.00     0.174 C
HETATM    5  C3  UNL     1     -23.278  15.172  18.838  1.00  0.00     0.056 A
HETATM    6  N4  UNL     1     -22.634  15.286  20.025  1.00  0.00    -0.193 N
ATOM      7  H4  UNL     1     -22.402  14.456  20.570  1.00  0.00     0.184 HD
HETATM    8  C4  UNL     1     -22.307  16.504  20.469  1.00  0.00     0.686 A
HETATM    9  N5  UNL     1     -21.713  16.692  21.550  1.00  0.00    -0.158 N
ATOM     10  H5  UNL     1     -21.573  17.694  21.676  1.00  0.00     0.187 HD
HETATM   11  C5  UNL     1     -21.188  16.044  22.614  1.00  0.00     0.262 C
HETATM   12  O1  UNL     1     -20.699  16.745  23.571  1.00  0.00    -0.270 OA
HETATM   13  N7  UNL     1     -22.626  17.622  19.724  1.00  0.00    -0.174 N
ATOM     14  H7  UNL     1     -22.368  18.542  20.080  1.00  0.00     0.186 HD
HETATM   15  C7  UNL     1     -23.258  17.541  18.559  1.00  0.00     0.151 A
HETATM   16  C8  UNL     1     -23.604  16.280  18.084  1.00  0.00     0.044 A
HETATM   17  C9  UNL     1     -24.305  16.326  16.772  1.00  0.00     0.189 C
HETATM   18  C10 UNL     1     -23.629  15.433  15.771  1.00  0.00     0.191 C
ENDROOT
BRANCH  11  19
HETATM   19  C6  UNL     1     -21.134  14.572  22.760  1.00  0.00     0.311 C
BRANCH  19  20
HETATM   20  O2  UNL     1     -19.968  14.040  22.109  1.00  0.00    -0.212 OA
BRANCH  20  21
HETATM   21  N6  UNL     1     -20.190  13.253  21.010  1.00  0.00     0.005 N
HETATM   22  O3  UNL     1     -21.276  12.651  20.903  1.00  0.00    -0.511 OA
HETATM   23  O4  UNL     1     -19.278  13.091  20.013  1.00  0.00    -0.511 OA
ENDBRANCH  20  21
ENDBRANCH  19  20
ENDBRANCH  11  19
BRANCH  15  24
HETATM   24  N8  UNL     1     -23.572  18.565  17.837  1.00  0.00    -0.252 N
ATOM     25  H8  UNL     1     -23.711  18.457  16.833  1.00  0.00     0.196 HD
BRANCH  24  26
HETATM   26  O5  UNL     1     -23.715  19.782  18.418  1.00  0.00    -0.288 OA
ATOM     27  H5  UNL     1     -23.430  20.563  17.957  1.00  0.00     0.244 HD
ENDBRANCH  24  26
ENDBRANCH  15  24
BRANCH  17  28
HETATM   28  O6  UNL     1     -24.230  17.632  16.294  1.00  0.00    -0.388 OA
ATOM     29  H6  UNL     1     -24.965  18.115  16.655  1.00  0.00     0.210 HD
ENDBRANCH  17  28
BRANCH   1  30
HETATM   30  N2  UNL     1     -25.140  13.560  16.235  1.00  0.00    -0.120 NA
BRANCH  30  31
HETATM   31  N1  UNL     1     -25.501  12.686  15.224  1.00  0.00    -0.346 N
ATOM     32  H12 UNL     1     -25.567  12.949  14.241  1.00  0.00     0.172 HD
ATOM     33  H11 UNL     1     -25.688  11.757  15.603  1.00  0.00     0.172 HD
ENDBRANCH  30  31
ENDBRANCH   1  30
BRANCH  18  34
HETATM   34  O7  UNL     1     -22.299  15.754  15.621  1.00  0.00    -0.389 OA
ATOM     35  H7  UNL     1     -22.048  16.408  16.263  1.00  0.00     0.210 HD
ENDBRANCH  18  34
TORSDOF 9
ENDMDL