MODEL 3
REMARK VINA RESULT: -10.612494163      1.629      2.352
REMARK  5 active torsions:
REMARK  status: ('A' for Active; 'I' for Inactive)
REMARK    1  A    between atoms: C4_4  and  C5_5
REMARK    2  A    between atoms: C5_5  and  O1_6
REMARK    3  A    between atoms: O1_6  and  C6_7
REMARK    4  A    between atoms: C9_10  and  C10_11
REMARK    5  A    between atoms: C12_13  and  C13_14
ROOT
HETATM    1  C10 UNL     1      20.476 -12.717   8.013  1.00  0.00    -0.014 A
HETATM    2  C11 UNL     1      21.378 -12.720   9.088  1.00  0.00     0.025 A
HETATM    3  C12 UNL     1      21.380 -13.715  10.038  1.00  0.00    -0.024 A
HETATM    4  C19 UNL     1      20.452 -14.723   9.901  1.00  0.00     0.024 A
HETATM    5  C20 UNL     1      19.536 -14.767   8.857  1.00  0.00    -0.024 A
HETATM    6  C21 UNL     1      18.615 -15.774   8.747  1.00  0.00     0.012 A
HETATM    7  C22 UNL     1      17.700 -15.811   7.720  1.00  0.00     0.001 A
HETATM    8  C23 UNL     1      17.690 -14.819   6.765  1.00  0.00     0.001 A
HETATM    9  C24 UNL     1      18.632 -13.802   6.891  1.00  0.00     0.013 A
HETATM   10  C25 UNL     1      19.563 -13.733   7.902  1.00  0.00    -0.015 A
ENDROOT
BRANCH   1  11
HETATM   11  C9  UNL     1      20.546 -11.666   7.011  1.00  0.00    -0.025 A
HETATM   12  C8  UNL     1      21.303 -11.664   5.888  1.00  0.00     0.015 A
HETATM   13  C7  UNL     1      21.282 -10.607   5.015  1.00  0.00     0.037 A
HETATM   14  C6  UNL     1      20.496  -9.485   5.225  1.00  0.00     0.069 A
HETATM   15  C27 UNL     1      19.731  -9.507   6.377  1.00  0.00     0.037 A
HETATM   16  C26 UNL     1      19.738 -10.544   7.253  1.00  0.00     0.015 A
BRANCH  14  17
HETATM   17  O1  UNL     1      20.519  -8.463   4.318  1.00  0.00    -0.347 OA
BRANCH  17  18
HETATM   18  C5  UNL     1      20.598  -8.621   2.934  1.00  0.00     0.214 C
BRANCH  18  19
HETATM   19  C4  UNL     1      21.082  -7.375   2.276  1.00  0.00    -0.034 A
HETATM   20  C3  UNL     1      20.794  -6.145   2.826  1.00  0.00     0.009 A
HETATM   21  C2  UNL     1      21.212  -4.958   2.268  1.00  0.00     0.001 A
HETATM   22  C1  UNL     1      21.955  -4.984   1.107  1.00  0.00     0.000 A
HETATM   23  C29 UNL     1      22.262  -6.213   0.531  1.00  0.00     0.001 A
HETATM   24  C28 UNL     1      21.832  -7.396   1.106  1.00  0.00     0.009 A
ENDBRANCH  18  19
ENDBRANCH  17  18
ENDBRANCH  14  17
ENDBRANCH   1  11
BRANCH   3  25
HETATM   25  C13 UNL     1      22.340 -13.679  11.144  1.00  0.00    -0.026 A
HETATM   26  C14 UNL     1      21.931 -14.039  12.411  1.00  0.00     0.012 A
HETATM   27  C15 UNL     1      22.786 -14.026  13.496  1.00  0.00     0.001 A
HETATM   28  C16 UNL     1      24.102 -13.644  13.345  1.00  0.00     0.000 A
HETATM   29  C17 UNL     1      24.514 -13.284  12.079  1.00  0.00     0.001 A
HETATM   30  C18 UNL     1      23.654 -13.296  10.983  1.00  0.00     0.012 A
ENDBRANCH   3  25
TORSDOF 5
ENDMDL