MODEL 4
REMARK VINA RESULT: -10.258498560      1.197      1.857
REMARK  6 active torsions:
REMARK  status: ('A' for Active; 'I' for Inactive)
REMARK    1  A    between atoms: C2_2  and  C3_3
REMARK    2  A    between atoms: C2_2  and  O1_11
REMARK    3  A    between atoms: C4_4  and  C5_5
REMARK    4  A    between atoms: O1_11  and  C11_12
REMARK    5  A    between atoms: C11_12  and  C13_14
REMARK    6  A    between atoms: C17_18  and  C18_19
ROOT
HETATM    1  C13 UNL     1      20.044 -12.505   5.578  1.00  0.00    -0.002 A
HETATM    2  C14 UNL     1      18.687 -12.786   5.359  1.00  0.00     0.014 A
HETATM    3  C15 UNL     1      17.951 -12.090   4.467  1.00  0.00     0.002 A
HETATM    4  C16 UNL     1      18.535 -11.072   3.743  1.00  0.00     0.012 A
HETATM    5  C17 UNL     1      19.859 -10.746   3.910  1.00  0.00    -0.025 A
HETATM    6  C28 UNL     1      20.586 -11.481   4.833  1.00  0.00     0.026 A
ENDROOT
BRANCH   1   7
HETATM    7  C11 UNL     1      20.780 -13.295   6.549  1.00  0.00     0.077 C
HETATM    8  C12 UNL     1      22.075 -13.152   6.679  1.00  0.00     0.052 C
BRANCH   7   9
HETATM    9  O1  UNL     1      20.119 -14.205   7.344  1.00  0.00    -0.312 OA
BRANCH   9  10
HETATM   10  C2  UNL     1      20.119 -14.206   8.726  1.00  0.00     0.066 C
HETATM   11  C1  UNL     1      20.617 -15.370   9.231  1.00  0.00     0.051 C
BRANCH  10  12
HETATM   12  C3  UNL     1      19.676 -13.182   9.622  1.00  0.00     0.037 C
HETATM   13  C4  UNL     1      19.254 -11.986   9.646  1.00  0.00     0.014 C
BRANCH  13  14
HETATM   14  C5  UNL     1      18.991 -10.952   8.685  1.00  0.00    -0.036 A
HETATM   15  C6  UNL     1      20.017 -10.039   8.346  1.00  0.00     0.011 A
HETATM   16  C7  UNL     1      19.849  -9.065   7.398  1.00  0.00     0.001 A
HETATM   17  C8  UNL     1      18.645  -8.966   6.751  1.00  0.00     0.000 A
HETATM   18  C9  UNL     1      17.620  -9.828   7.043  1.00  0.00     0.001 A
HETATM   19  C10 UNL     1      17.800 -10.824   8.014  1.00  0.00     0.011 A
ENDBRANCH  13  14
ENDBRANCH  10  12
ENDBRANCH   9  10
ENDBRANCH   7   9
ENDBRANCH   1   7
BRANCH   5  20
HETATM   20  C18 UNL     1      20.493  -9.669   3.149  1.00  0.00    -0.025 A
HETATM   21  C19 UNL     1      21.355  -9.918   2.112  1.00  0.00     0.013 A
HETATM   22  C20 UNL     1      21.947  -8.884   1.400  1.00  0.00     0.013 A
HETATM   23  C21 UNL     1      21.655  -7.587   1.751  1.00  0.00    -0.026 A
HETATM   24  C22 UNL     1      22.259  -6.560   1.024  1.00  0.00     0.012 A
HETATM   25  C26 UNL     1      20.793  -7.293   2.786  1.00  0.00    -0.025 A
HETATM   26  C23 UNL     1      21.982  -5.250   1.357  1.00  0.00     0.001 A
HETATM   27  C24 UNL     1      21.125  -4.927   2.388  1.00  0.00     0.001 A
HETATM   28  C25 UNL     1      20.543  -5.972   3.087  1.00  0.00     0.012 A
HETATM   29  C27 UNL     1      20.234  -8.356   3.461  1.00  0.00     0.024 A
ENDBRANCH   5  20
TORSDOF 6
ENDMDL