MODEL 2
REMARK VINA RESULT: -11.296205598      0.832      1.029
REMARK  5 active torsions:
REMARK  status: ('A' for Active; 'I' for Inactive)
REMARK    1  A    between atoms: C4_4  and  C5_5
REMARK    2  A    between atoms: C5_5  and  C6_6
REMARK    3  A    between atoms: C7_9  and  C8_10
REMARK    4  A    between atoms: C16_18  and  C17_19
REMARK    5  A    between atoms: C20_22  and  C21_23
ROOT
HETATM    1  C6  UNL     1      20.582  -9.675   5.187  1.00  0.00     0.025 A
HETATM    2  N1  UNL     1      20.860  -8.674   4.287  1.00  0.00    -0.358 N
ATOM      3  H1  UNL     1      21.702  -8.121   4.441  1.00  0.00     0.166 HD
HETATM    4  C7  UNL     1      20.108  -8.373   3.227  1.00  0.00     0.042 A
HETATM    5  C14 UNL     1      18.980  -9.121   3.028  1.00  0.00     0.031 A
HETATM    6  C15 UNL     1      18.675 -10.124   3.905  1.00  0.00     0.016 A
HETATM    7  C16 UNL     1      19.471 -10.439   5.025  1.00  0.00    -0.003 A
ENDROOT
BRANCH   7   8
HETATM    8  C17 UNL     1      19.039 -11.529   5.883  1.00  0.00    -0.024 A
HETATM    9  C18 UNL     1      18.357 -11.429   7.057  1.00  0.00     0.013 A
HETATM   10  C19 UNL     1      17.996 -12.526   7.803  1.00  0.00     0.013 A
HETATM   11  C20 UNL     1      18.321 -13.804   7.375  1.00  0.00    -0.026 A
HETATM   12  C27 UNL     1      19.011 -13.891   6.185  1.00  0.00     0.013 A
HETATM   13  C28 UNL     1      19.370 -12.820   5.445  1.00  0.00     0.013 A
BRANCH  11  14
HETATM   14  C21 UNL     1      17.975 -15.010   8.109  1.00  0.00    -0.026 A
HETATM   15  C22 UNL     1      17.879 -16.244   7.511  1.00  0.00     0.012 A
HETATM   16  C23 UNL     1      17.545 -17.389   8.239  1.00  0.00     0.001 A
HETATM   17  C24 UNL     1      17.308 -17.265   9.609  1.00  0.00     0.000 A
HETATM   18  C25 UNL     1      17.401 -16.037  10.220  1.00  0.00     0.001 A
HETATM   19  C26 UNL     1      17.734 -14.925   9.467  1.00  0.00     0.012 A
ENDBRANCH  11  14
ENDBRANCH   7   8
BRANCH   1  20
HETATM   20  C5  UNL     1      21.564  -9.795   6.262  1.00  0.00     0.096 C
BRANCH  20  21
HETATM   21  C4  UNL     1      21.964 -11.143   6.671  1.00  0.00    -0.053 A
HETATM   22  C3  UNL     1      22.482 -12.080   5.792  1.00  0.00     0.007 A
HETATM   23  C2  UNL     1      22.797 -13.364   6.176  1.00  0.00     0.001 A
HETATM   24  C1  UNL     1      22.607 -13.778   7.474  1.00  0.00     0.000 A
HETATM   25  C30 UNL     1      22.093 -12.856   8.361  1.00  0.00     0.001 A
HETATM   26  C29 UNL     1      21.782 -11.571   7.962  1.00  0.00     0.007 A
ENDBRANCH  20  21
ENDBRANCH   1  20
BRANCH   4  27
HETATM   27  C8  UNL     1      20.492  -7.283   2.330  1.00  0.00    -0.009 A
HETATM   28  C9  UNL     1      20.893  -6.081   2.922  1.00  0.00     0.013 A
HETATM   29  C10 UNL     1      21.268  -5.015   2.139  1.00  0.00     0.001 A
HETATM   30  C11 UNL     1      21.246  -5.137   0.758  1.00  0.00     0.000 A
HETATM   31  C12 UNL     1      20.851  -6.322   0.186  1.00  0.00     0.001 A
HETATM   32  C13 UNL     1      20.466  -7.417   0.965  1.00  0.00     0.013 A
ENDBRANCH   4  27
TORSDOF 5
ENDMDL