MODEL 1
REMARK VINA RESULT: -12.200282788      0.000      0.000
REMARK  5 active torsions:
REMARK  status: ('A' for Active; 'I' for Inactive)
REMARK    1  A    between atoms: C4_4  and  C5_5
REMARK    2  A    between atoms: C9_9  and  C10_10
REMARK    3  A    between atoms: C10_10  and  C11_11
REMARK    4  A    between atoms: C14_14  and  C15_15
REMARK    5  A    between atoms: N1_21  and  C21_22
ROOT
HETATM    1  C11 UNL     1      18.899 -10.910   7.214  1.00  0.00     0.021 A
HETATM    2  C12 UNL     1      17.552 -10.750   7.348  1.00  0.00     0.028 A
HETATM    3  C13 UNL     1      17.081 -11.939   7.836  1.00  0.00     0.033 A
HETATM    4  C14 UNL     1      18.169 -12.818   7.992  1.00  0.00     0.050 A
HETATM    5  N1  UNL     1      19.268 -12.181   7.610  1.00  0.00    -0.315 N
ENDROOT
BRANCH   1   6
HETATM    6  C10 UNL     1      19.798  -9.881   6.687  1.00  0.00     0.096 C
BRANCH   6   7
HETATM    7  C9  UNL     1      19.630  -9.584   5.244  1.00  0.00    -0.052 A
HETATM    8  C8  UNL     1      18.714 -10.386   4.553  1.00  0.00     0.007 A
HETATM    9  C7  UNL     1      18.539 -10.153   3.215  1.00  0.00     0.001 A
HETATM   10  C6  UNL     1      19.233  -9.165   2.559  1.00  0.00     0.012 A
HETATM   11  C5  UNL     1      20.146  -8.350   3.206  1.00  0.00    -0.025 A
HETATM   12  C27 UNL     1      20.308  -8.605   4.558  1.00  0.00     0.019 A
BRANCH  11  13
HETATM   13  C4  UNL     1      20.879  -7.303   2.503  1.00  0.00    -0.026 A
HETATM   14  C3  UNL     1      21.608  -7.558   1.357  1.00  0.00     0.012 A
HETATM   15  C2  UNL     1      22.302  -6.549   0.697  1.00  0.00     0.001 A
HETATM   16  C1  UNL     1      22.271  -5.253   1.187  1.00  0.00     0.000 A
HETATM   17  C29 UNL     1      21.551  -4.975   2.328  1.00  0.00     0.001 A
HETATM   18  C28 UNL     1      20.880  -5.994   2.951  1.00  0.00     0.012 A
ENDBRANCH  11  13
ENDBRANCH   6   7
ENDBRANCH   1   6
BRANCH   5  19
HETATM   19  C21 UNL     1      20.595 -12.654   7.548  1.00  0.00     0.039 A
HETATM   20  C22 UNL     1      21.429 -12.643   8.678  1.00  0.00     0.030 A
HETATM   21  C23 UNL     1      22.699 -13.126   8.675  1.00  0.00     0.002 A
HETATM   22  C24 UNL     1      23.219 -13.662   7.509  1.00  0.00     0.000 A
HETATM   23  C25 UNL     1      22.445 -13.699   6.374  1.00  0.00     0.002 A
HETATM   24  C26 UNL     1      21.163 -13.205   6.394  1.00  0.00     0.030 A
ENDBRANCH   5  19
BRANCH   4  25
HETATM   25  C15 UNL     1      17.920 -14.202   8.466  1.00  0.00    -0.009 A
HETATM   26  C16 UNL     1      17.767 -14.531   9.789  1.00  0.00     0.014 A
HETATM   27  C17 UNL     1      17.585 -15.866  10.180  1.00  0.00     0.001 A
HETATM   28  C18 UNL     1      17.557 -16.860   9.238  1.00  0.00     0.000 A
HETATM   29  C19 UNL     1      17.710 -16.527   7.911  1.00  0.00     0.001 A
HETATM   30  C20 UNL     1      17.888 -15.228   7.534  1.00  0.00     0.014 A
ENDBRANCH   4  25
TORSDOF 5
ENDMDL