MODEL 1
REMARK VINA RESULT: -10.001214486      0.000      0.000
REMARK  5 active torsions:
REMARK  status: ('A' for Active; 'I' for Inactive)
REMARK    1  A    between atoms: C1_1  and  C24_25
REMARK    2  A    between atoms: C2_2  and  C3_3
REMARK    3  A    between atoms: N1_5  and  C5_6
REMARK    4  A    between atoms: C5_6  and  C6_7
REMARK    5  A    between atoms: C5_6  and  C12_13
ROOT
HETATM    1  C3  UNL     1      21.306 -10.941   5.697  1.00  0.00    -0.008 A
HETATM    2  C4  UNL     1      21.668 -12.247   5.974  1.00  0.00     0.104 A
HETATM    3  N1  UNL     1      21.188 -12.603   7.190  1.00  0.00    -0.342 N
HETATM    4  C18 UNL     1      20.529 -11.534   7.677  1.00  0.00     0.046 A
HETATM    5  C19 UNL     1      19.847 -11.335   8.869  1.00  0.00     0.030 A
HETATM    6  C20 UNL     1      19.236 -10.155   9.180  1.00  0.00     0.002 A
HETATM    7  C21 UNL     1      19.295  -9.116   8.276  1.00  0.00     0.001 A
HETATM    8  C22 UNL     1      19.966  -9.284   7.082  1.00  0.00     0.014 A
HETATM    9  C23 UNL     1      20.585 -10.500   6.785  1.00  0.00     0.002 A
ENDROOT
BRANCH   3  10
HETATM   10  C5  UNL     1      21.358 -13.894   7.833  1.00  0.00     0.155 C
BRANCH  10  11
HETATM   11  C6  UNL     1      22.091 -13.754   9.114  1.00  0.00    -0.031 A
HETATM   12  C7  UNL     1      23.404 -13.281   9.150  1.00  0.00     0.009 A
HETATM   13  C8  UNL     1      24.129 -13.106  10.292  1.00  0.00     0.001 A
HETATM   14  C9  UNL     1      23.530 -13.416  11.504  1.00  0.00     0.000 A
HETATM   15  C10 UNL     1      22.230 -13.891  11.531  1.00  0.00     0.001 A
HETATM   16  C11 UNL     1      21.540 -14.049  10.349  1.00  0.00     0.009 A
ENDBRANCH  10  11
BRANCH  10  17
HETATM   17  C12 UNL     1      20.099 -14.638   7.946  1.00  0.00    -0.031 A
HETATM   18  C13 UNL     1      19.992 -15.643   8.887  1.00  0.00     0.009 A
HETATM   19  C14 UNL     1      18.838 -16.379   9.067  1.00  0.00     0.001 A
HETATM   20  C15 UNL     1      17.732 -16.115   8.286  1.00  0.00     0.000 A
HETATM   21  C16 UNL     1      17.818 -15.114   7.342  1.00  0.00     0.001 A
HETATM   22  C17 UNL     1      19.004 -14.378   7.175  1.00  0.00     0.009 A
ENDBRANCH  10  17
ENDBRANCH   3  10
BRANCH   1  23
HETATM   23  C2  UNL     1      21.616 -10.163   4.483  1.00  0.00     0.014 C
HETATM   24  C1  UNL     1      20.751  -9.286   4.037  1.00  0.00     0.012 C
BRANCH  24  25
HETATM   25  C24 UNL     1      21.009  -8.499   2.854  1.00  0.00    -0.036 A
HETATM   26  C25 UNL     1      21.962  -8.808   1.927  1.00  0.00     0.011 A
HETATM   27  C26 UNL     1      22.176  -8.008   0.797  1.00  0.00     0.001 A
HETATM   28  C27 UNL     1      21.424  -6.876   0.588  1.00  0.00     0.000 A
HETATM   29  C28 UNL     1      20.462  -6.566   1.526  1.00  0.00     0.001 A
HETATM   30  C29 UNL     1      20.255  -7.348   2.624  1.00  0.00     0.011 A
ENDBRANCH  24  25
ENDBRANCH   1  23
TORSDOF 5
ENDMDL