MODEL 3
REMARK VINA RESULT: -8.413769844      2.048      6.212
REMARK  5 active torsions:
REMARK  status: ('A' for Active; 'I' for Inactive)
REMARK    1  A    between atoms: C4_4  and  C5_5
REMARK    2  A    between atoms: C7_7  and  C8_8
REMARK    3  A    between atoms: N1_14  and  C14_15
REMARK    4  A    between atoms: C14_15  and  C15_16
REMARK    5  A    between atoms: C14_15  and  C21_22
ROOT
HETATM    1  C5  UNL     1      18.632 -15.803   8.023  1.00  0.00    -0.008 A
HETATM    2  C6  UNL     1      17.933 -14.808   7.390  1.00  0.00     0.044 A
HETATM    3  C7  UNL     1      18.740 -13.657   7.236  1.00  0.00     0.046 A
HETATM    4  N1  UNL     1      19.909 -13.979   7.776  1.00  0.00    -0.342 N
HETATM    5  C27 UNL     1      19.872 -15.275   8.263  1.00  0.00     0.104 A
ENDROOT
BRANCH   4   6
HETATM    6  C14 UNL     1      21.116 -13.215   7.862  1.00  0.00     0.155 C
BRANCH   6   7
HETATM    7  C15 UNL     1      20.923 -11.752   7.694  1.00  0.00    -0.031 A
HETATM    8  C16 UNL     1      20.298 -10.952   8.623  1.00  0.00     0.009 A
HETATM    9  C17 UNL     1      20.140  -9.597   8.428  1.00  0.00     0.001 A
HETATM   10  C18 UNL     1      20.613  -9.000   7.281  1.00  0.00     0.000 A
HETATM   11  C19 UNL     1      21.235  -9.769   6.347  1.00  0.00     0.001 A
HETATM   12  C20 UNL     1      21.392 -11.144   6.550  1.00  0.00     0.009 A
ENDBRANCH   6   7
BRANCH   6  13
HETATM   13  C21 UNL     1      21.766 -13.428   9.233  1.00  0.00    -0.031 A
HETATM   14  C22 UNL     1      23.107 -13.157   9.399  1.00  0.00     0.009 A
HETATM   15  C23 UNL     1      23.731 -13.319  10.614  1.00  0.00     0.001 A
HETATM   16  C24 UNL     1      22.988 -13.763  11.680  1.00  0.00     0.000 A
HETATM   17  C25 UNL     1      21.649 -14.044  11.552  1.00  0.00     0.001 A
HETATM   18  C26 UNL     1      21.046 -13.870  10.310  1.00  0.00     0.009 A
ENDBRANCH   6  13
ENDBRANCH   4   6
BRANCH   3  19
HETATM   19  C8  UNL     1      18.274 -12.464   6.558  1.00  0.00    -0.009 A
HETATM   20  C9  UNL     1      17.612 -11.425   7.115  1.00  0.00     0.014 A
HETATM   21  C10 UNL     1      17.287 -10.303   6.368  1.00  0.00     0.001 A
HETATM   22  C11 UNL     1      17.626 -10.215   5.047  1.00  0.00     0.000 A
HETATM   23  C12 UNL     1      18.297 -11.243   4.431  1.00  0.00     0.001 A
HETATM   24  C13 UNL     1      18.601 -12.332   5.204  1.00  0.00     0.014 A
ENDBRANCH   3  19
BRANCH   1  25
HETATM   25  C4  UNL     1      18.133 -17.142   8.361  1.00  0.00    -0.025 A
HETATM   26  C3  UNL     1      18.340 -18.171   7.474  1.00  0.00     0.012 A
HETATM   27  C2  UNL     1      17.887 -19.461   7.738  1.00  0.00     0.001 A
HETATM   28  C1  UNL     1      17.213 -19.746   8.905  1.00  0.00     0.000 A
HETATM   29  C29 UNL     1      17.003 -18.708   9.797  1.00  0.00     0.001 A
HETATM   30  C28 UNL     1      17.459 -17.413   9.530  1.00  0.00     0.012 A
ENDBRANCH   1  25
TORSDOF 5
ENDMDL