MODEL 1
REMARK VINA RESULT: -10.423076021      0.000      0.000
REMARK  5 active torsions:
REMARK  status: ('A' for Active; 'I' for Inactive)
REMARK    1  A    between atoms: C4_4  and  C5_5
REMARK    2  A    between atoms: C10_10  and  O1_11
REMARK    3  A    between atoms: O1_11  and  C11_12
REMARK    4  A    between atoms: C11_12  and  C12_13
REMARK    5  A    between atoms: C15_16  and  C16_17
ROOT
HETATM    1  C12 UNL     1      21.520 -11.645   7.345  1.00  0.00    -0.034 A
HETATM    2  C13 UNL     1      21.999 -12.929   7.073  1.00  0.00     0.010 A
HETATM    3  C14 UNL     1      21.804 -13.990   7.926  1.00  0.00     0.013 A
HETATM    4  C15 UNL     1      21.103 -13.823   9.129  1.00  0.00    -0.025 A
HETATM    5  C26 UNL     1      20.633 -12.554   9.390  1.00  0.00     0.013 A
HETATM    6  C27 UNL     1      20.832 -11.494   8.531  1.00  0.00     0.010 A
ENDROOT
BRANCH   1   7
HETATM    7  C11 UNL     1      21.747 -10.534   6.380  1.00  0.00     0.214 C
BRANCH   7   8
HETATM    8  O1  UNL     1      20.614  -9.769   6.193  1.00  0.00    -0.346 OA
BRANCH   8   9
HETATM    9  C10 UNL     1      20.014  -9.579   4.981  1.00  0.00     0.080 A
HETATM   10  C5  UNL     1      18.893 -10.344   4.696  1.00  0.00     0.007 A
HETATM   11  C6  UNL     1      18.212 -10.237   3.505  1.00  0.00     0.015 A
HETATM   12  C7  UNL     1      18.662  -9.327   2.551  1.00  0.00     0.001 A
HETATM   13  C8  UNL     1      19.768  -8.551   2.795  1.00  0.00     0.003 A
HETATM   14  C9  UNL     1      20.444  -8.679   4.014  1.00  0.00     0.037 A
BRANCH  10  15
HETATM   15  C4  UNL     1      18.419 -11.293   5.693  1.00  0.00    -0.023 A
HETATM   16  C3  UNL     1      17.765 -10.907   6.837  1.00  0.00     0.012 A
HETATM   17  C2  UNL     1      17.335 -11.834   7.763  1.00  0.00     0.001 A
HETATM   18  C1  UNL     1      17.568 -13.172   7.531  1.00  0.00     0.000 A
HETATM   19  C29 UNL     1      18.217 -13.577   6.400  1.00  0.00     0.001 A
HETATM   20  C28 UNL     1      18.637 -12.644   5.492  1.00  0.00     0.012 A
ENDBRANCH  10  15
ENDBRANCH   8   9
ENDBRANCH   7   8
ENDBRANCH   1   7
BRANCH   4  21
HETATM   21  C16 UNL     1      20.858 -14.958  10.005  1.00  0.00    -0.015 A
HETATM   22  C17 UNL     1      20.192 -16.058   9.449  1.00  0.00     0.013 A
HETATM   23  C18 UNL     1      19.918 -17.115  10.282  1.00  0.00     0.002 A
HETATM   24  C19 UNL     1      20.279 -17.105  11.608  1.00  0.00     0.012 A
HETATM   25  C20 UNL     1      20.934 -16.002  12.110  1.00  0.00    -0.025 A
HETATM   26  C21 UNL     1      21.317 -15.972  13.435  1.00  0.00     0.012 A
HETATM   27  C25 UNL     1      21.233 -14.915  11.317  1.00  0.00    -0.015 A
HETATM   28  C22 UNL     1      21.979 -14.898  13.964  1.00  0.00     0.001 A
HETATM   29  C23 UNL     1      22.292 -13.805  13.203  1.00  0.00     0.001 A
HETATM   30  C24 UNL     1      21.906 -13.831  11.863  1.00  0.00     0.013 A
ENDBRANCH   4  21
TORSDOF 5
ENDMDL