MODEL 4
REMARK VINA RESULT: -8.759041422      2.570      8.575
REMARK  4 active torsions:
REMARK  status: ('A' for Active; 'I' for Inactive)
REMARK    1  A    between atoms: C4_4  and  C5_5
REMARK    2  A    between atoms: C5_5  and  C6_6
REMARK    3  A    between atoms: C9_9  and  C10_10
REMARK    4  A    between atoms: C20_20  and  C21_21
ROOT
HETATM    1  C6  UNL     1      23.437 -12.791   9.556  1.00  0.00    -0.053 A
HETATM    2  C7  UNL     1      22.560 -13.750  10.018  1.00  0.00     0.008 A
HETATM    3  C8  UNL     1      21.309 -13.913   9.471  1.00  0.00     0.013 A
HETATM    4  C9  UNL     1      20.907 -13.099   8.433  1.00  0.00    -0.015 A
HETATM    5  C16 UNL     1      21.743 -12.127   7.936  1.00  0.00    -0.014 A
HETATM    6  C17 UNL     1      21.400 -11.238   6.856  1.00  0.00    -0.025 A
HETATM    7  C18 UNL     1      22.122 -11.250   5.694  1.00  0.00     0.013 A
HETATM    8  C19 UNL     1      21.785 -10.384   4.653  1.00  0.00     0.013 A
HETATM    9  C20 UNL     1      20.733  -9.512   4.771  1.00  0.00    -0.025 A
HETATM   10  C26 UNL     1      20.008  -9.499   5.937  1.00  0.00     0.013 A
HETATM   11  C27 UNL     1      20.348 -10.368   6.979  1.00  0.00     0.013 A
HETATM   12  C28 UNL     1      23.010 -11.994   8.519  1.00  0.00     0.020 A
ENDROOT
BRANCH   4  13
HETATM   13  C10 UNL     1      19.573 -13.257   7.835  1.00  0.00    -0.025 A
HETATM   14  C11 UNL     1      19.429 -13.784   6.556  1.00  0.00     0.012 A
HETATM   15  C12 UNL     1      18.192 -13.939   5.978  1.00  0.00     0.001 A
HETATM   16  C13 UNL     1      17.042 -13.580   6.636  1.00  0.00     0.000 A
HETATM   17  C14 UNL     1      17.168 -13.053   7.916  1.00  0.00     0.001 A
HETATM   18  C15 UNL     1      18.417 -12.899   8.494  1.00  0.00     0.012 A
ENDBRANCH   4  13
BRANCH   1  19
HETATM   19  C5  UNL     1      24.787 -12.573  10.101  1.00  0.00     0.077 C
BRANCH  19  20
HETATM   20  C4  UNL     1      24.862 -12.586  11.557  1.00  0.00    -0.054 A
HETATM   21  C3  UNL     1      25.654 -11.687  12.217  1.00  0.00     0.007 A
HETATM   22  C2  UNL     1      25.734 -11.686  13.608  1.00  0.00     0.001 A
HETATM   23  C1  UNL     1      24.985 -12.625  14.287  1.00  0.00     0.000 A
HETATM   24  C30 UNL     1      24.173 -13.552  13.665  1.00  0.00     0.001 A
HETATM   25  C29 UNL     1      24.139 -13.498  12.283  1.00  0.00     0.007 A
ENDBRANCH  19  20
ENDBRANCH   1  19
BRANCH   9  26
HETATM   26  C21 UNL     1      20.390  -8.610   3.674  1.00  0.00    -0.011 A
HETATM   27  C22 UNL     1      21.116  -7.481   3.365  1.00  0.00     0.015 A
HETATM   28  C23 UNL     1      20.757  -6.644   2.309  1.00  0.00     0.018 A
HETATM   29  C24 UNL     1      19.634  -6.998   1.581  1.00  0.00     0.087 A
HETATM   30  N1  UNL     1      18.916  -8.104   1.879  1.00  0.00    -0.374 N
HETATM   31  C25 UNL     1      19.270  -8.906   2.900  1.00  0.00     0.099 A
ATOM     32  H1  UNL     1      18.095  -8.335   1.320  1.00  0.00     0.164 HD
ENDBRANCH   9  26
TORSDOF 4
ENDMDL