MODEL 4
REMARK VINA RESULT: -9.996765259      4.622     10.518
REMARK  4 active torsions:
REMARK  status: ('A' for Active; 'I' for Inactive)
REMARK    1  A    between atoms: C1_1  and  C24_26
REMARK    2  A    between atoms: C2_2  and  C3_3
REMARK    3  A    between atoms: C5_5  and  C6_6
REMARK    4  A    between atoms: C7_7  and  C8_8
ROOT
HETATM    1  C3  UNL     1      18.096 -17.314   8.623  1.00  0.00     0.033 A
HETATM    2  C4  UNL     1      17.876 -16.198   7.828  1.00  0.00     0.042 A
HETATM    3  C5  UNL     1      18.488 -14.986   8.033  1.00  0.00    -0.021 A
HETATM    4  C18 UNL     1      19.363 -14.879   9.084  1.00  0.00     0.001 A
HETATM    5  C19 UNL     1      20.048 -13.729   9.411  1.00  0.00     0.014 A
HETATM    6  C20 UNL     1      20.933 -13.645  10.486  1.00  0.00     0.001 A
HETATM    7  C21 UNL     1      21.145 -14.751  11.268  1.00  0.00     0.002 A
HETATM    8  C22 UNL     1      20.472 -15.902  10.956  1.00  0.00     0.030 A
HETATM    9  C23 UNL     1      19.594 -16.002   9.898  1.00  0.00     0.043 A
HETATM   10  N1  UNL     1      18.955 -17.166   9.636  1.00  0.00    -0.356 N
ATOM     11  H1  UNL     1      19.138 -17.968  10.239  1.00  0.00     0.166 HD
ENDROOT
BRANCH   3  12
HETATM   12  C6  UNL     1      18.242 -13.807   7.175  1.00  0.00     0.013 C
HETATM   13  C7  UNL     1      18.959 -13.527   6.112  1.00  0.00     0.013 C
BRANCH  13  14
HETATM   14  C8  UNL     1      18.705 -12.371   5.287  1.00  0.00    -0.025 A
HETATM   15  C9  UNL     1      17.878 -12.382   4.184  1.00  0.00     0.012 A
HETATM   16  C10 UNL     1      17.623 -11.301   3.388  1.00  0.00     0.002 A
HETATM   17  C11 UNL     1      18.234 -10.116   3.709  1.00  0.00     0.012 A
HETATM   18  C12 UNL     1      19.080 -10.031   4.807  1.00  0.00    -0.025 A
HETATM   19  C13 UNL     1      19.686  -8.813   5.106  1.00  0.00     0.012 A
HETATM   20  C17 UNL     1      19.321 -11.152   5.599  1.00  0.00    -0.016 A
HETATM   21  C14 UNL     1      20.533  -8.664   6.178  1.00  0.00     0.001 A
HETATM   22  C15 UNL     1      20.764  -9.772   6.951  1.00  0.00     0.001 A
HETATM   23  C16 UNL     1      20.169 -10.999   6.672  1.00  0.00     0.013 A
ENDBRANCH  13  14
ENDBRANCH   3  12
BRANCH   1  24
HETATM   24  C2  UNL     1      17.413 -18.593   8.360  1.00  0.00     0.030 C
HETATM   25  C1  UNL     1      18.003 -19.548   7.677  1.00  0.00     0.013 C
BRANCH  25  26
HETATM   26  C24 UNL     1      17.361 -20.805   7.405  1.00  0.00    -0.036 A
HETATM   27  C25 UNL     1      18.043 -21.989   7.486  1.00  0.00     0.011 A
HETATM   28  C26 UNL     1      17.388 -23.198   7.214  1.00  0.00     0.001 A
HETATM   29  C27 UNL     1      16.076 -23.204   6.869  1.00  0.00     0.000 A
HETATM   30  C28 UNL     1      15.364 -22.032   6.779  1.00  0.00     0.001 A
HETATM   31  C29 UNL     1      16.029 -20.855   7.051  1.00  0.00     0.011 A
ENDBRANCH  25  26
ENDBRANCH   1  24
TORSDOF 4
ENDMDL