MODEL 1
REMARK VINA RESULT: -10.977625122      0.000      0.000
REMARK  5 active torsions:
REMARK  status: ('A' for Active; 'I' for Inactive)
REMARK    1  A    between atoms: C4_4  and  C5_5
REMARK    2  A    between atoms: C8_8  and  C9_9
REMARK    3  A    between atoms: C13_13  and  O1_14
REMARK    4  A    between atoms: O1_14  and  C14_15
REMARK    5  A    between atoms: C14_15  and  C15_16
ROOT
HETATM    1  C9  UNL     1      18.774 -10.877   5.002  1.00  0.00    -0.023 A
HETATM    2  C10 UNL     1      18.402 -12.068   4.409  1.00  0.00     0.012 A
HETATM    3  C11 UNL     1      17.861 -13.095   5.172  1.00  0.00     0.004 A
HETATM    4  C12 UNL     1      17.683 -12.951   6.537  1.00  0.00     0.037 A
HETATM    5  C13 UNL     1      18.049 -11.764   7.147  1.00  0.00     0.070 A
HETATM    6  C25 UNL     1      18.579 -10.772   6.370  1.00  0.00     0.049 A
ENDROOT
BRANCH   1   7
HETATM    7  C8  UNL     1      19.340  -9.798   4.210  1.00  0.00    -0.026 A
HETATM    8  C7  UNL     1      20.302  -8.982   4.759  1.00  0.00     0.013 A
HETATM    9  C6  UNL     1      20.874  -7.938   4.049  1.00  0.00     0.013 A
HETATM   10  C5  UNL     1      20.496  -7.676   2.749  1.00  0.00    -0.026 A
HETATM   11  C27 UNL     1      19.525  -8.494   2.185  1.00  0.00     0.013 A
HETATM   12  C26 UNL     1      18.967  -9.529   2.912  1.00  0.00     0.013 A
BRANCH  10  13
HETATM   13  C4  UNL     1      21.068  -6.595   1.967  1.00  0.00    -0.026 A
HETATM   14  C3  UNL     1      21.261  -5.355   2.519  1.00  0.00     0.012 A
HETATM   15  C2  UNL     1      21.810  -4.357   1.726  1.00  0.00     0.001 A
HETATM   16  C1  UNL     1      22.171  -4.561   0.400  1.00  0.00     0.000 A
HETATM   17  C29 UNL     1      21.968  -5.812  -0.131  1.00  0.00     0.001 A
HETATM   18  C28 UNL     1      21.417  -6.817   0.660  1.00  0.00     0.012 A
ENDBRANCH  10  13
ENDBRANCH   1   7
BRANCH   5  19
HETATM   19  O1  UNL     1      17.861 -11.643   8.517  1.00  0.00    -0.347 OA
BRANCH  19  20
HETATM   20  C14 UNL     1      18.920 -11.466   9.422  1.00  0.00     0.215 C
BRANCH  20  21
HETATM   21  C15 UNL     1      19.951 -12.491   9.211  1.00  0.00    -0.023 A
HETATM   22  C16 UNL     1      21.189 -12.125   8.735  1.00  0.00     0.010 A
HETATM   23  C17 UNL     1      22.172 -13.044   8.526  1.00  0.00     0.002 A
HETATM   24  C18 UNL     1      21.993 -14.378   8.775  1.00  0.00     0.012 A
HETATM   25  C19 UNL     1      20.744 -14.762   9.257  1.00  0.00    -0.025 A
HETATM   26  C20 UNL     1      20.481 -16.091   9.534  1.00  0.00     0.012 A
HETATM   27  C24 UNL     1      19.748 -13.833   9.469  1.00  0.00    -0.018 A
HETATM   28  C21 UNL     1      19.247 -16.481  10.013  1.00  0.00     0.001 A
HETATM   29  C22 UNL     1      18.273 -15.528  10.214  1.00  0.00     0.001 A
HETATM   30  C23 UNL     1      18.506 -14.202   9.947  1.00  0.00     0.013 A
ENDBRANCH  20  21
ENDBRANCH  19  20
ENDBRANCH   5  19
TORSDOF 5
ENDMDL