MODEL 2
REMARK VINA RESULT: -5.457990261      1.021      1.333
REMARK  2 active torsions:
REMARK  status: ('A' for Active; 'I' for Inactive)
REMARK    1  A    between atoms: C4_5  and  N2_6
REMARK    2  A    between atoms: N2_6  and  N3_8
REMARK       I    between atoms: N3_8  and  C5_10
REMARK       I    between atoms: C5_10  and  N4_11
REMARK       I    between atoms: C5_10  and  N5_15
ROOT
HETATM    1  N3  UNL     1      92.752  42.414  50.353  1.00  0.00    -0.282 N
ATOM      2  H3  UNL     1      93.326  41.758  50.881  1.00  0.00     0.184 HD
HETATM    3  C5  UNL     1      91.358  42.574  50.712  1.00  0.00     0.494 C
HETATM    4  N4  UNL     1      91.194  43.987  51.074  1.00  0.00    -0.032 N
ATOM      5  H41 UNL     1      90.212  44.099  51.327  1.00  0.00     0.279 HD
ATOM      6  H42 UNL     1      91.503  44.632  50.346  1.00  0.00     0.279 HD
ATOM      7  H43 UNL     1      91.840  44.299  51.799  1.00  0.00     0.279 HD
HETATM    8  N5  UNL     1      91.048  41.799  51.876  1.00  0.00    -0.032 N
ATOM      9  H51 UNL     1      90.066  41.911  52.130  1.00  0.00     0.279 HD
ATOM     10  H52 UNL     1      91.668  42.020  52.655  1.00  0.00     0.279 HD
ATOM     11  H53 UNL     1      91.300  40.818  51.756  1.00  0.00     0.279 HD
ENDROOT
BRANCH   1  12
HETATM   12  N2  UNL     1      93.334  43.130  49.307  1.00  0.00    -0.286 N
ATOM     13  H2  UNL     1      93.397  44.146  49.352  1.00  0.00     0.188 HD
BRANCH  12  14
HETATM   14  C4  UNL     1      93.790  42.498  48.290  1.00  0.00     0.135 A
HETATM   15  C3  UNL     1      94.589  41.384  48.348  1.00  0.00     0.070 A
HETATM   16  C2  UNL     1      94.848  41.025  47.049  1.00  0.00     0.113 A
HETATM   17  N1  UNL     1      94.232  41.885  46.224  1.00  0.00    -0.306 N
HETATM   18  C1  UNL     1      94.274  41.828  44.757  1.00  0.00     0.177 C
HETATM   19  N6  UNL     1      93.606  42.756  46.977  1.00  0.00    -0.283 N
ATOM     20  H6  UNL     1      93.049  43.531  46.617  1.00  0.00     0.189 HD
ENDBRANCH  12  14
ENDBRANCH   1  12
TORSDOF 2
ENDMDL