MODEL 5
REMARK VINA RESULT: -5.202466459      1.057      1.110
REMARK  5 active torsions:
REMARK  status: ('A' for Active; 'I' for Inactive)
REMARK    1  A    between atoms: N1_1  and  N2_4
REMARK    2  A    between atoms: N2_4  and  C1_6
REMARK    3  A    between atoms: N3_7  and  N4_9
REMARK    4  A    between atoms: N4_9  and  N5_11
REMARK    5  A    between atoms: N5_11  and  C2_13
ROOT
HETATM    1  N4  UNL     1      93.762  42.344  47.713  1.00  0.00    -0.240 N
ATOM      2  H4  UNL     1      93.475  42.913  46.916  1.00  0.00     0.208 HD
ENDROOT
BRANCH   1   3
HETATM    3  N3  UNL     1      93.303  42.647  48.894  1.00  0.00    -0.281 N
HETATM    4  C1  UNL     1      92.738  43.305  49.718  1.00  0.00     0.214 C
ATOM      5  H3  UNL     1      93.607  41.845  49.446  1.00  0.00     0.189 HD
BRANCH   4   6
HETATM    6  N2  UNL     1      92.657  42.811  51.087  1.00  0.00    -0.301 N
ATOM      7  H2  UNL     1      93.422  42.940  51.749  1.00  0.00     0.187 HD
BRANCH   6   8
HETATM    8  N1  UNL     1      91.498  42.164  51.439  1.00  0.00    -0.344 N
ATOM      9  H12 UNL     1      91.136  42.222  52.391  1.00  0.00     0.176 HD
ATOM     10  H11 UNL     1      91.032  41.632  50.705  1.00  0.00     0.176 HD
ENDBRANCH   6   8
ENDBRANCH   4   6
ENDBRANCH   1   3
BRANCH   1  11
HETATM   11  N5  UNL     1      94.629  41.273  47.492  1.00  0.00    -0.271 N
ATOM     12  H5  UNL     1      94.941  40.673  48.254  1.00  0.00     0.190 HD
BRANCH  11  13
HETATM   13  C2  UNL     1      95.055  41.060  46.157  1.00  0.00     0.120 A
HETATM   14  C3  UNL     1      94.545  41.755  45.085  1.00  0.00     0.050 A
HETATM   15  C4  UNL     1      94.963  41.528  43.788  1.00  0.00     0.005 A
HETATM   16  C5  UNL     1      95.928  40.570  43.535  1.00  0.00     0.017 A
HETATM   17  C6  UNL     1      96.420  39.888  44.624  1.00  0.00     0.089 A
HETATM   18  N6  UNL     1      95.994  40.130  45.887  1.00  0.00    -0.351 N
ATOM     19  H6  UNL     1      96.395  39.594  46.656  1.00  0.00     0.166 HD
ENDBRANCH  11  13
ENDBRANCH   1  11
TORSDOF 5
ENDMDL