MODEL 1
REMARK VINA RESULT: -5.205268263      0.000      0.000
REMARK  6 active torsions:
REMARK  status: ('A' for Active; 'I' for Inactive)
REMARK    1  A    between atoms: N1_1  and  C1_4
REMARK    2  A    between atoms: C2_9  and  C3_10
REMARK    3  A    between atoms: C3_10  and  C4_11
REMARK    4  A    between atoms: C4_11  and  C5_12
REMARK    5  A    between atoms: C5_12  and  N4_13
REMARK    6  A    between atoms: C5_12  and  N5_17
ROOT
HETATM    1  C3  UNL     1      92.286  43.373  48.808  1.00  0.00     0.066 C
ENDROOT
BRANCH   1   2
HETATM    2  C2  UNL     1      93.499  42.540  48.772  1.00  0.00     0.076 A
HETATM    3  C1  UNL     1      94.121  41.994  47.670  1.00  0.00     0.185 A
HETATM    4  O1  UNL     1      95.183  41.315  48.082  1.00  0.00    -0.204 OA
HETATM    5  N2  UNL     1      95.249  41.414  49.376  1.00  0.00     0.028 NA
HETATM    6  N3  UNL     1      94.238  42.154  49.825  1.00  0.00    -0.278 N
ATOM      7  H3  UNL     1      94.055  42.386  50.801  1.00  0.00     0.184 HD
BRANCH   3   8
HETATM    8  N1  UNL     1      93.716  42.136  46.467  1.00  0.00    -0.377 N
ATOM      9  H12 UNL     1      93.922  41.486  45.708  1.00  0.00     0.158 HD
ATOM     10  H11 UNL     1      93.145  42.895  46.095  1.00  0.00     0.158 HD
ENDBRANCH   3   8
ENDBRANCH   1   2
BRANCH   1  11
HETATM   11  C4  UNL     1      91.093  42.682  49.391  1.00  0.00     0.068 C
BRANCH  11  12
HETATM   12  C5  UNL     1      90.859  42.962  50.838  1.00  0.00     0.378 C
BRANCH  12  13
HETATM   13  N4  UNL     1      91.245  41.906  51.721  1.00  0.00    -0.051 N
ATOM     14  H43 UNL     1      90.549  41.161  51.706  1.00  0.00     0.276 HD
ATOM     15  H42 UNL     1      92.048  41.404  51.342  1.00  0.00     0.276 HD
ATOM     16  H41 UNL     1      91.430  42.199  52.680  1.00  0.00     0.276 HD
ENDBRANCH  12  13
BRANCH  12  17
HETATM   17  N5  UNL     1      91.547  44.225  51.131  1.00  0.00    -0.051 N
ATOM     18  H53 UNL     1      92.171  44.169  51.936  1.00  0.00     0.276 HD
ATOM     19  H52 UNL     1      92.256  44.470  50.440  1.00  0.00     0.276 HD
ATOM     20  H51 UNL     1      90.820  44.933  51.232  1.00  0.00     0.276 HD
ENDBRANCH  12  17
ENDBRANCH  11  12
ENDBRANCH   1  11
TORSDOF 6
ENDMDL