MODEL 1
REMARK VINA RESULT: -4.730267340      0.000      0.000
REMARK  4 active torsions:
REMARK  status: ('A' for Active; 'I' for Inactive)
REMARK    1  A    between atoms: C2_2  and  N1_3
REMARK    2  A    between atoms: C2_2  and  C3_7
REMARK    3  A    between atoms: C3_7  and  N2_8
REMARK    4  A    between atoms: C3_7  and  C4_12
ROOT
HETATM    1  C3  UNL     1      92.665  43.314  49.921  1.00  0.00     0.266 C
ENDROOT
BRANCH   1   2
HETATM    2  C2  UNL     1      91.208  43.177  50.409  1.00  0.00     0.215 C
HETATM    3  C1  UNL     1      91.071  41.916  51.244  1.00  0.00     0.042 C
BRANCH   2   4
HETATM    4  N1  UNL     1      90.846  44.304  51.231  1.00  0.00    -0.073 N
ATOM      5  H13 UNL     1      91.404  44.364  52.083  1.00  0.00     0.274 HD
ATOM      6  H12 UNL     1      91.124  45.196  50.821  1.00  0.00     0.274 HD
ATOM      7  H11 UNL     1      89.845  44.253  51.420  1.00  0.00     0.274 HD
ENDBRANCH   2   4
ENDBRANCH   1   2
BRANCH   1   8
HETATM    8  N2  UNL     1      93.414  42.464  50.825  1.00  0.00    -0.068 N
ATOM      9  H23 UNL     1      93.444  42.797  51.788  1.00  0.00     0.275 HD
ATOM     10  H22 UNL     1      92.965  41.572  51.032  1.00  0.00     0.275 HD
ATOM     11  H21 UNL     1      94.328  42.381  50.379  1.00  0.00     0.275 HD
ENDBRANCH   1   8
BRANCH   1  12
HETATM   12  C4  UNL     1      92.708  42.888  48.515  1.00  0.00     0.084 A
HETATM   13  N3  UNL     1      91.825  43.099  47.533  1.00  0.00    -0.351 N
HETATM   14  C5  UNL     1      92.246  42.505  46.398  1.00  0.00     0.182 A
ATOM     15  H3  UNL     1      90.961  43.632  47.629  1.00  0.00     0.166 HD
HETATM   16  N4  UNL     1      93.417  41.893  46.619  1.00  0.00    -0.339 N
HETATM   17  C6  UNL     1      93.715  42.122  47.932  1.00  0.00     0.142 A
ATOM     18  H4  UNL     1      93.971  41.364  45.946  1.00  0.00     0.167 HD
HETATM   19  N5  UNL     1      94.890  41.658  48.575  1.00  0.00    -0.081 NA
ENDBRANCH   1  12
TORSDOF 4
ENDMDL