MODEL 5
REMARK VINA RESULT: -4.679411727      1.889      4.768
REMARK  6 active torsions:
REMARK  status: ('A' for Active; 'I' for Inactive)
REMARK    1  A    between atoms: N1_1  and  C1_4
REMARK    2  A    between atoms: C2_9  and  C3_10
REMARK    3  A    between atoms: C3_10  and  C4_11
REMARK    4  A    between atoms: C4_11  and  C5_12
REMARK    5  A    between atoms: C5_12  and  N4_13
REMARK    6  A    between atoms: N5_17  and  N6_18
ROOT
HETATM    1  C1  UNL     1      93.624  42.422  49.684  1.00  0.00     0.712 A
HETATM    2  N2  UNL     1      94.740  41.701  49.930  1.00  0.00    -0.129 N
ATOM      3  H2  UNL     1      95.161  41.519  50.841  1.00  0.00     0.205 HD
HETATM    4  N3  UNL     1      95.177  41.280  48.765  1.00  0.00    -0.273 N
ATOM      5  H3  UNL     1      96.010  40.707  48.633  1.00  0.00     0.189 HD
HETATM    6  C2  UNL     1      94.386  41.701  47.777  1.00  0.00     0.136 A
HETATM    7  N5  UNL     1      93.382  42.439  48.370  1.00  0.00    -0.078 N
ENDROOT
BRANCH   6   8
HETATM    8  C3  UNL     1      94.435  41.509  46.321  1.00  0.00     0.082 C
BRANCH   8   9
HETATM    9  C4  UNL     1      95.442  40.549  45.846  1.00  0.00     0.035 C
BRANCH   9  10
HETATM   10  C5  UNL     1      96.614  41.006  45.085  1.00  0.00     0.230 C
BRANCH  10  11
HETATM   11  N4  UNL     1      96.512  42.127  44.243  1.00  0.00    -0.079 N
ATOM     12  H43 UNL     1      95.889  41.895  43.470  1.00  0.00     0.274 HD
ATOM     13  H42 UNL     1      95.976  42.846  44.728  1.00  0.00     0.274 HD
ATOM     14  H41 UNL     1      97.355  42.556  43.861  1.00  0.00     0.274 HD
ENDBRANCH  10  11
ENDBRANCH   9  10
ENDBRANCH   8   9
ENDBRANCH   6   8
BRANCH   7  15
HETATM   15  N6  UNL     1      92.324  43.079  47.734  1.00  0.00    -0.323 N
ATOM     16  H62 UNL     1      91.445  42.659  47.431  1.00  0.00     0.178 HD
ATOM     17  H61 UNL     1      92.278  44.065  47.478  1.00  0.00     0.178 HD
ENDBRANCH   7  15
BRANCH   1  18
HETATM   18  N1  UNL     1      92.909  43.002  50.607  1.00  0.00    -0.232 N
ATOM     19  H12 UNL     1      92.485  42.548  51.415  1.00  0.00     0.174 HD
ATOM     20  H11 UNL     1      92.693  43.999  50.621  1.00  0.00     0.174 HD
ENDBRANCH   1  18
TORSDOF 6
ENDMDL