MODEL 4
REMARK VINA RESULT: -5.299085725      1.264      1.885
REMARK  4 active torsions:
REMARK  status: ('A' for Active; 'I' for Inactive)
REMARK    1  A    between atoms: C2_3  and  N2_4
REMARK    2  A    between atoms: C2_3  and  N6_14
REMARK    3  A    between atoms: N2_4  and  C3_6
REMARK    4  A    between atoms: N6_14  and  N7_15
ROOT
HETATM    1  N1  UNL     1      94.740  39.972  47.326  1.00  0.00    -0.194 NA
HETATM    2  C1  UNL     1      94.303  41.045  47.285  1.00  0.00     0.104 C
HETATM    3  C2  UNL     1      93.744  42.384  47.216  1.00  0.00     0.320 C
ENDROOT
BRANCH   3   4
HETATM    4  N2  UNL     1      93.838  42.973  48.529  1.00  0.00    -0.192 N
ATOM      5  H2  UNL     1      94.667  43.508  48.784  1.00  0.00     0.180 HD
BRANCH   4   6
HETATM    6  C3  UNL     1      92.895  42.832  49.371  1.00  0.00     0.695 A
HETATM    7  N3  UNL     1      91.580  42.835  49.098  1.00  0.00    -0.185 N
HETATM    8  C4  UNL     1      90.950  42.658  50.262  1.00  0.00     0.215 A
ATOM      9  H3  UNL     1      91.148  42.950  48.182  1.00  0.00     0.185 HD
HETATM   10  N4  UNL     1      91.885  42.550  51.226  1.00  0.00    -0.281 N
HETATM   11  N5  UNL     1      93.076  42.656  50.687  1.00  0.00    -0.131 N
ATOM     12  H4  UNL     1      91.696  42.407  52.218  1.00  0.00     0.188 HD
ATOM     13  H5  UNL     1      93.969  42.613  51.176  1.00  0.00     0.205 HD
ENDBRANCH   4   6
ENDBRANCH   3   4
BRANCH   3  14
HETATM   14  N6  UNL     1      94.489  43.227  46.305  1.00  0.00    -0.107 NA
BRANCH  14  15
HETATM   15  N7  UNL     1      95.052  42.517  45.266  1.00  0.00    -0.346 N
ATOM     16  H72 UNL     1      95.225  42.926  44.347  1.00  0.00     0.172 HD
ATOM     17  H71 UNL     1      95.272  41.555  45.520  1.00  0.00     0.172 HD
ENDBRANCH  14  15
ENDBRANCH   3  14
TORSDOF 4
ENDMDL