MODEL 2
REMARK VINA RESULT: -5.583081445      1.062      1.125
REMARK  3 active torsions:
REMARK  status: ('A' for Active; 'I' for Inactive)
REMARK    1  A    between atoms: C2_2  and  C3_3
REMARK    2  A    between atoms: C3_3  and  N1_4
REMARK    3  A    between atoms: N1_4  and  C4_6
ROOT
HETATM    1  C4  UNL     1      93.434  42.331  48.100  1.00  0.00     0.210 C
HETATM    2  C5  UNL     1      93.669  42.768  46.687  1.00  0.00     0.166 C
HETATM    3  N2  UNL     1      94.603  41.886  46.013  1.00  0.00    -0.360 N
ATOM      4  H2  UNL     1      94.902  42.121  45.066  1.00  0.00     0.162 HD
HETATM    5  C6  UNL     1      95.116  40.709  46.618  1.00  0.00     0.200 C
HETATM    6  N3  UNL     1      95.550  39.643  45.801  1.00  0.00    -0.062 NA
HETATM    7  N4  UNL     1      95.166  40.670  47.927  1.00  0.00    -0.276 N
ATOM      8  H4  UNL     1      95.525  39.854  48.422  1.00  0.00     0.185 HD
HETATM    9  N5  UNL     1      94.705  41.797  48.616  1.00  0.00    -0.112 NA
ENDROOT
BRANCH   1  10
HETATM   10  N1  UNL     1      92.868  43.321  48.948  1.00  0.00    -0.402 N
ATOM     11  H1  UNL     1      92.647  44.262  48.622  1.00  0.00     0.154 HD
BRANCH  10  12
HETATM   12  C3  UNL     1      92.632  42.895  50.291  1.00  0.00     0.115 C
BRANCH  12  13
HETATM   13  C2  UNL     1      91.129  42.917  50.605  1.00  0.00     0.015 C
HETATM   14  C1  UNL     1      90.883  41.815  51.611  1.00  0.00     0.006 C
ENDBRANCH  12  13
ENDBRANCH  10  12
ENDBRANCH   1  10
TORSDOF 3
ENDMDL