MODEL 2
REMARK VINA RESULT: -5.346593391      1.468      5.279
REMARK  6 active torsions:
REMARK  status: ('A' for Active; 'I' for Inactive)
REMARK    1  A    between atoms: N2_4  and  C1_6
REMARK    2  A    between atoms: C1_6  and  N3_7
REMARK    3  A    between atoms: C3_9  and  C4_10
REMARK    4  A    between atoms: C4_10  and  N4_11
REMARK    5  A    between atoms: C4_10  and  C5_15
REMARK    6  A    between atoms: C5_15  and  N5_16
ROOT
HETATM    1  N3  UNL     1      93.526  42.616  49.042  1.00  0.00    -0.284 N
HETATM    2  C2  UNL     1      93.481  42.486  47.705  1.00  0.00     0.122 A
HETATM    3  C3  UNL     1      94.415  41.566  47.358  1.00  0.00     0.008 A
HETATM    4  C6  UNL     1      95.032  41.139  48.521  1.00  0.00     0.118 A
HETATM    5  N6  UNL     1      94.457  41.806  49.511  1.00  0.00    -0.308 N
ATOM      6  H6  UNL     1      94.699  41.708  50.497  1.00  0.00     0.186 HD
ENDROOT
BRANCH   3   7
HETATM    7  C4  UNL     1      94.783  41.050  46.024  1.00  0.00     0.244 C
BRANCH   7   8
HETATM    8  N4  UNL     1      96.180  40.669  46.070  1.00  0.00    -0.069 N
ATOM      9  H43 UNL     1      96.764  41.222  45.442  1.00  0.00     0.275 HD
ATOM     10  H42 UNL     1      96.635  40.934  46.944  1.00  0.00     0.275 HD
ATOM     11  H41 UNL     1      96.234  39.667  45.883  1.00  0.00     0.275 HD
ENDBRANCH   7   8
BRANCH   7  12
HETATM   12  C5  UNL     1      94.563  42.065  44.930  1.00  0.00     0.267 C
BRANCH  12  13
HETATM   13  N5  UNL     1      95.848  42.450  44.381  1.00  0.00    -0.077 N
ATOM     14  H53 UNL     1      95.814  42.587  43.371  1.00  0.00     0.274 HD
ATOM     15  H52 UNL     1      96.116  43.398  44.645  1.00  0.00     0.274 HD
ATOM     16  H51 UNL     1      96.546  41.759  44.656  1.00  0.00     0.274 HD
ENDBRANCH  12  13
ENDBRANCH   7  12
ENDBRANCH   3   7
BRANCH   1  17
HETATM   17  C1  UNL     1      92.724  43.479  49.878  1.00  0.00     0.286 C
BRANCH  17  18
HETATM   18  N2  UNL     1      92.517  42.766  51.121  1.00  0.00    -0.323 N
HETATM   19  N1  UNL     1      91.457  42.179  51.376  1.00  0.00    -0.348 N
ATOM     20  H12 UNL     1      90.715  42.208  50.677  1.00  0.00     0.176 HD
ATOM     21  H11 UNL     1      91.311  41.677  52.252  1.00  0.00     0.176 HD
ATOM     22  H2  UNL     1      93.269  42.748  51.809  1.00  0.00     0.181 HD
ENDBRANCH  17  18
ENDBRANCH   1  17
TORSDOF 6
ENDMDL