MODEL 5
REMARK VINA RESULT: -4.558168491      1.524      4.610
REMARK  5 active torsions:
REMARK  status: ('A' for Active; 'I' for Inactive)
REMARK    1  A    between atoms: N1_2  and  C2_4
REMARK    2  A    between atoms: C2_4  and  C3_5
REMARK    3  A    between atoms: C3_5  and  N2_6
REMARK    4  A    between atoms: C4_8  and  N3_9
REMARK    5  A    between atoms: C5_14  and  N5_15
ROOT
HETATM    1  N2  UNL     1      93.373  42.743  48.558  1.00  0.00    -0.075 N
HETATM    2  O1  UNL     1      94.424  41.964  48.589  1.00  0.00    -0.183 OA
HETATM    3  C4  UNL     1      94.526  41.321  47.441  1.00  0.00     0.256 A
HETATM    4  N4  UNL     1      93.516  41.687  46.636  1.00  0.00    -0.152 N
ATOM      5  H4  UNL     1      93.328  41.361  45.688  1.00  0.00     0.188 HD
HETATM    6  C5  UNL     1      92.806  42.576  47.350  1.00  0.00     0.701 A
ENDROOT
BRANCH   1   7
HETATM    7  C3  UNL     1      92.896  43.600  49.630  1.00  0.00     0.220 C
BRANCH   7   8
HETATM    8  C2  UNL     1      91.657  43.058  50.286  1.00  0.00     0.077 C
BRANCH   8   9
HETATM    9  N1  UNL     1      91.833  42.187  51.372  1.00  0.00    -0.405 N
HETATM   10  C1  UNL     1      90.715  41.535  51.938  1.00  0.00     0.145 C
ATOM     11  H1  UNL     1      92.766  42.024  51.751  1.00  0.00     0.158 HD
ENDBRANCH   8   9
ENDBRANCH   7   8
ENDBRANCH   1   7
BRANCH   6  12
HETATM   12  N5  UNL     1      91.748  43.202  46.964  1.00  0.00    -0.233 N
ATOM     13  H52 UNL     1      91.037  42.853  46.320  1.00  0.00     0.174 HD
ATOM     14  H51 UNL     1      91.506  44.146  47.264  1.00  0.00     0.174 HD
ENDBRANCH   6  12
BRANCH   3  15
HETATM   15  N3  UNL     1      95.430  40.467  47.094  1.00  0.00    -0.363 N
ATOM     16  H32 UNL     1      95.218  39.610  46.583  1.00  0.00     0.159 HD
ATOM     17  H31 UNL     1      96.434  40.517  47.271  1.00  0.00     0.159 HD
ENDBRANCH   3  15
TORSDOF 5
ENDMDL