MODEL 2
REMARK VINA RESULT: -7.112292371      1.183      1.632
REMARK  5 active torsions:
REMARK  status: ('A' for Active; 'I' for Inactive)
REMARK    1  A    between atoms: C5_5  and  N1_6
REMARK    2  A    between atoms: N1_6  and  C6_9
REMARK    3  A    between atoms: C6_9  and  C7_10
REMARK    4  A    between atoms: C7_10  and  N2_11
REMARK    5  A    between atoms: C8_13  and  C9_14
ROOT
HETATM    1  N1  UNL     1      35.436  10.135 107.395  1.00  0.00    -0.069 N
ATOM      2  H11 UNL     1      36.270  10.464 106.909  1.00  0.00     0.277 HD
ATOM      3  H12 UNL     1      35.719  10.346 108.352  1.00  0.00     0.277 HD
ENDROOT
BRANCH   1   4
HETATM    4  C5  UNL     1      35.234   8.728 107.202  1.00  0.00     0.186 C
HETATM    5  C4  UNL     1      35.546   7.848 108.362  1.00  0.00     0.033 C
HETATM    6  C3  UNL     1      34.471   7.965 109.390  1.00  0.00     0.002 C
HETATM    7  C2  UNL     1      33.233   7.199 109.157  1.00  0.00     0.000 C
HETATM    8  C1  UNL     1      33.158   6.335 107.952  1.00  0.00     0.000 C
HETATM    9  C14 UNL     1      33.560   7.032 106.674  1.00  0.00     0.002 C
HETATM   10  C13 UNL     1      33.746   8.497 106.859  1.00  0.00     0.033 C
ENDBRANCH   1   4
BRANCH   1  11
HETATM   11  C6  UNL     1      34.277  10.881 107.014  1.00  0.00     0.252 C
BRANCH  11  12
HETATM   12  C7  UNL     1      33.903  11.858 108.174  1.00  0.00     0.146 C
BRANCH  12  13
HETATM   13  N2  UNL     1      32.998  11.242 109.034  1.00  0.00    -0.400 N
HETATM   14  C8  UNL     1      32.300  11.824 110.049  1.00  0.00     0.060 C
ATOM     15  H2  UNL     1      32.840  10.246 108.888  1.00  0.00     0.158 HD
BRANCH  14  16
HETATM   16  C9  UNL     1      31.234  12.810 109.852  1.00  0.00     0.024 C
HETATM   17  C10 UNL     1      29.969  12.566 110.707  1.00  0.00     0.010 C
HETATM   18  C11 UNL     1      29.250  13.414 109.648  1.00  0.00     0.001 C
HETATM   19  C12 UNL     1      30.390  12.978 108.671  1.00  0.00     0.010 C
ENDBRANCH  14  16
ENDBRANCH  12  13
ENDBRANCH  11  12
ENDBRANCH   1  11
TORSDOF 5
ENDMDL