MODEL 1
REMARK VINA RESULT: -7.394527017      0.000      0.000
REMARK  7 active torsions:
REMARK  status: ('A' for Active; 'I' for Inactive)
REMARK    1  A    between atoms: C2_2  and  C3_3
REMARK    2  A    between atoms: C3_3  and  O1_4
REMARK    3  A    between atoms: C3_3  and  C4_6
REMARK    4  A    between atoms: C4_6  and  C5_7
REMARK    5  A    between atoms: C4_6  and  N1_13
REMARK    6  A    between atoms: C5_7  and  C6_8
REMARK    7  A    between atoms: N1_13  and  C11_16
ROOT
HETATM    1  C4  UNL     1      33.802  10.373 108.616  1.00  0.00     0.218 C
ENDROOT
BRANCH   1   2
HETATM    2  C3  UNL     1      34.013  10.815 107.160  1.00  0.00     0.170 C
BRANCH   2   3
HETATM    3  C2  UNL     1      34.865   9.876 106.412  1.00  0.00    -0.004 C
HETATM    4  C1  UNL     1      36.175   9.797 106.676  1.00  0.00     0.009 C
ENDBRANCH   2   3
BRANCH   2   5
HETATM    5  O1  UNL     1      34.571  12.117 107.186  1.00  0.00    -0.390 OA
ATOM      6  H1  UNL     1      34.896  12.375 106.331  1.00  0.00     0.210 HD
ENDBRANCH   2   5
ENDBRANCH   1   2
BRANCH   1   7
HETATM    7  C5  UNL     1      32.832   9.252 108.628  1.00  0.00     0.040 C
BRANCH   7   8
HETATM    8  C6  UNL     1      33.289   7.951 109.182  1.00  0.00    -0.013 C
HETATM    9  C7  UNL     1      33.174   6.766 108.331  1.00  0.00     0.005 C
HETATM   10  C8  UNL     1      34.627   6.505 107.869  1.00  0.00     0.000 C
HETATM   11  C9  UNL     1      35.371   6.730 109.166  1.00  0.00     0.000 C
HETATM   12  C10 UNL     1      34.738   8.038 109.636  1.00  0.00     0.005 C
ENDBRANCH   7   8
ENDBRANCH   1   7
BRANCH   1  13
HETATM   13  N1  UNL     1      33.460  11.497 109.433  1.00  0.00    -0.064 N
ATOM     14  H12 UNL     1      33.929  11.457 110.338  1.00  0.00     0.278 HD
ATOM     15  H11 UNL     1      33.876  12.358 109.078  1.00  0.00     0.278 HD
BRANCH  13  16
HETATM   16  C11 UNL     1      32.050  11.622 109.582  1.00  0.00     0.186 C
HETATM   17  C12 UNL     1      31.384  12.482 108.503  1.00  0.00     0.033 C
HETATM   18  C13 UNL     1      30.382  12.891 109.561  1.00  0.00     0.004 C
HETATM   19  C14 UNL     1      31.508  12.609 110.575  1.00  0.00     0.033 C
ENDBRANCH  13  16
ENDBRANCH   1  13
TORSDOF 7
ENDMDL