MODEL 1
REMARK VINA RESULT: -7.103689307      0.000      0.000
REMARK  6 active torsions:
REMARK  status: ('A' for Active; 'I' for Inactive)
REMARK    1  A    between atoms: C2_2  and  N1_3
REMARK    2  A    between atoms: N1_3  and  C3_6
REMARK    3  A    between atoms: C6_9  and  C7_10
REMARK    4  A    between atoms: C7_10  and  N2_11
REMARK    5  A    between atoms: N2_11  and  C8_13
REMARK    6  A    between atoms: C8_13  and  C9_14
ROOT
HETATM    1  C3  UNL     1      35.596   6.425 108.708  1.00  0.00     0.186 C
HETATM    2  C4  UNL     1      34.657   6.241 107.533  1.00  0.00     0.033 C
HETATM    3  C5  UNL     1      33.302   6.447 108.140  1.00  0.00     0.008 C
HETATM    4  C6  UNL     1      33.488   7.402 109.276  1.00  0.00     0.005 C
HETATM    5  C14 UNL     1      35.007   7.592 109.432  1.00  0.00     0.039 C
ENDROOT
BRANCH   4   6
HETATM    6  C7  UNL     1      32.870   8.753 108.834  1.00  0.00     0.123 C
BRANCH   6   7
HETATM    7  N2  UNL     1      33.842   9.777 109.059  1.00  0.00    -0.401 N
ATOM      8  H2  UNL     1      34.797   9.698 108.708  1.00  0.00     0.158 HD
BRANCH   7   9
HETATM    9  C8  UNL     1      33.414  10.896 109.785  1.00  0.00     0.060 C
BRANCH   9  10
HETATM   10  C9  UNL     1      32.160  11.582 109.542  1.00  0.00     0.024 C
HETATM   11  C10 UNL     1      32.049  12.303 108.181  1.00  0.00     0.010 C
HETATM   12  C11 UNL     1      30.558  12.648 108.246  1.00  0.00     0.001 C
HETATM   13  C12 UNL     1      30.294  12.952 109.702  1.00  0.00     0.001 C
HETATM   14  C13 UNL     1      31.647  12.651 110.423  1.00  0.00     0.010 C
ENDBRANCH   9  10
ENDBRANCH   7   9
ENDBRANCH   6   7
ENDBRANCH   4   6
BRANCH   1  15
HETATM   15  N1  UNL     1      36.958   6.669 108.225  1.00  0.00    -0.071 N
ATOM     16  H12 UNL     1      37.379   7.506 108.627  1.00  0.00     0.277 HD
ATOM     17  H11 UNL     1      36.989   6.961 107.249  1.00  0.00     0.277 HD
BRANCH  15  18
HETATM   18  C2  UNL     1      37.722   5.479 108.480  1.00  0.00     0.228 C
HETATM   19  C1  UNL     1      37.709   5.041 109.937  1.00  0.00     0.034 C
ENDBRANCH  15  18
ENDBRANCH   1  15
TORSDOF 6
ENDMDL