MODEL 3
REMARK VINA RESULT: -6.619103003      1.352      6.084
REMARK  6 active torsions:
REMARK  status: ('A' for Active; 'I' for Inactive)
REMARK    1  A    between atoms: C4_4  and  C5_5
REMARK    2  A    between atoms: C5_5  and  N1_6
REMARK    3  A    between atoms: N1_6  and  C6_8
REMARK    4  A    between atoms: C6_8  and  C7_9
REMARK    5  A    between atoms: C7_9  and  N2_10
REMARK    6  A    between atoms: N2_10  and  C8_13
ROOT
HETATM    1  C6  UNL     1      34.091   9.744 108.357  1.00  0.00     0.053 C
HETATM    2  C11 UNL     1      35.034   9.815 107.243  1.00  0.00     0.033 C
HETATM    3  C12 UNL     1      34.187  10.017 105.986  1.00  0.00     0.002 C
HETATM    4  C13 UNL     1      32.749   9.928 106.424  1.00  0.00     0.002 C
HETATM    5  C14 UNL     1      32.798   9.193 107.714  1.00  0.00     0.033 C
ENDROOT
BRANCH   1   6
HETATM    6  N1  UNL     1      34.362   8.977 109.495  1.00  0.00    -0.388 N
ATOM      7  H1  UNL     1      34.682   9.440 110.346  1.00  0.00     0.159 HD
BRANCH   6   8
HETATM    8  C5  UNL     1      34.201   7.584 109.488  1.00  0.00     0.084 C
BRANCH   8   9
HETATM    9  C4  UNL     1      35.515   6.932 109.258  1.00  0.00     0.019 C
HETATM   10  C2  UNL     1      35.827   6.192 108.242  1.00  0.00    -0.086 C
HETATM   11  C1  UNL     1      34.859   5.916 107.162  1.00  0.00     0.043 C
HETATM   12  C3  UNL     1      37.174   5.579 108.150  1.00  0.00     0.043 C
ENDBRANCH   8   9
ENDBRANCH   6   8
ENDBRANCH   1   6
BRANCH   1  13
HETATM   13  C7  UNL     1      33.728  11.153 108.774  1.00  0.00     0.263 C
BRANCH  13  14
HETATM   14  N2  UNL     1      32.815  11.206 109.892  1.00  0.00    -0.069 N
ATOM     15  H22 UNL     1      32.206  10.392 109.967  1.00  0.00     0.277 HD
ATOM     16  H21 UNL     1      33.267  11.099 110.800  1.00  0.00     0.277 HD
BRANCH  14  17
HETATM   17  C8  UNL     1      32.091  12.477 109.736  1.00  0.00     0.186 A
HETATM   18  C9  UNL     1      30.673  12.558 110.226  1.00  0.00     0.035 A
HETATM   19  C10 UNL     1      30.988  12.605 108.770  1.00  0.00     0.035 A
ENDBRANCH  14  17
ENDBRANCH  13  14
ENDBRANCH   1  13
TORSDOF 6
ENDMDL