MODEL 1
REMARK VINA RESULT: -7.194625181      0.000      0.000
REMARK  7 active torsions:
REMARK  status: ('A' for Active; 'I' for Inactive)
REMARK    1  A    between atoms: C2_2  and  C3_3
REMARK    2  A    between atoms: C3_3  and  C4_4
REMARK    3  A    between atoms: C4_4  and  O1_5
REMARK    4  A    between atoms: C4_4  and  C5_7
REMARK    5  A    between atoms: C5_7  and  C6_8
REMARK    6  A    between atoms: C5_7  and  N1_10
REMARK    7  A    between atoms: N1_10  and  C8_12
ROOT
HETATM    1  C5  UNL     1      33.048  10.638 108.090  1.00  0.00     0.105 C
ENDROOT
BRANCH   1   2
HETATM    2  C4  UNL     1      33.120  11.916 108.856  1.00  0.00     0.143 C
BRANCH   2   3
HETATM    3  C3  UNL     1      31.788  12.627 108.994  1.00  0.00     0.060 C
BRANCH   3   4
HETATM    4  C2  UNL     1      31.368  12.607 110.412  1.00  0.00    -0.034 C
HETATM    5  C1  UNL     1      30.072  12.544 110.724  1.00  0.00     0.007 C
ENDBRANCH   3   4
ENDBRANCH   2   3
BRANCH   2   6
HETATM    6  O1  UNL     1      34.161  12.710 108.475  1.00  0.00    -0.393 OA
ATOM      7  H1  UNL     1      34.533  13.245 109.167  1.00  0.00     0.210 HD
ENDBRANCH   2   6
ENDBRANCH   1   2
BRANCH   1   8
HETATM    8  C6  UNL     1      32.425  10.775 106.738  1.00  0.00     0.023 C
HETATM    9  C7  UNL     1      33.379  10.803 105.592  1.00  0.00     0.007 C
ENDBRANCH   1   8
BRANCH   1  10
HETATM   10  N1  UNL     1      34.400  10.118 108.026  1.00  0.00    -0.410 N
ATOM     11  H1  UNL     1      35.168  10.656 107.625  1.00  0.00     0.154 HD
BRANCH  10  12
HETATM   12  C8  UNL     1      34.589   8.825 108.552  1.00  0.00     0.081 C
HETATM   13  C9  UNL     1      33.313   8.146 109.005  1.00  0.00     0.029 C
HETATM   14  C10 UNL     1      33.470   6.695 108.634  1.00  0.00    -0.012 C
HETATM   15  C11 UNL     1      33.135   6.585 107.170  1.00  0.00     0.005 C
HETATM   16  C14 UNL     1      34.998   6.570 108.565  1.00  0.00     0.011 C
HETATM   17  C12 UNL     1      34.258   7.376 106.519  1.00  0.00     0.007 C
HETATM   18  C13 UNL     1      35.183   7.795 107.636  1.00  0.00     0.008 C
ENDBRANCH  10  12
ENDBRANCH   1  10
TORSDOF 7
ENDMDL