MODEL 2
REMARK VINA RESULT: -6.810338609      4.262      7.605
REMARK  5 active torsions:
REMARK  status: ('A' for Active; 'I' for Inactive)
REMARK    1  A    between atoms: C2_2  and  C3_3
REMARK    2  A    between atoms: C3_3  and  C4_4
REMARK    3  A    between atoms: C3_3  and  C10_14
REMARK    4  A    between atoms: C4_4  and  N1_5
REMARK    5  A    between atoms: N1_5  and  C5_7
ROOT
HETATM    1  C4  UNL     1      35.725   7.519 108.503  1.00  0.00     0.119 C
ENDROOT
BRANCH   1   2
HETATM    2  C3  UNL     1      34.434   8.010 109.109  1.00  0.00     0.007 C
BRANCH   2   3
HETATM    3  C2  UNL     1      33.325   7.032 108.998  1.00  0.00     0.002 C
HETATM    4  C1  UNL     1      33.213   6.233 107.765  1.00  0.00     0.005 C
ENDBRANCH   2   3
BRANCH   2   5
HETATM    5  C10 UNL     1      34.042   9.395 108.684  1.00  0.00    -0.009 C
HETATM    6  C11 UNL     1      32.699   9.854 109.131  1.00  0.00     0.005 C
HETATM    7  C12 UNL     1      32.463  11.058 108.240  1.00  0.00     0.000 C
HETATM    8  C13 UNL     1      32.782  10.409 106.883  1.00  0.00     0.000 C
HETATM    9  C14 UNL     1      34.088   9.666 107.227  1.00  0.00     0.005 C
ENDBRANCH   2   5
ENDBRANCH   1   2
BRANCH   1  10
HETATM   10  N1  UNL     1      36.383   6.536 109.292  1.00  0.00    -0.417 N
ATOM     11  H1  UNL     1      36.150   6.403 110.276  1.00  0.00     0.153 HD
BRANCH  10  12
HETATM   12  C5  UNL     1      37.377   5.748 108.656  1.00  0.00     0.079 C
HETATM   13  C6  UNL     1      36.903   4.922 107.509  1.00  0.00     0.044 C
HETATM   14  C7  UNL     1      37.761   3.667 107.422  1.00  0.00     0.115 C
HETATM   15  N2  UNL     1      39.106   3.865 107.854  1.00  0.00    -0.421 N
HETATM   16  C8  UNL     1      39.273   4.338 109.188  1.00  0.00     0.115 C
ATOM     17  H2  UNL     1      39.902   3.678 107.245  1.00  0.00     0.153 HD
HETATM   18  C9  UNL     1      37.930   4.783 109.714  1.00  0.00     0.044 C
ENDBRANCH  10  12
ENDBRANCH   1  10
TORSDOF 5
ENDMDL