MODEL 5
REMARK VINA RESULT: -6.388407204      1.498      5.284
REMARK  7 active torsions:
REMARK  status: ('A' for Active; 'I' for Inactive)
REMARK    1  A    between atoms: C2_2  and  C3_3
REMARK    2  A    between atoms: C3_3  and  C5_5
REMARK    3  A    between atoms: C5_5  and  N1_7
REMARK    4  A    between atoms: N1_7  and  C7_10
REMARK    5  A    between atoms: C7_10  and  C8_11
REMARK    6  A    between atoms: C8_11  and  N2_12
REMARK    7  A    between atoms: N2_12  and  C9_14
ROOT
HETATM    1  C7  UNL     1      35.158  10.593 107.348  1.00  0.00     0.277 C
ENDROOT
BRANCH   1   2
HETATM    2  N1  UNL     1      34.177   9.732 106.663  1.00  0.00    -0.067 N
ATOM      3  H12 UNL     1      34.193   9.825 105.647  1.00  0.00     0.278 HD
ATOM      4  H11 UNL     1      33.211  10.027 106.798  1.00  0.00     0.278 HD
BRANCH   2   5
HETATM    5  C5  UNL     1      34.444   8.368 107.131  1.00  0.00     0.185 C
HETATM    6  C6  UNL     1      35.808   8.185 107.614  1.00  0.00     0.040 C
BRANCH   5   7
HETATM    7  C3  UNL     1      33.303   7.738 107.830  1.00  0.00     0.011 C
HETATM    8  C4  UNL     1      33.035   8.345 109.200  1.00  0.00     0.012 C
BRANCH   7   9
HETATM    9  C2  UNL     1      33.265   6.268 107.864  1.00  0.00     0.002 C
HETATM   10  C1  UNL     1      32.963   5.488 106.651  1.00  0.00     0.005 C
ENDBRANCH   7   9
ENDBRANCH   5   7
ENDBRANCH   2   5
ENDBRANCH   1   2
BRANCH   1  11
HETATM   11  C8  UNL     1      34.607  11.918 107.707  1.00  0.00     0.083 C
BRANCH  11  12
HETATM   12  N2  UNL     1      33.820  12.031 108.835  1.00  0.00    -0.396 N
ATOM     13  H2  UNL     1      34.276  11.869 109.732  1.00  0.00     0.159 HD
BRANCH  12  14
HETATM   14  C9  UNL     1      32.474  12.341 108.868  1.00  0.00     0.080 C
HETATM   15  C10 UNL     1      31.599  12.158 107.673  1.00  0.00     0.025 C
HETATM   16  C11 UNL     1      30.252  12.773 108.033  1.00  0.00     0.002 C
HETATM   17  C12 UNL     1      30.248  13.521 109.323  1.00  0.00     0.000 C
HETATM   18  C13 UNL     1      30.720  12.733 110.516  1.00  0.00     0.002 C
HETATM   19  C14 UNL     1      31.718  11.705 110.039  1.00  0.00     0.025 C
ENDBRANCH  12  14
ENDBRANCH  11  12
ENDBRANCH   1  11
TORSDOF 7
ENDMDL