MODEL 4
REMARK VINA RESULT: -6.535075611      2.369      3.773
REMARK  6 active torsions:
REMARK  status: ('A' for Active; 'I' for Inactive)
REMARK    1  A    between atoms: C2_2  and  C3_3
REMARK    2  A    between atoms: C3_3  and  C4_4
REMARK    3  A    between atoms: C4_4  and  N1_5
REMARK    4  A    between atoms: N1_5  and  C5_7
REMARK    5  A    between atoms: C5_7  and  C6_8
REMARK    6  A    between atoms: C6_8  and  C7_9
ROOT
HETATM    1  N1  UNL     1      34.580   8.002 109.425  1.00  0.00    -0.413 N
ATOM      2  H1  UNL     1      35.195   8.530 110.044  1.00  0.00     0.154 HD
ENDROOT
BRANCH   1   3
HETATM    3  C4  UNL     1      35.116   7.125 108.418  1.00  0.00     0.025 C
HETATM    4  C10 UNL     1      34.057   6.135 107.937  1.00  0.00     0.030 C
HETATM    5  C11 UNL     1      34.447   5.561 106.600  1.00  0.00     0.002 C
HETATM    6  C12 UNL     1      34.164   6.669 105.574  1.00  0.00     0.000 C
HETATM    7  C13 UNL     1      34.654   7.989 106.093  1.00  0.00     0.002 C
HETATM    8  C14 UNL     1      35.657   7.848 107.231  1.00  0.00     0.030 C
BRANCH   3   9
HETATM    9  C3  UNL     1      36.164   6.255 109.013  1.00  0.00     0.030 C
BRANCH   9  10
HETATM   10  C2  UNL     1      37.454   6.058 108.366  1.00  0.00    -0.002 C
HETATM   11  C1  UNL     1      37.790   4.682 107.849  1.00  0.00     0.005 C
ENDBRANCH   9  10
ENDBRANCH   3   9
ENDBRANCH   1   3
BRANCH   1  12
HETATM   12  C5  UNL     1      33.176   8.107 109.526  1.00  0.00     0.115 C
BRANCH  12  13
HETATM   13  C6  UNL     1      32.718   9.423 108.932  1.00  0.00     0.027 C
BRANCH  13  14
HETATM   14  C7  UNL     1      33.559  10.596 109.306  1.00  0.00     0.038 C
HETATM   15  C8  UNL     1      32.684  11.841 109.352  1.00  0.00     0.238 C
HETATM   16  N2  UNL     1      33.773  12.573 108.740  1.00  0.00    -0.074 N
HETATM   17  C9  UNL     1      34.197  11.323 108.137  1.00  0.00     0.238 C
ATOM     18  H22 UNL     1      33.595  13.399 108.167  1.00  0.00     0.277 HD
ATOM     19  H21 UNL     1      34.416  13.128 109.304  1.00  0.00     0.277 HD
ENDBRANCH  13  14
ENDBRANCH  12  13
ENDBRANCH   1  12
TORSDOF 6
ENDMDL