MODEL 1
REMARK VINA RESULT: -6.293997244      0.000      0.000
REMARK  5 active torsions:
REMARK  status: ('A' for Active; 'I' for Inactive)
REMARK    1  A    between atoms: C2_2  and  C3_3
REMARK    2  A    between atoms: C7_9  and  N2_10
REMARK    3  A    between atoms: N2_10  and  C8_12
REMARK    4  A    between atoms: C8_12  and  C9_13
REMARK    5  A    between atoms: C8_12  and  C11_15
ROOT
HETATM    1  C3  UNL     1      33.769  11.359 108.715  1.00  0.00    -0.000 C
HETATM    2  C4  UNL     1      33.936  11.065 107.463  1.00  0.00     0.024 C
HETATM    3  N1  UNL     1      33.284  11.523 106.300  1.00  0.00    -0.392 N
ATOM      4  H1  UNL     1      32.774  12.403 106.232  1.00  0.00     0.159 HD
HETATM    5  C5  UNL     1      33.438  10.578 105.217  1.00  0.00     0.122 C
HETATM    6  C6  UNL     1      34.039   9.362 105.950  1.00  0.00     0.050 C
HETATM    7  C7  UNL     1      34.955  10.067 106.922  1.00  0.00     0.128 C
ENDROOT
BRANCH   7   8
HETATM    8  N2  UNL     1      35.542   9.331 107.932  1.00  0.00    -0.407 N
ATOM      9  H2  UNL     1      36.217   9.827 108.515  1.00  0.00     0.154 HD
BRANCH   8  10
HETATM   10  C8  UNL     1      35.326   8.013 108.248  1.00  0.00     0.081 C
BRANCH  10  11
HETATM   11  C9  UNL     1      34.575   7.717 109.528  1.00  0.00     0.021 C
HETATM   12  C10 UNL     1      33.112   7.401 109.296  1.00  0.00     0.007 C
ENDBRANCH  10  11
BRANCH  10  13
HETATM   13  C11 UNL     1      36.545   7.133 108.211  1.00  0.00     0.012 A
HETATM   14  C12 UNL     1      36.626   5.887 109.039  1.00  0.00     0.011 A
HETATM   15  C13 UNL     1      36.540   5.828 107.521  1.00  0.00    -0.012 A
HETATM   16  C14 UNL     1      35.262   5.239 106.960  1.00  0.00     0.010 C
ENDBRANCH  10  13
ENDBRANCH   8  10
ENDBRANCH   7   8
BRANCH   1  17
HETATM   17  C2  UNL     1      32.723  12.354 109.129  1.00  0.00     0.025 C
HETATM   18  C1  UNL     1      31.745  11.619 110.029  1.00  0.00     0.009 C
ENDBRANCH   1  17
TORSDOF 5
ENDMDL