MODEL 5
REMARK VINA RESULT: -6.818763394      3.055      4.435
REMARK  3 active torsions:
REMARK  status: ('A' for Active; 'I' for Inactive)
REMARK    1  A    between atoms: N1_4  and  N2_6
REMARK       I    between atoms: N2_6  and  C4_8
REMARK    2  A    between atoms: N4_10  and  N5_12
REMARK    3  A    between atoms: C5_14  and  C6_15
ROOT
HETATM    1  C1  UNL     1      14.697  16.065  14.247  1.00  0.00     0.018 C
HETATM    2  C2  UNL     1      13.683  15.708  14.813  1.00  0.00    -0.071 C
HETATM    3  C3  UNL     1      12.472  15.283  15.461  1.00  0.00     0.170 C
HETATM    4  N1  UNL     1      12.467  14.883  16.677  1.00  0.00    -0.301 N
ATOM      5  H1  UNL     1      11.581  14.591  17.089  1.00  0.00     0.186 HD
ENDROOT
BRANCH   4   6
HETATM    6  N2  UNL     1      13.617  14.827  17.465  1.00  0.00    -0.272 N
HETATM    7  C4  UNL     1      13.598  14.591  18.856  1.00  0.00     0.222 C
HETATM    8  N3  UNL     1      13.201  13.345  19.382  1.00  0.00    -0.061 NA
HETATM    9  N4  UNL     1      13.947  15.521  19.662  1.00  0.00    -0.273 N
ATOM     10  H4  UNL     1      13.927  15.330  20.664  1.00  0.00     0.189 HD
ATOM     11  H2  UNL     1      14.521  14.964  17.012  1.00  0.00     0.189 HD
BRANCH   9  12
HETATM   12  N5  UNL     1      14.338  16.735  19.252  1.00  0.00    -0.309 N
HETATM   13  C5  UNL     1      15.196  17.543  19.558  1.00  0.00     0.118 C
ATOM     14  H5  UNL     1      13.766  17.072  18.477  1.00  0.00     0.186 HD
BRANCH  13  15
HETATM   15  C6  UNL     1      16.200  17.436  20.603  1.00  0.00    -0.019 A
HETATM   16  C7  UNL     1      15.799  17.526  21.953  1.00  0.00     0.013 A
HETATM   17  C8  UNL     1      16.691  17.434  22.973  1.00  0.00     0.001 A
HETATM   18  C9  UNL     1      18.021  17.247  22.694  1.00  0.00     0.000 A
HETATM   19  C10 UNL     1      18.429  17.157  21.386  1.00  0.00     0.001 A
HETATM   20  C11 UNL     1      17.536  17.249  20.331  1.00  0.00     0.013 A
ENDBRANCH  13  15
ENDBRANCH   9  12
ENDBRANCH   4   6
TORSDOF 3
ENDMDL