MODEL 4
REMARK VINA RESULT: -6.018109634      3.466      5.180
REMARK  5 active torsions:
REMARK  status: ('A' for Active; 'I' for Inactive)
REMARK    1  A    between atoms: C2_2  and  C3_3
REMARK       I    between atoms: C3_3  and  N1_5
REMARK    2  A    between atoms: N1_5  and  N2_6
REMARK    3  A    between atoms: N2_6  and  C4_8
REMARK    4  A    between atoms: C4_8  and  N3_10
REMARK    5  A    between atoms: N3_10  and  C5_12
ROOT
HETATM    1  C4  UNL     1      16.212  17.195  22.130  1.00  0.00     0.197 C
HETATM    2  S1  UNL     1      15.365  17.053  23.515  1.00  0.00    -0.039 SA
ENDROOT
BRANCH   1   3
HETATM    3  N2  UNL     1      17.644  17.057  22.176  1.00  0.00    -0.205 N
ATOM      4  H2  UNL     1      18.056  16.714  23.044  1.00  0.00     0.204 HD
BRANCH   3   5
HETATM    5  N1  UNL     1      18.458  17.335  21.192  1.00  0.00    -0.280 NA
HETATM    6  C3  UNL     1      19.302  17.623  20.176  1.00  0.00     0.335 C
HETATM    7  O1  UNL     1      20.446  17.136  19.956  1.00  0.00    -0.250 OA
BRANCH   6   8
HETATM    8  C2  UNL     1      18.896  18.616  19.174  1.00  0.00     0.082 C
HETATM    9  C1  UNL     1      17.755  18.729  18.582  1.00  0.00     0.018 C
ENDBRANCH   6   8
ENDBRANCH   3   5
ENDBRANCH   1   3
BRANCH   1  10
HETATM   10  N3  UNL     1      15.525  17.468  20.931  1.00  0.00    -0.361 N
ATOM     11  H3  UNL     1      15.462  18.450  20.664  1.00  0.00     0.162 HD
BRANCH  10  12
HETATM   12  C5  UNL     1      14.925  16.564  20.073  1.00  0.00     0.083 C
HETATM   13  C6  UNL     1      15.730  15.652  19.198  1.00  0.00     0.025 C
HETATM   14  C7  UNL     1      14.570  14.832  18.577  1.00  0.00     0.002 C
HETATM   15  C8  UNL     1      13.403  15.827  18.483  1.00  0.00     0.002 C
HETATM   16  C9  UNL     1      13.998  17.153  18.988  1.00  0.00     0.025 C
ENDBRANCH  10  12
ENDBRANCH   1  10
TORSDOF 5
ENDMDL