MODEL 1
REMARK VINA RESULT: -6.743561570      0.000      0.000
REMARK  4 active torsions:
REMARK  status: ('A' for Active; 'I' for Inactive)
REMARK       I    between atoms: C1_2  and  N3_7
REMARK    1  A    between atoms: N2_3  and  O1_5
REMARK    2  A    between atoms: N3_7  and  C2_9
REMARK    3  A    between atoms: C2_9  and  C3_10
REMARK    4  A    between atoms: C5_12  and  N4_13
ROOT
HETATM    1  C3  UNL     1      15.316  16.586  20.200  1.00  0.00     0.039 A
HETATM    2  C4  UNL     1      15.987  17.632  19.398  1.00  0.00     0.044 A
HETATM    3  C5  UNL     1      14.535  17.340  19.193  1.00  0.00     0.229 A
ENDROOT
BRANCH   1   4
HETATM    4  C2  UNL     1      15.126  16.889  21.668  1.00  0.00     0.129 C
BRANCH   4   5
HETATM    5  N3  UNL     1      13.757  16.588  22.022  1.00  0.00    -0.363 N
HETATM    6  C1  UNL     1      13.305  16.532  23.363  1.00  0.00     0.208 C
HETATM    7  N1  UNL     1      14.094  15.891  24.335  1.00  0.00    -0.062 NA
HETATM    8  N2  UNL     1      12.192  17.063  23.687  1.00  0.00    -0.241 N
ATOM      9  H2  UNL     1      11.902  17.007  24.664  1.00  0.00     0.197 HD
ATOM     10  H3  UNL     1      13.088  16.408  21.273  1.00  0.00     0.162 HD
BRANCH   8  11
HETATM   11  O1  UNL     1      11.358  17.706  22.803  1.00  0.00    -0.287 OA
ATOM     12  H1  UNL     1      11.603  17.947  21.918  1.00  0.00     0.244 HD
ENDBRANCH   8  11
ENDBRANCH   4   5
ENDBRANCH   1   4
BRANCH   3  13
HETATM   13  N4  UNL     1      14.150  16.770  17.946  1.00  0.00     0.093 N
HETATM   14  C6  UNL     1      13.275  17.566  17.144  1.00  0.00     0.273 C
HETATM   15  C7  UNL     1      13.216  16.934  15.748  1.00  0.00     0.030 C
HETATM   16  C8  UNL     1      12.806  15.499  15.806  1.00  0.00     0.003 C
HETATM   17  C9  UNL     1      12.462  15.134  17.215  1.00  0.00     0.030 C
HETATM   18  C10 UNL     1      13.551  15.473  18.194  1.00  0.00     0.273 C
ENDBRANCH   3  13
TORSDOF 4
ENDMDL