MODEL 2
REMARK VINA RESULT: -6.816240289      1.803      2.631
REMARK  3 active torsions:
REMARK  status: ('A' for Active; 'I' for Inactive)
REMARK    1  A    between atoms: N3_4  and  C2_6
REMARK    2  A    between atoms: C6_10  and  N4_11
REMARK    3  A    between atoms: N4_11  and  C7_13
ROOT
HETATM    1  C2  UNL     1      14.065  16.126  20.879  1.00  0.00     0.085 C
HETATM    2  C3  UNL     1      13.482  15.434  19.658  1.00  0.00     0.025 C
HETATM    3  C4  UNL     1      14.641  14.658  19.066  1.00  0.00     0.004 C
HETATM    4  C5  UNL     1      15.727  15.583  18.563  1.00  0.00     0.025 C
HETATM    5  C6  UNL     1      15.706  16.965  19.130  1.00  0.00     0.078 C
HETATM    6  C11 UNL     1      15.151  17.074  20.539  1.00  0.00     0.050 C
ENDROOT
BRANCH   5   7
HETATM    7  N4  UNL     1      15.169  17.987  18.343  1.00  0.00    -0.413 N
ATOM      8  H4  UNL     1      15.142  18.914  18.766  1.00  0.00     0.154 HD
BRANCH   7   9
HETATM    9  C7  UNL     1      14.680  17.891  17.082  1.00  0.00     0.077 C
HETATM   10  C8  UNL     1      14.954  18.803  15.936  1.00  0.00     0.025 C
HETATM   11  C9  UNL     1      13.756  18.055  15.267  1.00  0.00     0.004 C
HETATM   12  C10 UNL     1      13.218  18.034  16.725  1.00  0.00     0.025 C
ENDBRANCH   7   9
ENDBRANCH   5   7
BRANCH   1  13
HETATM   13  N3  UNL     1      13.127  16.608  21.800  1.00  0.00    -0.362 N
HETATM   14  C1  UNL     1      13.056  16.745  23.031  1.00  0.00     0.197 C
HETATM   15  N1  UNL     1      11.887  17.297  23.608  1.00  0.00    -0.067 NA
HETATM   16  N2  UNL     1      14.103  16.371  23.902  1.00  0.00    -0.067 NA
ATOM     17  H3  UNL     1      12.277  16.931  21.336  1.00  0.00     0.162 HD
ENDBRANCH   1  13
TORSDOF 3
ENDMDL