MODEL 5
REMARK VINA RESULT: -5.926162284      1.716      1.971
REMARK  8 active torsions:
REMARK  status: ('A' for Active; 'I' for Inactive)
REMARK    1  A    between atoms: N1_1  and  N2_4
REMARK    2  A    between atoms: N2_4  and  N3_5
REMARK    3  A    between atoms: N3_5  and  C1_7
REMARK    4  A    between atoms: C1_7  and  C2_8
REMARK    5  A    between atoms: C2_8  and  O1_9
REMARK    6  A    between atoms: C2_8  and  N4_11
REMARK    7  A    between atoms: N4_11  and  C3_13
REMARK    8  A    between atoms: C9_19  and  O2_20
ROOT
HETATM    1  N4  UNL     1      16.354  17.436  21.011  1.00  0.00    -0.388 N
ATOM      2  H4  UNL     1      16.415  18.391  20.659  1.00  0.00     0.156 HD
ENDROOT
BRANCH   1   3
HETATM    3  C2  UNL     1      17.127  17.114  22.107  1.00  0.00     0.234 C
BRANCH   3   4
HETATM    4  C1  UNL     1      16.684  17.660  23.456  1.00  0.00     0.208 C
BRANCH   4   5
HETATM    5  N3  UNL     1      15.708  16.801  24.102  1.00  0.00    -0.248 N
ATOM      6  H3  UNL     1      16.003  16.246  24.906  1.00  0.00     0.197 HD
BRANCH   5   7
HETATM    7  N2  UNL     1      14.543  16.711  23.723  1.00  0.00    -0.248 NA
BRANCH   7   8
HETATM    8  N1  UNL     1      13.378  16.358  23.482  1.00  0.00    -0.261 N
ATOM      9  H12 UNL     1      13.228  17.144  22.849  1.00  0.00     0.193 HD
ATOM     10  H11 UNL     1      12.475  15.886  23.439  1.00  0.00     0.193 HD
ENDBRANCH   7   8
ENDBRANCH   5   7
ENDBRANCH   4   5
ENDBRANCH   3   4
BRANCH   3  11
HETATM   11  O1  UNL     1      18.519  17.273  21.951  1.00  0.00    -0.375 OA
ATOM     12  H1  UNL     1      18.984  16.712  22.560  1.00  0.00     0.212 HD
ENDBRANCH   3  11
ENDBRANCH   1   3
BRANCH   1  13
HETATM   13  C3  UNL     1      15.507  16.572  20.351  1.00  0.00     0.112 C
HETATM   14  C4  UNL     1      16.031  16.443  18.908  1.00  0.00     0.011 C
HETATM   15  C5  UNL     1      15.240  15.441  18.129  1.00  0.00     0.007 C
HETATM   16  C8  UNL     1      15.429  17.745  18.349  1.00  0.00     0.014 C
HETATM   17  C6  UNL     1      13.881  16.099  17.830  1.00  0.00     0.007 C
HETATM   18  C7  UNL     1      13.981  17.343  18.688  1.00  0.00     0.017 C
HETATM   19  C9  UNL     1      14.101  16.906  20.116  1.00  0.00     0.145 C
BRANCH  19  20
HETATM   20  O2  UNL     1      13.334  15.723  20.244  1.00  0.00    -0.393 OA
ATOM     21  H2  UNL     1      12.761  15.653  19.489  1.00  0.00     0.210 HD
ENDBRANCH  19  20
ENDBRANCH   1  13
TORSDOF 8
ENDMDL