MODEL 1
REMARK VINA RESULT: -5.510353507      0.000      0.000
REMARK  6 active torsions:
REMARK  status: ('A' for Active; 'I' for Inactive)
REMARK    1  A    between atoms: C2_2  and  C4_4
REMARK    2  A    between atoms: C4_4  and  C5_5
REMARK    3  A    between atoms: C5_5  and  O1_6
REMARK    4  A    between atoms: C5_5  and  C6_8
REMARK    5  A    between atoms: C9_11  and  O2_12
REMARK    6  A    between atoms: C12_16  and  O3_17
ROOT
HETATM    1  C4  UNL     1      13.167  16.959  16.265  1.00  0.00     0.047 C
HETATM    2  C9  UNL     1      12.416  18.199  16.047  1.00  0.00     0.155 C
HETATM    3  C10 UNL     1      11.108  17.779  15.412  1.00  0.00     0.004 C
HETATM    4  C11 UNL     1      11.144  16.538  15.014  1.00  0.00     0.004 C
HETATM    5  C12 UNL     1      12.473  15.967  15.330  1.00  0.00     0.155 C
ENDROOT
BRANCH   1   6
HETATM    6  C2  UNL     1      14.528  17.187  15.555  1.00  0.00    -0.006 C
HETATM    7  C1  UNL     1      14.919  16.078  14.648  1.00  0.00     0.010 C
HETATM    8  C3  UNL     1      15.608  17.668  16.449  1.00  0.00     0.010 C
ENDBRANCH   1   6
BRANCH   1   9
HETATM    9  C5  UNL     1      13.450  16.409  17.563  1.00  0.00     0.136 C
BRANCH   9  10
HETATM   10  O1  UNL     1      12.162  16.268  18.203  1.00  0.00    -0.394 OA
ATOM     11  H1  UNL     1      12.265  15.548  18.815  1.00  0.00     0.210 HD
ENDBRANCH   9  10
BRANCH   9  12
HETATM   12  C6  UNL     1      14.180  15.223  17.952  1.00  0.00     0.015 A
HETATM   13  C7  UNL     1      15.239  15.064  18.942  1.00  0.00     0.007 A
HETATM   14  C8  UNL     1      13.934  14.217  18.992  1.00  0.00     0.007 A
ENDBRANCH   9  12
ENDBRANCH   1   9
BRANCH   2  15
HETATM   15  O2  UNL     1      12.965  19.040  15.036  1.00  0.00    -0.391 OA
ATOM     16  H2  UNL     1      12.604  19.919  15.026  1.00  0.00     0.210 HD
ENDBRANCH   2  15
BRANCH   5  17
HETATM   17  O3  UNL     1      12.451  14.681  15.794  1.00  0.00    -0.391 OA
ATOM     18  H3  UNL     1      13.251  14.195  15.631  1.00  0.00     0.210 HD
ENDBRANCH   5  17
TORSDOF 6
ENDMDL