MODEL 5
REMARK VINA RESULT: -5.658923162      1.768      2.611
REMARK  4 active torsions:
REMARK  status: ('A' for Active; 'I' for Inactive)
REMARK    1  A    between atoms: N1_1  and  C1_5
REMARK    2  A    between atoms: C1_5  and  C2_6
REMARK    3  A    between atoms: C1_5  and  C6_13
REMARK       I    between atoms: C2_6  and  N2_8
REMARK    4  A    between atoms: N2_8  and  C3_10
ROOT
HETATM    1  C1  UNL     1      13.877  15.321  18.621  1.00  0.00     0.278 C
ENDROOT
BRANCH   1   2
HETATM    2  N1  UNL     1      15.030  14.405  18.670  1.00  0.00    -0.066 N
ATOM      3  H13 UNL     1      14.758  13.447  18.888  1.00  0.00     0.275 HD
ATOM      4  H12 UNL     1      15.430  14.232  17.748  1.00  0.00     0.275 HD
ATOM      5  H11 UNL     1      15.716  14.775  19.328  1.00  0.00     0.275 HD
ENDBRANCH   1   2
BRANCH   1   6
HETATM    6  C2  UNL     1      13.353  15.351  17.242  1.00  0.00     0.248 C
HETATM    7  O1  UNL     1      12.211  14.962  16.930  1.00  0.00    -0.271 OA
HETATM    8  N2  UNL     1      14.177  15.843  16.204  1.00  0.00    -0.355 N
ATOM      9  H2  UNL     1      15.115  16.165  16.443  1.00  0.00     0.162 HD
BRANCH   8  10
HETATM   10  C3  UNL     1      13.760  15.915  14.820  1.00  0.00     0.084 A
HETATM   11  C4  UNL     1      13.768  17.351  14.260  1.00  0.00     0.027 A
HETATM   12  C5  UNL     1      14.756  16.325  13.771  1.00  0.00     0.027 A
ENDBRANCH   8  10
ENDBRANCH   1   6
BRANCH   1  13
HETATM   13  C6  UNL     1      14.391  16.641  19.126  1.00  0.00     0.025 C
HETATM   14  C7  UNL     1      13.564  17.248  20.225  1.00  0.00     0.007 C
HETATM   15  C8  UNL     1      13.742  16.406  21.471  1.00  0.00     0.000 C
HETATM   16  C9  UNL     1      15.096  16.799  22.065  1.00  0.00     0.000 C
HETATM   17  C10 UNL     1      16.034  17.141  20.957  1.00  0.00     0.000 C
HETATM   18  C11 UNL     1      15.779  16.404  19.676  1.00  0.00     0.007 C
ENDBRANCH   1  13
TORSDOF 4
ENDMDL