MODEL 5
REMARK VINA RESULT: -6.070363933      3.885      5.718
REMARK  4 active torsions:
REMARK  status: ('A' for Active; 'I' for Inactive)
REMARK    1  A    between atoms: C6_6  and  C7_7
REMARK    2  A    between atoms: C7_7  and  N2_10
REMARK    3  A    between atoms: N2_10  and  N3_12
REMARK    4  A    between atoms: N3_12  and  C9_14
ROOT
HETATM    1  C7  UNL     1      17.606  17.627  19.791  1.00  0.00     0.213 C
HETATM    2  C8  UNL     1      19.049  17.425  19.934  1.00  0.00     0.086 C
HETATM    3  N1  UNL     1      20.190  17.285  20.042  1.00  0.00    -0.195 NA
ENDROOT
BRANCH   1   4
HETATM    4  C6  UNL     1      17.021  17.852  21.166  1.00  0.00     0.052 C
HETATM    5  C2  UNL     1      15.738  17.119  21.323  1.00  0.00    -0.082 C
HETATM    6  C1  UNL     1      15.020  16.589  20.369  1.00  0.00     0.015 C
HETATM    7  C3  UNL     1      15.448  17.119  22.764  1.00  0.00     0.034 C
HETATM    8  C4  UNL     1      16.801  17.234  23.428  1.00  0.00     0.005 C
HETATM    9  C5  UNL     1      17.829  17.243  22.280  1.00  0.00     0.012 C
ENDBRANCH   1   4
BRANCH   1  10
HETATM   10  N2  UNL     1      17.246  18.681  18.911  1.00  0.00    -0.316 N
ATOM     11  H2  UNL     1      16.842  19.551  19.257  1.00  0.00     0.181 HD
BRANCH  10  12
HETATM   12  N3  UNL     1      17.468  18.472  17.576  1.00  0.00    -0.282 N
ATOM     13  H3  UNL     1      18.361  18.108  17.246  1.00  0.00     0.188 HD
BRANCH  12  14
HETATM   14  C9  UNL     1      16.407  18.779  16.651  1.00  0.00     0.199 C
HETATM   15  N4  UNL     1      16.563  19.779  15.650  1.00  0.00    -0.068 NA
HETATM   16  S1  UNL     1      14.985  17.996  16.708  1.00  0.00    -0.043 SA
ENDBRANCH  12  14
ENDBRANCH  10  12
ENDBRANCH   1  10
TORSDOF 4
ENDMDL