MODEL 4
REMARK VINA RESULT: -6.438631845      1.383      1.742
REMARK  6 active torsions:
REMARK  status: ('A' for Active; 'I' for Inactive)
REMARK    1  A    between atoms: C2_2  and  C3_3
REMARK    2  A    between atoms: C2_2  and  C8_8
REMARK    3  A    between atoms: C4_4  and  C5_5
REMARK    4  A    between atoms: C10_10  and  O1_11
REMARK    5  A    between atoms: C11_13  and  O2_14
REMARK    6  A    between atoms: C12_16  and  O3_17
ROOT
HETATM    1  C8  UNL     1      15.058  16.883  18.341  1.00  0.00     0.027 C
HETATM    2  C9  UNL     1      15.366  16.668  16.870  1.00  0.00     0.042 C
HETATM    3  C10 UNL     1      14.059  16.520  16.159  1.00  0.00     0.149 C
HETATM    4  C11 UNL     1      13.074  16.240  17.270  1.00  0.00     0.176 C
HETATM    5  C12 UNL     1      13.586  17.202  18.348  1.00  0.00     0.154 C
ENDROOT
BRANCH   1   6
HETATM    6  C2  UNL     1      15.906  18.019  18.821  1.00  0.00     0.010 C
HETATM    7  C1  UNL     1      16.892  18.366  17.716  1.00  0.00     0.015 C
BRANCH   6   8
HETATM    8  C3  UNL     1      16.565  17.785  20.108  1.00  0.00    -0.026 C
HETATM    9  C4  UNL     1      15.902  17.578  21.221  1.00  0.00    -0.026 C
BRANCH   9  10
HETATM   10  C5  UNL     1      16.510  17.338  22.543  1.00  0.00     0.008 A
HETATM   11  C6  UNL     1      16.015  18.270  23.669  1.00  0.00     0.009 A
HETATM   12  C7  UNL     1      15.674  16.798  23.656  1.00  0.00     0.009 A
ENDBRANCH   9  10
ENDBRANCH   6   8
ENDBRANCH   1   6
BRANCH   5  13
HETATM   13  O3  UNL     1      12.953  16.884  19.523  1.00  0.00    -0.393 OA
ATOM     14  H3  UNL     1      12.051  16.604  19.412  1.00  0.00     0.210 HD
ENDBRANCH   5  13
BRANCH   3  15
HETATM   15  O1  UNL     1      14.068  15.541  15.185  1.00  0.00    -0.393 OA
ATOM     16  H1  UNL     1      14.928  15.168  15.029  1.00  0.00     0.210 HD
ENDBRANCH   3  15
BRANCH   4  17
HETATM   17  O2  UNL     1      11.794  16.541  16.869  1.00  0.00    -0.390 OA
ATOM     18  H2  UNL     1      11.801  17.243  16.229  1.00  0.00     0.210 HD
ENDBRANCH   4  17
TORSDOF 6
ENDMDL