MODEL 4
REMARK VINA RESULT: -8.464574179      2.186      9.865
REMARK  16 active torsions:
REMARK  status: ('A' for Active; 'I' for Inactive)
REMARK    1  A    between atoms: C2_2  and  C3_3
REMARK    2  A    between atoms: C3_3  and  C4_4
REMARK    3  A    between atoms: C3_3  and  C7_10
REMARK    4  A    between atoms: C4_4  and  O2_6
REMARK    5  A    between atoms: O2_6  and  C5_7
REMARK    6  A    between atoms: C7_10  and  C8_11
REMARK    7  A    between atoms: C7_10  and  C29_40
REMARK       I    between atoms: C8_11  and  N1_13
REMARK    8  A    between atoms: N1_13  and  C9_15
REMARK    9  A    between atoms: C9_15  and  C10_16
REMARK   10  A    between atoms: C9_15  and  C24_32
REMARK   11  A    between atoms: C10_16  and  C11_17
REMARK   12  A    between atoms: C11_17  and  O5_19
REMARK   13  A    between atoms: O5_19  and  C13_20
REMARK   14  A    between atoms: C13_20  and  C14_22
REMARK       I    between atoms: C24_32  and  N2_34
REMARK   15  A    between atoms: N2_34  and  C25_36
REMARK   16  A    between atoms: C29_40  and  O9_42
ROOT
HETATM    1  C9  UNL     1      16.714  22.906  16.669  1.00  0.00     0.179 C
ENDROOT
BRANCH   1   2
HETATM    2  N1  UNL     1      17.786  23.833  16.325  1.00  0.00    -0.347 N
HETATM    3  C8  UNL     1      17.890  25.116  16.854  1.00  0.00     0.233 C
HETATM    4  O4  UNL     1      17.011  25.495  17.677  1.00  0.00    -0.273 OA
ATOM      5  H1  UNL     1      18.496  23.525  15.661  1.00  0.00     0.163 HD
BRANCH   3   6
HETATM    6  C7  UNL     1      18.956  26.071  16.524  1.00  0.00     0.194 C
BRANCH   6   7
HETATM    7  C3  UNL     1      20.294  25.762  17.142  1.00  0.00     0.130 C
BRANCH   7   8
HETATM    8  C2  UNL     1      20.915  27.039  17.655  1.00  0.00    -0.021 C
HETATM    9  C1  UNL     1      22.205  27.293  17.596  1.00  0.00     0.008 C
ENDBRANCH   7   8
BRANCH   7  10
HETATM   10  C4  UNL     1      20.262  24.858  18.302  1.00  0.00     0.275 C
HETATM   11  O1  UNL     1      20.323  23.622  18.210  1.00  0.00    -0.264 OA
BRANCH  10  12
HETATM   12  O2  UNL     1      20.156  25.386  19.587  1.00  0.00    -0.245 OA
BRANCH  12  13
HETATM   13  C5  UNL     1      20.561  24.656  20.701  1.00  0.00     0.262 C
HETATM   14  C6  UNL     1      21.976  24.466  21.091  1.00  0.00     0.126 C
HETATM   15  O3  UNL     1      19.657  24.127  21.420  1.00  0.00    -0.265 OA
ENDBRANCH  12  13
ENDBRANCH  10  12
ENDBRANCH   7  10
ENDBRANCH   6   7
BRANCH   6  16
HETATM   16  C29 UNL     1      19.150  26.188  15.048  1.00  0.00     0.272 C
HETATM   17  O8  UNL     1      18.138  26.097  14.319  1.00  0.00    -0.264 OA
BRANCH  16  18
HETATM   18  O9  UNL     1      20.378  26.386  14.462  1.00  0.00    -0.326 OA
HETATM   19  C30 UNL     1      20.861  27.666  14.059  1.00  0.00     0.213 C
ENDBRANCH  16  18
ENDBRANCH   6  16
ENDBRANCH   3   6
ENDBRANCH   1   2
BRANCH   1  20
HETATM   20  C10 UNL     1      17.233  21.695  17.365  1.00  0.00     0.067 C
BRANCH  20  21
HETATM   21  C11 UNL     1      16.824  21.560  18.815  1.00  0.00     0.130 C
HETATM   22  C12 UNL     1      17.965  21.558  19.758  1.00  0.00     0.040 C
BRANCH  21  23
HETATM   23  O5  UNL     1      15.918  20.503  18.921  1.00  0.00    -0.316 OA
BRANCH  23  24
HETATM   24  C13 UNL     1      14.552  20.632  18.945  1.00  0.00     0.268 C
HETATM   25  O6  UNL     1      14.140  21.836  18.850  1.00  0.00    -0.264 OA
BRANCH  24  26
HETATM   26  C14 UNL     1      13.594  19.527  19.069  1.00  0.00     0.049 C
HETATM   27  C15 UNL     1      12.334  19.756  18.272  1.00  0.00     0.024 C
HETATM   28  C16 UNL     1      11.469  18.538  18.376  1.00  0.00    -0.013 C
HETATM   29  C17 UNL     1      12.140  17.274  17.921  1.00  0.00     0.009 C
HETATM   30  C21 UNL     1      11.054  18.349  19.826  1.00  0.00     0.009 C
HETATM   31  C18 UNL     1      13.388  17.044  18.753  1.00  0.00    -0.013 C
HETATM   32  C19 UNL     1      13.056  16.891  20.207  1.00  0.00     0.009 C
HETATM   33  C23 UNL     1      14.258  18.267  18.572  1.00  0.00     0.024 C
HETATM   34  C20 UNL     1      12.283  18.119  20.643  1.00  0.00    -0.013 C
HETATM   35  C22 UNL     1      13.197  19.302  20.514  1.00  0.00     0.024 C
ENDBRANCH  24  26
ENDBRANCH  23  24
ENDBRANCH  21  23
ENDBRANCH  20  21
ENDBRANCH   1  20
BRANCH   1  36
HETATM   36  C24 UNL     1      15.973  22.421  15.457  1.00  0.00     0.241 C
HETATM   37  O7  UNL     1      16.436  22.414  14.308  1.00  0.00    -0.271 OA
HETATM   38  N2  UNL     1      14.654  21.938  15.628  1.00  0.00    -0.351 N
ATOM     39  H2  UNL     1      14.253  21.933  16.566  1.00  0.00     0.163 HD
BRANCH  38  40
HETATM   40  C25 UNL     1      13.848  21.450  14.525  1.00  0.00     0.022 C
HETATM   41  C26 UNL     1      13.001  22.533  13.918  1.00  0.00     0.037 C
HETATM   42  C27 UNL     1      12.902  20.361  15.023  1.00  0.00     0.037 C
HETATM   43  C28 UNL     1      14.675  20.823  13.421  1.00  0.00     0.037 C
ENDBRANCH  38  40
ENDBRANCH   1  36
TORSDOF 16
ENDMDL