MODEL 1
REMARK VINA RESULT: -8.688537303      0.000      0.000
REMARK  12 active torsions:
REMARK  status: ('A' for Active; 'I' for Inactive)
REMARK    1  A    between atoms: C2_2  and  C3_3
REMARK    2  A    between atoms: C3_3  and  C4_4
REMARK    3  A    between atoms: C4_4  and  C5_5
REMARK    4  A    between atoms: C5_5  and  N1_6
REMARK    5  A    between atoms: C7_8  and  C8_9
REMARK    6  A    between atoms: C7_8  and  N3_12
REMARK    7  A    between atoms: C11_14  and  C12_15
REMARK    8  A    between atoms: C12_15  and  N4_16
REMARK       I    between atoms: N4_16  and  C13_18
REMARK    9  A    between atoms: C13_18  and  C14_20
REMARK   10  A    between atoms: C14_20  and  C15_21
REMARK   11  A    between atoms: C14_20  and  N5_23
REMARK   12  A    between atoms: N6_26  and  C19_27
ROOT
HETATM    1  C8  UNL     1      18.988  21.892  19.726  1.00  0.00     0.181 C
HETATM    2  C9  UNL     1      17.696  21.201  19.530  1.00  0.00     0.063 C
HETATM    3  N2  UNL     1      16.676  20.666  19.392  1.00  0.00    -0.197 NA
ENDROOT
BRANCH   1   4
HETATM    4  C7  UNL     1      18.938  23.137  18.857  1.00  0.00     0.159 A
HETATM    5  C6  UNL     1      18.465  22.823  17.478  1.00  0.00     0.185 A
HETATM    6  N1  UNL     1      17.251  23.584  17.282  1.00  0.00    -0.320 N
HETATM    7  C24 UNL     1      16.972  24.277  18.475  1.00  0.00     0.323 A
HETATM    8  N10 UNL     1      18.002  24.039  19.444  1.00  0.00    -0.307 N
HETATM    9  O2  UNL     1      15.996  25.038  18.797  1.00  0.00    -0.247 OA
HETATM   10  C23 UNL     1      18.128  24.583  20.783  1.00  0.00     0.157 C
BRANCH   6  11
HETATM   11  C5  UNL     1      16.416  23.659  16.080  1.00  0.00     0.037 C
HETATM   12  C25 UNL     1      16.900  22.689  15.027  1.00  0.00     0.031 C
HETATM   13  C26 UNL     1      16.009  21.496  14.850  1.00  0.00     0.002 C
HETATM   14  C27 UNL     1      14.863  21.762  13.902  1.00  0.00     0.000 C
HETATM   15  C28 UNL     1      13.695  22.412  14.548  1.00  0.00     0.000 C
HETATM   16  C29 UNL     1      13.996  23.638  15.359  1.00  0.00     0.002 C
HETATM   17  C30 UNL     1      14.991  23.456  16.451  1.00  0.00     0.031 C
BRANCH  11  18
HETATM   18  C4  UNL     1      16.622  25.038  15.492  1.00  0.00     0.031 C
BRANCH  18  19
HETATM   19  C3  UNL     1      18.088  25.240  15.087  1.00  0.00     0.002 C
BRANCH  19  20
HETATM   20  C2  UNL     1      18.157  26.539  14.285  1.00  0.00    -0.004 C
HETATM   21  C1  UNL     1      19.506  27.171  14.392  1.00  0.00     0.005 C
ENDBRANCH  19  20
ENDBRANCH  18  19
ENDBRANCH  11  18
ENDBRANCH   6  11
BRANCH   4  22
HETATM   22  N3  UNL     1      20.242  23.802  18.843  1.00  0.00    -0.255 N
HETATM   23  C10 UNL     1      21.249  23.493  19.662  1.00  0.00     0.143 A
HETATM   24  C11 UNL     1      22.325  24.301  19.378  1.00  0.00     0.062 A
HETATM   25  N8  UNL     1      21.904  25.099  18.357  1.00  0.00    -0.287 N
HETATM   26  N9  UNL     1      20.657  24.771  18.066  1.00  0.00    -0.238 N
ATOM     27  H8  UNL     1      22.455  25.823  17.898  1.00  0.00     0.188 HD
ATOM     28  H9  UNL     1      20.096  25.213  17.337  1.00  0.00     0.208 HD
BRANCH  24  29
HETATM   29  C12 UNL     1      23.672  24.363  19.994  1.00  0.00     0.182 C
BRANCH  29  30
HETATM   30  N4  UNL     1      24.630  23.470  19.442  1.00  0.00    -0.354 N
HETATM   31  C13 UNL     1      25.793  23.042  20.122  1.00  0.00     0.240 C
HETATM   32  O1  UNL     1      25.959  23.509  21.301  1.00  0.00    -0.271 OA
ATOM     33  H4  UNL     1      24.469  23.116  18.499  1.00  0.00     0.162 HD
BRANCH  31  34
HETATM   34  C14 UNL     1      26.819  22.116  19.605  1.00  0.00     0.175 C
BRANCH  34  35
HETATM   35  C15 UNL     1      28.219  22.682  19.801  1.00  0.00     0.030 C
HETATM   36  C16 UNL     1      28.468  23.924  18.985  1.00  0.00     0.007 C
ENDBRANCH  34  35
BRANCH  34  37
HETATM   37  N5  UNL     1      26.684  20.756  19.962  1.00  0.00    -0.377 N
HETATM   38  C17 UNL     1      26.243  19.863  18.956  1.00  0.00     0.143 C
HETATM   39  C18 UNL     1      25.493  18.662  19.474  1.00  0.00     0.144 C
HETATM   40  N6  UNL     1      26.187  18.158  20.635  1.00  0.00    -0.365 N
HETATM   41  C21 UNL     1      27.473  18.715  20.950  1.00  0.00     0.168 C
HETATM   42  C22 UNL     1      27.455  20.243  21.023  1.00  0.00     0.079 C
BRANCH  40  43
HETATM   43  C19 UNL     1      25.664  17.144  21.466  1.00  0.00     0.069 C
HETATM   44  C20 UNL     1      25.997  17.091  22.907  1.00  0.00     0.088 C
HETATM   45  N7  UNL     1      24.889  16.254  20.974  1.00  0.00    -0.389 N
ATOM     46  H72 UNL     1      24.659  16.290  19.981  1.00  0.00     0.157 HD
ATOM     47  H71 UNL     1      24.510  15.522  21.576  1.00  0.00     0.157 HD
ENDBRANCH  40  43
ENDBRANCH  34  37
ENDBRANCH  31  34
ENDBRANCH  29  30
ENDBRANCH  24  29
ENDBRANCH   4  22
ENDBRANCH   1   4
TORSDOF 12
ENDMDL