MODEL 1
REMARK VINA RESULT: -7.472657883      0.000      0.000
REMARK  12 active torsions:
REMARK  status: ('A' for Active; 'I' for Inactive)
REMARK    1  A    between atoms: C2_2  and  C4_4
REMARK       I    between atoms: C4_4  and  N1_6
REMARK    2  A    between atoms: N1_6  and  C5_8
REMARK    3  A    between atoms: C5_8  and  C6_9
REMARK    4  A    between atoms: C6_9  and  N2_10
REMARK    5  A    between atoms: C8_13  and  O3_15
REMARK    6  A    between atoms: C10_17  and  C11_18
REMARK    7  A    between atoms: C14_21  and  O4_22
REMARK    8  A    between atoms: N5_34  and  C23_35
REMARK    9  A    between atoms: C23_35  and  C24_36
REMARK   10  A    between atoms: C24_36  and  N6_37
REMARK   11  A    between atoms: N6_37  and  C25_38
REMARK   12  A    between atoms: N6_37  and  C27_40
ROOT
HETATM    1  N2  UNL     1      20.030  24.499  19.815  1.00  0.00    -0.307 N
HETATM    2  C7  UNL     1      19.571  23.233  20.301  1.00  0.00     0.261 C
HETATM    3  O2  UNL     1      20.200  22.878  21.358  1.00  0.00    -0.269 OA
HETATM    4  C8  UNL     1      18.561  22.216  19.913  1.00  0.00     0.159 C
HETATM    5  C9  UNL     1      19.354  21.006  19.553  1.00  0.00     0.059 C
HETATM    6  C10 UNL     1      17.604  22.731  18.912  1.00  0.00     0.162 C
HETATM    7  N4  UNL     1      18.269  23.061  17.639  1.00  0.00    -0.370 N
HETATM    8  C17 UNL     1      18.227  22.232  16.506  1.00  0.00     0.150 C
HETATM    9  C18 UNL     1      19.081  24.210  17.438  1.00  0.00     0.071 A
HETATM   10  C19 UNL     1      19.011  24.638  16.140  1.00  0.00    -0.011 A
HETATM   11  C20 UNL     1      18.128  24.019  15.196  1.00  0.00     0.052 C
HETATM   12  C21 UNL     1      19.838  25.750  15.860  1.00  0.00     0.019 A
HETATM   13  C22 UNL     1      19.790  26.236  14.476  1.00  0.00     0.069 C
HETATM   14  N5  UNL     1      20.620  26.342  16.769  1.00  0.00    -0.315 N
HETATM   15  C29 UNL     1      20.658  25.884  18.060  1.00  0.00     0.277 A
HETATM   16  O5  UNL     1      21.386  26.438  18.900  1.00  0.00    -0.265 OA
HETATM   17  C30 UNL     1      19.907  24.833  18.415  1.00  0.00     0.133 A
ENDROOT
BRANCH   1  18
HETATM   18  C6  UNL     1      20.587  25.453  20.703  1.00  0.00     0.152 C
BRANCH  18  19
HETATM   19  C5  UNL     1      21.756  24.984  21.536  1.00  0.00     0.143 C
BRANCH  19  20
HETATM   20  N1  UNL     1      22.834  24.421  20.782  1.00  0.00    -0.356 N
HETATM   21  C4  UNL     1      24.204  24.639  21.063  1.00  0.00     0.246 C
HETATM   22  O1  UNL     1      24.470  25.382  22.043  1.00  0.00    -0.268 OA
ATOM     23  H1  UNL     1      22.599  23.822  19.990  1.00  0.00     0.162 HD
BRANCH  21  24
HETATM   24  C2  UNL     1      25.271  24.048  20.272  1.00  0.00    -0.004 C
HETATM   25  C1  UNL     1      25.016  23.053  19.469  1.00  0.00     0.024 C
HETATM   26  C3  UNL     1      26.657  24.580  20.378  1.00  0.00     0.053 C
ENDBRANCH  21  24
ENDBRANCH  19  20
ENDBRANCH  18  19
ENDBRANCH   1  18
BRANCH   4  27
HETATM   27  O3  UNL     1      17.817  22.014  21.107  1.00  0.00    -0.378 OA
ATOM     28  H3  UNL     1      18.210  21.237  21.486  1.00  0.00     0.211 HD
ENDBRANCH   4  27
BRANCH   6  29
HETATM   29  C11 UNL     1      16.365  22.038  18.665  1.00  0.00    -0.016 A
HETATM   30  C12 UNL     1      16.091  20.711  18.738  1.00  0.00     0.015 A
HETATM   31  C13 UNL     1      14.846  20.171  18.497  1.00  0.00     0.057 A
HETATM   32  C14 UNL     1      13.826  21.033  18.161  1.00  0.00     0.141 A
HETATM   33  N3  UNL     1      14.074  22.329  18.084  1.00  0.00    -0.346 N
HETATM   34  C16 UNL     1      15.267  22.843  18.317  1.00  0.00     0.099 A
ATOM     35  H3  UNL     1      13.311  22.959  17.835  1.00  0.00     0.167 HD
BRANCH  32  36
HETATM   36  O4  UNL     1      12.549  20.504  17.910  1.00  0.00    -0.341 OA
HETATM   37  C15 UNL     1      12.251  19.248  18.481  1.00  0.00     0.211 C
ENDBRANCH  32  36
ENDBRANCH   6  29
BRANCH  14  38
HETATM   38  C23 UNL     1      21.469  27.478  16.479  1.00  0.00     0.151 C
BRANCH  38  39
HETATM   39  C24 UNL     1      22.776  27.055  15.847  1.00  0.00     0.137 C
BRANCH  39  40
HETATM   40  N6  UNL     1      23.922  27.502  16.539  1.00  0.00    -0.412 N
BRANCH  40  41
HETATM   41  C25 UNL     1      24.469  26.585  17.497  1.00  0.00     0.112 C
HETATM   42  C26 UNL     1      25.658  25.831  16.990  1.00  0.00     0.026 C
ENDBRANCH  40  41
BRANCH  40  43
HETATM   43  C27 UNL     1      24.886  28.203  15.768  1.00  0.00     0.112 C
HETATM   44  C28 UNL     1      25.304  29.457  16.526  1.00  0.00     0.026 C
ENDBRANCH  40  43
ENDBRANCH  39  40
ENDBRANCH  38  39
ENDBRANCH  14  38
TORSDOF 12
ENDMDL