MODEL 3
REMARK VINA RESULT: -9.806906457      3.456     10.892
REMARK  13 active torsions:
REMARK  status: ('A' for Active; 'I' for Inactive)
REMARK    1  A    between atoms: C4_4  and  C5_5
REMARK    2  A    between atoms: C5_5  and  N1_6
REMARK    3  A    between atoms: N1_6  and  C6_7
REMARK    4  A    between atoms: N2_11  and  C10_12
REMARK    5  A    between atoms: C10_12  and  C11_13
REMARK    6  A    between atoms: C11_13  and  N3_14
REMARK    7  A    between atoms: N4_17  and  C14_18
REMARK    8  A    between atoms: C14_18  and  C15_19
REMARK    9  A    between atoms: C15_19  and  N5_20
REMARK   10  A    between atoms: N5_20  and  C16_22
REMARK   11  A    between atoms: C17_23  and  N6_24
REMARK   12  A    between atoms: N6_24  and  C18_26
REMARK   13  A    between atoms: C18_26  and  C19_27
ROOT
HETATM    1  N3  UNL     1      15.887  22.525  15.232  1.00  0.00     0.100 N
HETATM    2  C12 UNL     1      14.642  23.096  15.636  1.00  0.00     0.293 C
HETATM    3  C13 UNL     1      13.769  21.987  16.260  1.00  0.00     0.156 C
HETATM    4  N4  UNL     1      13.602  21.025  15.210  1.00  0.00    -0.347 N
HETATM    5  C28 UNL     1      14.324  21.205  14.005  1.00  0.00     0.248 C
HETATM    6  O3  UNL     1      13.758  21.030  12.867  1.00  0.00    -0.271 OA
HETATM    7  C29 UNL     1      15.756  21.600  14.129  1.00  0.00     0.374 C
ENDROOT
BRANCH   4   8
HETATM    8  C14 UNL     1      12.711  19.886  15.348  1.00  0.00     0.145 C
BRANCH   8   9
HETATM    9  C15 UNL     1      11.383  20.347  15.879  1.00  0.00     0.140 C
BRANCH   9  10
HETATM   10  N5  UNL     1      10.942  19.742  17.083  1.00  0.00    -0.383 N
ATOM     11  H5  UNL     1      10.691  20.342  17.868  1.00  0.00     0.159 HD
BRANCH  10  12
HETATM   12  C16 UNL     1      10.833  18.318  17.244  1.00  0.00     0.114 A
HETATM   13  C17 UNL     1      10.903  17.480  18.350  1.00  0.00     0.114 A
HETATM   14  C26 UNL     1      10.706  16.398  17.541  1.00  0.00     0.252 A
HETATM   15  O1  UNL     1      10.624  15.165  17.732  1.00  0.00    -0.281 OA
HETATM   16  C27 UNL     1      10.638  17.231  16.453  1.00  0.00     0.252 A
HETATM   17  O2  UNL     1      10.460  16.991  15.208  1.00  0.00    -0.281 OA
BRANCH  13  18
HETATM   18  N6  UNL     1      11.088  17.737  19.740  1.00  0.00    -0.384 N
ATOM     19  H6  UNL     1      10.318  18.185  20.237  1.00  0.00     0.159 HD
BRANCH  18  20
HETATM   20  C18 UNL     1      12.253  17.422  20.500  1.00  0.00     0.124 C
BRANCH  20  21
HETATM   21  C19 UNL     1      13.538  18.068  20.101  1.00  0.00     0.003 C
HETATM   22  C20 UNL     1      14.263  17.448  18.958  1.00  0.00     0.006 C
HETATM   23  C21 UNL     1      14.821  18.522  18.007  1.00  0.00     0.005 C
HETATM   24  C22 UNL     1      15.512  19.564  18.878  1.00  0.00    -0.019 C
HETATM   25  C23 UNL     1      16.369  20.471  18.037  1.00  0.00     0.010 C
HETATM   26  C24 UNL     1      14.464  20.349  19.614  1.00  0.00     0.005 C
HETATM   27  C25 UNL     1      13.203  19.510  19.739  1.00  0.00     0.006 C
ENDBRANCH  20  21
ENDBRANCH  18  20
ENDBRANCH  13  18
ENDBRANCH  10  12
ENDBRANCH   9  10
ENDBRANCH   8   9
ENDBRANCH   4   8
BRANCH   1  28
HETATM   28  C11 UNL     1      16.997  23.405  15.092  1.00  0.00     0.293 C
BRANCH  28  29
HETATM   29  C10 UNL     1      16.794  24.805  15.583  1.00  0.00     0.162 C
BRANCH  29  30
HETATM   30  N2  UNL     1      18.018  25.476  15.891  1.00  0.00    -0.310 N
HETATM   31  C4  UNL     1      18.622  25.288  17.069  1.00  0.00     0.066 A
HETATM   32  C3  UNL     1      19.824  25.911  17.397  1.00  0.00     0.039 A
HETATM   33  C2  UNL     1      20.433  26.759  16.493  1.00  0.00    -0.048 A
HETATM   34  C1  UNL     1      21.713  27.405  16.889  1.00  0.00     0.049 C
HETATM   35  C31 UNL     1      19.820  26.959  15.283  1.00  0.00     0.012 A
HETATM   36  C30 UNL     1      18.643  26.316  15.024  1.00  0.00     0.254 A
HETATM   37  C32 UNL     1      20.452  27.872  14.280  1.00  0.00     0.054 C
HETATM   38  O4  UNL     1      18.081  26.503  13.906  1.00  0.00    -0.267 OA
BRANCH  31  39
HETATM   39  C5  UNL     1      17.999  24.421  18.066  1.00  0.00     0.205 C
BRANCH  39  40
HETATM   40  N1  UNL     1      18.594  23.936  18.967  1.00  0.00    -0.448 NA
BRANCH  40  41
HETATM   41  C6  UNL     1      19.272  23.389  19.981  1.00  0.00     0.081 C
HETATM   42  C7  UNL     1      20.795  23.388  19.882  1.00  0.00     0.053 C
HETATM   43  C8  UNL     1      18.983  24.114  21.321  1.00  0.00     0.053 C
HETATM   44  C9  UNL     1      18.919  21.915  20.289  1.00  0.00     0.053 C
ENDBRANCH  40  41
ENDBRANCH  39  40
ENDBRANCH  31  39
ENDBRANCH  29  30
ENDBRANCH  28  29
ENDBRANCH   1  28
TORSDOF 13
ENDMDL