MODEL 2
REMARK VINA RESULT: -9.055026148      1.973      3.113
REMARK  13 active torsions:
REMARK  status: ('A' for Active; 'I' for Inactive)
REMARK    1  A    between atoms: C4_4  and  N1_5
REMARK       I    between atoms: N1_5  and  C5_7
REMARK    2  A    between atoms: C5_7  and  C6_9
REMARK    3  A    between atoms: C6_9  and  S1_10
REMARK    4  A    between atoms: S1_10  and  C7_11
REMARK    5  A    between atoms: C8_16  and  N4_17
REMARK       I    between atoms: N4_17  and  C9_19
REMARK    6  A    between atoms: C9_19  and  C10_21
REMARK    7  A    between atoms: C10_21  and  C11_22
REMARK    8  A    between atoms: C11_22  and  C12_23
REMARK    9  A    between atoms: C12_23  and  C13_24
REMARK   10  A    between atoms: C13_24  and  C14_25
REMARK   11  A    between atoms: C14_25  and  N5_26
REMARK   12  A    between atoms: C16_29  and  C17_30
REMARK   13  A    between atoms: C17_30  and  C18_31
ROOT
HETATM    1  N4  UNL     1      17.807  24.723  18.959  1.00  0.00    -0.306 N
ATOM      2  H4  UNL     1      16.925  25.216  18.822  1.00  0.00     0.171 HD
HETATM    3  C9  UNL     1      18.067  23.913  20.118  1.00  0.00     0.223 C
HETATM    4  O2  UNL     1      18.777  24.399  21.004  1.00  0.00    -0.273 OA
ENDROOT
BRANCH   1   5
HETATM    5  C8  UNL     1      18.789  24.783  18.089  1.00  0.00     0.168 A
HETATM    6  N3  UNL     1      20.073  24.444  18.225  1.00  0.00    -0.278 N
HETATM    7  N2  UNL     1      20.854  24.588  17.235  1.00  0.00    -0.286 N
ATOM      8  H3  UNL     1      20.420  24.075  19.111  1.00  0.00     0.189 HD
HETATM    9  C7  UNL     1      20.398  25.066  16.089  1.00  0.00     0.130 A
ATOM     10  H2  UNL     1      21.838  24.334  17.324  1.00  0.00     0.188 HD
HETATM   11  S3  UNL     1      18.751  25.324  16.456  1.00  0.00    -0.026 SA
BRANCH   9  12
HETATM   12  S1  UNL     1      21.327  25.352  14.564  1.00  0.00    -0.094 SA
BRANCH  12  13
HETATM   13  C6  UNL     1      21.506  27.160  14.388  1.00  0.00     0.184 C
BRANCH  13  14
HETATM   14  C5  UNL     1      21.765  27.794  15.693  1.00  0.00     0.232 C
HETATM   15  N1  UNL     1      22.913  27.449  16.431  1.00  0.00    -0.311 N
ATOM     16  H1  UNL     1      22.857  26.750  17.171  1.00  0.00     0.170 HD
HETATM   17  O1  UNL     1      20.964  28.636  16.143  1.00  0.00    -0.272 OA
BRANCH  15  18
HETATM   18  C4  UNL     1      24.040  28.026  16.164  1.00  0.00     0.130 A
HETATM   19  C3  UNL     1      25.160  27.465  15.539  1.00  0.00     0.084 A
HETATM   20  C2  UNL     1      26.135  28.457  15.464  1.00  0.00     0.076 A
HETATM   21  C1  UNL     1      27.496  28.362  14.890  1.00  0.00     0.079 C
HETATM   22  O5  UNL     1      25.607  29.508  16.009  1.00  0.00    -0.241 OA
HETATM   23  N7  UNL     1      24.401  29.295  16.423  1.00  0.00    -0.245 N
ATOM     24  H7  UNL     1      23.809  29.989  16.881  1.00  0.00     0.196 HD
ENDBRANCH  15  18
ENDBRANCH  13  14
ENDBRANCH  12  13
ENDBRANCH   9  12
ENDBRANCH   1   5
BRANCH   3  25
HETATM   25  C10 UNL     1      17.469  22.567  20.153  1.00  0.00     0.103 C
BRANCH  25  26
HETATM   26  C11 UNL     1      18.259  21.497  19.456  1.00  0.00     0.009 C
BRANCH  26  27
HETATM   27  C12 UNL     1      17.380  20.819  18.436  1.00  0.00     0.002 C
BRANCH  27  28
HETATM   28  C13 UNL     1      17.665  21.320  17.036  1.00  0.00     0.020 C
BRANCH  28  29
HETATM   29  C14 UNL     1      16.602  22.264  16.548  1.00  0.00     0.137 C
BRANCH  29  30
HETATM   30  N5  UNL     1      15.326  21.621  16.369  1.00  0.00    -0.268 N
HETATM   31  C15 UNL     1      14.310  21.390  17.368  1.00  0.00     0.251 C
HETATM   32  O3  UNL     1      14.103  22.071  18.386  1.00  0.00    -0.271 OA
HETATM   33  C16 UNL     1      13.554  20.147  16.911  1.00  0.00     0.185 C
HETATM   34  N6  UNL     1      13.461  20.497  15.495  1.00  0.00    -0.324 N
HETATM   35  C22 UNL     1      12.382  20.395  14.550  1.00  0.00     0.155 C
HETATM   36  C23 UNL     1      14.766  21.041  15.179  1.00  0.00     0.327 C
HETATM   37  O4  UNL     1      15.319  21.008  14.045  1.00  0.00    -0.247 OA
BRANCH  33  38
HETATM   38  C17 UNL     1      12.253  20.040  17.610  1.00  0.00     0.081 C
BRANCH  38  39
HETATM   39  C18 UNL     1      12.248  19.043  18.741  1.00  0.00    -0.015 A
HETATM   40  C19 UNL     1      11.386  18.003  18.962  1.00  0.00     0.015 A
HETATM   41  C20 UNL     1      11.588  17.251  20.056  1.00  0.00     0.008 A
HETATM   42  C21 UNL     1      12.642  17.586  20.862  1.00  0.00     0.050 A
HETATM   43  S2  UNL     1      13.316  18.936  20.071  1.00  0.00    -0.106 SA
ENDBRANCH  38  39
ENDBRANCH  33  38
ENDBRANCH  29  30
ENDBRANCH  28  29
ENDBRANCH  27  28
ENDBRANCH  26  27
ENDBRANCH  25  26
ENDBRANCH   3  25
TORSDOF 13
ENDMDL