MODEL 5
REMARK VINA RESULT: -8.131350661      2.758     10.282
REMARK  16 active torsions:
REMARK  status: ('A' for Active; 'I' for Inactive)
REMARK    1  A    between atoms: C4_4  and  C5_5
REMARK    2  A    between atoms: C5_5  and  C6_6
REMARK    3  A    between atoms: C6_6  and  C7_7
REMARK    4  A    between atoms: C7_7  and  O1_8
REMARK    5  A    between atoms: C13_16  and  C14_17
REMARK    6  A    between atoms: N1_19  and  C16_20
REMARK    7  A    between atoms: C16_20  and  C17_21
REMARK    8  A    between atoms: C21_29  and  N4_30
REMARK    9  A    between atoms: N4_30  and  C22_32
REMARK   10  A    between atoms: C22_32  and  C23_33
REMARK   11  A    between atoms: C23_33  and  C24_34
REMARK   12  A    between atoms: C24_34  and  N5_35
REMARK   13  A    between atoms: N5_35  and  C27_38
REMARK   14  A    between atoms: C27_38  and  C28_39
REMARK   15  A    between atoms: C29_40  and  C30_41
REMARK   16  A    between atoms: C30_41  and  O3_42
ROOT
HETATM    1  C17 UNL     1      21.636  27.694  14.693  1.00  0.00     0.144 C
HETATM    2  C18 UNL     1      22.975  27.436  15.200  1.00  0.00     0.060 C
HETATM    3  N2  UNL     1      24.054  27.246  15.618  1.00  0.00    -0.197 NA
ENDROOT
BRANCH   1   4
HETATM    4  C16 UNL     1      20.938  26.410  14.280  1.00  0.00     0.146 C
BRANCH   4   5
HETATM    5  N1  UNL     1      20.117  25.924  15.398  1.00  0.00    -0.318 N
HETATM    6  C15 UNL     1      20.685  25.473  16.522  1.00  0.00     0.127 A
HETATM    7  C14 UNL     1      19.967  24.985  17.618  1.00  0.00     0.092 A
HETATM    8  N7  UNL     1      18.632  24.978  17.524  1.00  0.00    -0.217 N
HETATM    9  C20 UNL     1      18.010  25.430  16.392  1.00  0.00     0.212 A
HETATM   10  N6  UNL     1      17.722  24.638  18.388  1.00  0.00    -0.123 N
HETATM   11  C19 UNL     1      18.778  25.903  15.329  1.00  0.00     0.294 A
HETATM   12  N3  UNL     1      16.687  25.349  16.591  1.00  0.00    -0.168 N
HETATM   13  O2  UNL     1      18.163  26.305  14.315  1.00  0.00    -0.264 OA
HETATM   14  C21 UNL     1      16.484  24.864  17.815  1.00  0.00     0.698 A
ATOM     15  H3  UNL     1      15.963  25.611  15.922  1.00  0.00     0.186 HD
ATOM     16  H6  UNL     1      17.891  24.269  19.324  1.00  0.00     0.206 HD
BRANCH   7  17
HETATM   17  C13 UNL     1      20.730  24.591  18.814  1.00  0.00     0.041 A
HETATM   18  C2  UNL     1      20.658  23.533  19.663  1.00  0.00    -0.042 A
HETATM   19  C1  UNL     1      19.603  22.432  19.508  1.00  0.00     0.049 C
HETATM   20  C3  UNL     1      21.609  23.417  20.611  1.00  0.00     0.022 A
HETATM   21  C4  UNL     1      22.584  24.363  20.659  1.00  0.00    -0.016 A
HETATM   22  S1  UNL     1      22.168  25.402  19.387  1.00  0.00    -0.092 SA
BRANCH  21  23
HETATM   23  C5  UNL     1      23.759  24.509  21.581  1.00  0.00     0.053 C
BRANCH  23  24
HETATM   24  C6  UNL     1      25.029  24.250  20.797  1.00  0.00     0.069 C
BRANCH  24  25
HETATM   25  C7  UNL     1      25.679  25.522  20.392  1.00  0.00     0.046 C
HETATM   26  C8  UNL     1      26.016  25.812  19.133  1.00  0.00    -0.051 C
HETATM   27  C9  UNL     1      25.822  24.957  17.936  1.00  0.00     0.037 C
HETATM   28  C12 UNL     1      26.640  27.059  18.628  1.00  0.00     0.037 C
HETATM   29  C10 UNL     1      27.119  25.206  17.167  1.00  0.00     0.005 C
HETATM   30  C11 UNL     1      27.350  26.676  17.374  1.00  0.00     0.005 C
BRANCH  25  31
HETATM   31  O1  UNL     1      25.971  26.493  21.349  1.00  0.00    -0.365 OA
ATOM     32  H1  UNL     1      26.529  27.228  21.126  1.00  0.00     0.217 HD
ENDBRANCH  25  31
ENDBRANCH  24  25
ENDBRANCH  23  24
ENDBRANCH  21  23
ENDBRANCH   7  17
BRANCH  14  33
HETATM   33  N4  UNL     1      15.421  24.607  18.452  1.00  0.00    -0.204 N
ATOM     34  H4  UNL     1      15.350  25.167  19.302  1.00  0.00     0.183 HD
BRANCH  33  35
HETATM   35  C22 UNL     1      14.332  23.770  18.304  1.00  0.00     0.080 C
BRANCH  35  36
HETATM   36  C23 UNL     1      14.349  22.377  18.840  1.00  0.00     0.073 C
BRANCH  36  37
HETATM   37  C24 UNL     1      14.524  21.352  17.785  1.00  0.00     0.242 C
BRANCH  37  38
HETATM   38  N5  UNL     1      15.717  20.540  17.977  1.00  0.00    -0.065 N
HETATM   39  C25 UNL     1      16.656  20.885  16.936  1.00  0.00     0.273 C
HETATM   40  C26 UNL     1      16.341  20.837  19.256  1.00  0.00     0.273 C
BRANCH  38  41
HETATM   41  C27 UNL     1      15.441  19.117  17.938  1.00  0.00     0.330 C
BRANCH  41  42
HETATM   42  C28 UNL     1      14.469  18.715  18.958  1.00  0.00    -0.076 C
HETATM   43  C29 UNL     1      13.667  18.412  19.811  1.00  0.00    -0.079 C
BRANCH  43  44
HETATM   44  C30 UNL     1      12.696  18.060  20.866  1.00  0.00     0.257 C
BRANCH  44  45
HETATM   45  O3  UNL     1      11.445  18.621  20.591  1.00  0.00    -0.389 OA
ATOM     46  H3  UNL     1      11.256  19.331  21.194  1.00  0.00     0.210 HD
ENDBRANCH  44  45
ENDBRANCH  43  44
ENDBRANCH  41  42
ENDBRANCH  38  41
ENDBRANCH  37  38
ENDBRANCH  36  37
ENDBRANCH  35  36
ENDBRANCH  33  35
ENDBRANCH  14  33
ENDBRANCH   4   5
ENDBRANCH   1   4
TORSDOF 16
ENDMDL