MODEL 3
REMARK VINA RESULT: -9.261290215      2.418     10.480
REMARK  12 active torsions:
REMARK  status: ('A' for Active; 'I' for Inactive)
REMARK    1  A    between atoms: O1_2  and  C2_3
REMARK    2  A    between atoms: C2_3  and  C3_5
REMARK    3  A    between atoms: C3_5  and  C4_6
REMARK    4  A    between atoms: C4_6  and  C5_7
REMARK       I    between atoms: N1_8  and  C6_10
REMARK    5  A    between atoms: C6_10  and  C7_12
REMARK    6  A    between atoms: C8_13  and  C9_14
REMARK       I    between atoms: C9_14  and  N2_16
REMARK    7  A    between atoms: N2_16  and  C10_18
REMARK    8  A    between atoms: C10_18  and  C11_19
REMARK    9  A    between atoms: C11_19  and  C12_20
REMARK   10  A    between atoms: C12_20  and  N3_21
REMARK       I    between atoms: N3_21  and  C13_23
REMARK   11  A    between atoms: C13_23  and  C14_25
REMARK   12  A    between atoms: N4_27  and  C16_28
ROOT
HETATM    1  C7  UNL     1      21.062  25.397  16.354  1.00  0.00     0.121 C
HETATM    2  C8  UNL     1      20.404  26.305  17.295  1.00  0.00     0.094 C
HETATM    3  C21 UNL     1      20.689  27.742  17.131  1.00  0.00     0.020 C
HETATM    4  C22 UNL     1      21.734  28.136  16.130  1.00  0.00    -0.000 C
HETATM    5  C23 UNL     1      23.139  28.008  16.588  1.00  0.00     0.037 C
HETATM    6  C24 UNL     1      23.804  26.713  16.267  1.00  0.00     0.118 C
HETATM    7  C25 UNL     1      25.211  27.005  15.708  1.00  0.00     0.039 C
HETATM    8  O6  UNL     1      23.206  25.922  15.359  1.00  0.00    -0.379 OA
HETATM    9  C26 UNL     1      21.849  25.934  15.212  1.00  0.00     0.144 C
HETATM   10  C27 UNL     1      21.432  27.348  14.881  1.00  0.00    -0.009 A
HETATM   11  C28 UNL     1      20.285  27.688  14.048  1.00  0.00     0.013 A
HETATM   12  C29 UNL     1      21.721  27.938  13.553  1.00  0.00     0.013 A
ENDROOT
BRANCH   2  13
HETATM   13  C9  UNL     1      20.886  25.916  18.718  1.00  0.00     0.226 C
HETATM   14  O4  UNL     1      21.295  26.834  19.431  1.00  0.00    -0.273 OA
HETATM   15  N2  UNL     1      20.809  24.565  19.044  1.00  0.00    -0.337 N
ATOM     16  H2  UNL     1      20.432  23.999  18.284  1.00  0.00     0.168 HD
BRANCH  15  17
HETATM   17  C10 UNL     1      21.132  23.797  20.183  1.00  0.00     0.092 C
BRANCH  17  18
HETATM   18  C11 UNL     1      20.138  23.340  21.136  1.00  0.00     0.034 C
BRANCH  18  19
HETATM   19  C12 UNL     1      18.782  23.860  21.210  1.00  0.00     0.092 C
BRANCH  19  20
HETATM   20  N3  UNL     1      17.661  23.199  20.694  1.00  0.00    -0.332 N
HETATM   21  C13 UNL     1      17.333  22.747  19.425  1.00  0.00     0.274 C
HETATM   22  O5  UNL     1      18.048  22.857  18.429  1.00  0.00    -0.266 OA
ATOM     23  H3  UNL     1      16.941  23.014  21.392  1.00  0.00     0.168 HD
BRANCH  21  24
HETATM   24  C14 UNL     1      16.026  22.061  19.183  1.00  0.00     0.131 A
HETATM   25  C15 UNL     1      15.854  20.706  19.108  1.00  0.00     0.144 A
HETATM   26  N4  UNL     1      14.542  20.445  18.869  1.00  0.00    -0.280 N
HETATM   27  N5  UNL     1      13.943  21.624  18.805  1.00  0.00    -0.020 NA
HETATM   28  N6  UNL     1      14.828  22.604  18.993  1.00  0.00    -0.278 N
ATOM     29  H6  UNL     1      14.620  23.602  18.991  1.00  0.00     0.184 HD
BRANCH  26  30
HETATM   30  C16 UNL     1      13.935  19.146  18.717  1.00  0.00     0.105 C
HETATM   31  C17 UNL     1      12.500  19.200  18.286  1.00  0.00     0.027 C
HETATM   32  C18 UNL     1      11.752  18.346  19.291  1.00  0.00     0.002 C
HETATM   33  C19 UNL     1      12.555  18.578  20.546  1.00  0.00     0.002 C
HETATM   34  C20 UNL     1      13.966  18.380  20.037  1.00  0.00     0.027 C
ENDBRANCH  26  30
ENDBRANCH  21  24
ENDBRANCH  19  20
ENDBRANCH  18  19
ENDBRANCH  17  18
ENDBRANCH  15  17
ENDBRANCH   2  13
BRANCH   1  35
HETATM   35  C6  UNL     1      20.049  24.447  15.727  1.00  0.00     0.228 C
HETATM   36  N1  UNL     1      18.693  24.586  16.030  1.00  0.00    -0.340 N
HETATM   37  C5  UNL     1      17.754  24.482  15.143  1.00  0.00     0.064 C
ATOM     38  H1  UNL     1      18.429  24.780  16.996  1.00  0.00     0.167 HD
HETATM   39  O3  UNL     1      20.478  23.576  14.965  1.00  0.00    -0.273 OA
BRANCH  37  40
HETATM   40  C4  UNL     1      16.326  24.617  15.392  1.00  0.00     0.054 C
BRANCH  40  41
HETATM   41  C3  UNL     1      15.670  23.332  15.838  1.00  0.00     0.116 C
BRANCH  41  42
HETATM   42  C2  UNL     1      16.208  22.151  15.147  1.00  0.00     0.258 C
HETATM   43  O2  UNL     1      16.873  21.314  15.773  1.00  0.00    -0.265 OA
BRANCH  42  44
HETATM   44  O1  UNL     1      15.968  21.986  13.804  1.00  0.00    -0.326 OA
HETATM   45  C1  UNL     1      14.854  21.319  13.274  1.00  0.00     0.213 C
ENDBRANCH  42  44
ENDBRANCH  41  42
ENDBRANCH  40  41
ENDBRANCH  37  40
ENDBRANCH   1  35
TORSDOF 12
ENDMDL