MODEL 1
REMARK VINA RESULT: -4.714337742      0.000      0.000
REMARK  14 active torsions:
REMARK  status: ('A' for Active; 'I' for Inactive)
REMARK    1  A    between atoms: C2_2  and  C4_4
REMARK    2  A    between atoms: C4_4  and  C5_5
REMARK    3  A    between atoms: C7_8  and  C8_9
REMARK    4  A    between atoms: C10_11  and  O2_12
REMARK    5  A    between atoms: C11_14  and  C12_15
REMARK    6  A    between atoms: C12_15  and  C13_16
REMARK    7  A    between atoms: C19_24  and  C20_25
REMARK    8  A    between atoms: C20_25  and  C21_27
REMARK    9  A    between atoms: C21_27  and  C22_28
REMARK   10  A    between atoms: C23_30  and  C24_31
REMARK   11  A    between atoms: C27_35  and  O8_36
REMARK   12  A    between atoms: C30_40  and  C31_41
REMARK   13  A    between atoms: C31_41  and  C32_42
REMARK   14  A    between atoms: C32_42  and  O9_43
ROOT
HETATM    1  C5  UNL     1       7.954  16.245  12.625  1.00  0.00     0.089 C
HETATM    2  C6  UNL     1       7.469  14.948  12.080  1.00  0.00     0.142 C
HETATM    3  O1  UNL     1       7.647  14.641  10.945  1.00  0.00    -0.297 OA
HETATM    4  C7  UNL     1       6.736  13.993  12.952  1.00  0.00     0.085 C
HETATM    5  C10 UNL     1       7.532  13.222  13.941  1.00  0.00     0.140 C
HETATM    6  C11 UNL     1       7.053  13.327  15.382  1.00  0.00     0.085 C
HETATM    7  C15 UNL     1       8.238  13.475  16.308  1.00  0.00     0.144 C
HETATM    8  O3  UNL     1       8.245  12.894  17.396  1.00  0.00    -0.297 OA
HETATM    9  C16 UNL     1       9.434  14.285  16.006  1.00  0.00     0.122 C
HETATM   10  C17 UNL     1      10.655  13.359  15.987  1.00  0.00     0.026 C
HETATM   11  C18 UNL     1       9.718  15.410  16.884  1.00  0.00     0.151 C
HETATM   12  O4  UNL     1       9.021  15.780  17.761  1.00  0.00    -0.296 OA
HETATM   13  C19 UNL     1      11.017  16.156  16.637  1.00  0.00     0.155 C
HETATM   14  C23 UNL     1      10.802  17.200  15.580  1.00  0.00     0.152 C
HETATM   15  O7  UNL     1      10.786  16.655  14.340  1.00  0.00    -0.323 OA
HETATM   16  C27 UNL     1      11.275  16.347  13.210  1.00  0.00     0.184 C
HETATM   17  C28 UNL     1      10.440  16.220  11.970  1.00  0.00    -0.001 C
HETATM   18  C29 UNL     1      10.609  14.833  11.389  1.00  0.00     0.054 C
HETATM   19  C30 UNL     1       9.122  16.847  11.939  1.00  0.00    -0.056 C
ENDROOT
BRANCH  13  20
HETATM   20  C20 UNL     1      11.623  16.561  17.893  1.00  0.00     0.147 C
HETATM   21  O5  UNL     1      12.863  16.693  17.929  1.00  0.00    -0.297 OA
BRANCH  20  22
HETATM   22  C21 UNL     1      10.906  16.842  19.160  1.00  0.00     0.148 C
BRANCH  22  23
HETATM   23  C22 UNL     1      11.818  17.784  19.925  1.00  0.00     0.238 C
HETATM   24  O6  UNL     1      11.399  18.572  20.739  1.00  0.00    -0.306 OA
ENDBRANCH  22  23
ENDBRANCH  20  22
ENDBRANCH  13  20
BRANCH  14  25
HETATM   25  C24 UNL     1      11.363  18.555  15.783  1.00  0.00     0.008 C
HETATM   26  C25 UNL     1      10.625  19.430  16.761  1.00  0.00     0.012 C
HETATM   27  C26 UNL     1      11.580  19.328  14.500  1.00  0.00     0.012 C
ENDBRANCH  14  25
BRANCH  16  28
HETATM   28  O8  UNL     1      12.529  16.084  12.907  1.00  0.00    -0.341 OA
ATOM     29  H8  UNL     1      13.074  15.371  13.217  1.00  0.00     0.220 HD
ENDBRANCH  16  28
BRANCH   6  30
HETATM   30  C12 UNL     1       6.160  14.481  15.662  1.00  0.00     0.014 C
BRANCH  30  31
HETATM   31  C13 UNL     1       4.837  14.049  16.231  1.00  0.00    -0.004 C
HETATM   32  C14 UNL     1       4.544  12.579  16.131  1.00  0.00     0.005 C
ENDBRANCH  30  31
ENDBRANCH   6  30
BRANCH   5  33
HETATM   33  O2  UNL     1       7.448  11.821  13.661  1.00  0.00    -0.394 OA
ATOM     34  H2  UNL     1       8.109  11.572  13.026  1.00  0.00     0.210 HD
ENDBRANCH   5  33
BRANCH  19  35
HETATM   35  C31 UNL     1       8.759  17.349  10.563  1.00  0.00     0.061 C
BRANCH  35  36
HETATM   36  C32 UNL     1       9.932  17.864   9.758  1.00  0.00     0.168 C
BRANCH  36  37
HETATM   37  O9  UNL     1       9.587  18.818   8.819  1.00  0.00    -0.401 OA
ATOM     38  H9  UNL     1       9.182  18.458   8.040  1.00  0.00     0.209 HD
ENDBRANCH  36  37
ENDBRANCH  35  36
ENDBRANCH  19  35
BRANCH   4  39
HETATM   39  C8  UNL     1       5.974  12.968  12.083  1.00  0.00     0.010 C
HETATM   40  C9  UNL     1       4.518  12.909  12.365  1.00  0.00     0.006 C
ENDBRANCH   4  39
BRANCH   1  41
HETATM   41  C4  UNL     1       6.720  17.121  12.433  1.00  0.00     0.049 C
BRANCH  41  42
HETATM   42  C2  UNL     1       5.582  17.026  13.314  1.00  0.00    -0.092 C
HETATM   43  C1  UNL     1       5.367  17.290  14.469  1.00  0.00     0.014 C
HETATM   44  C3  UNL     1       4.289  16.582  12.537  1.00  0.00     0.042 C
ENDBRANCH  41  42
ENDBRANCH   1  41
TORSDOF 14
ENDMDL