MODEL 2
REMARK VINA RESULT: -8.180498696      0.975      1.085
REMARK  12 active torsions:
REMARK  status: ('A' for Active; 'I' for Inactive)
REMARK    1  A    between atoms: C8_8  and  C9_9
REMARK    2  A    between atoms: C9_9  and  C10_10
REMARK       I    between atoms: C10_10  and  N1_12
REMARK    3  A    between atoms: N2_15  and  C13_16
REMARK    4  A    between atoms: C13_16  and  C14_17
REMARK    5  A    between atoms: C14_17  and  O2_18
REMARK    6  A    between atoms: C23_30  and  S1_31
REMARK    7  A    between atoms: S1_31  and  S2_32
REMARK    8  A    between atoms: S2_32  and  C24_33
REMARK    9  A    between atoms: C24_33  and  C25_34
REMARK   10  A    between atoms: C25_34  and  N3_35
REMARK   11  A    between atoms: N3_35  and  C26_37
REMARK   12  A    between atoms: C26_37  and  C27_38
ROOT
HETATM    1  C1  UNL     1      14.694  23.372  18.096  1.00  0.00     0.017 C
HETATM    2  C2  UNL     1      15.671  22.531  17.264  1.00  0.00    -0.019 C
HETATM    3  C3  UNL     1      15.447  21.102  17.629  1.00  0.00     0.011 C
HETATM    4  C4  UNL     1      16.143  20.616  18.844  1.00  0.00     0.007 C
HETATM    5  C5  UNL     1      17.464  21.230  19.126  1.00  0.00     0.002 C
HETATM    6  C6  UNL     1      17.420  21.901  20.464  1.00  0.00     0.006 C
HETATM    7  C7  UNL     1      18.783  22.314  20.971  1.00  0.00     0.013 C
HETATM    8  C8  UNL     1      19.563  23.076  19.942  1.00  0.00     0.065 C
HETATM    9  C17 UNL     1      19.244  22.753  18.541  1.00  0.00     0.141 C
HETATM   10  O3  UNL     1      20.134  23.102  17.738  1.00  0.00    -0.297 OA
HETATM   11  C18 UNL     1      18.032  22.086  18.026  1.00  0.00     0.032 C
HETATM   12  C19 UNL     1      18.471  21.109  16.924  1.00  0.00     0.025 C
HETATM   13  C20 UNL     1      17.066  23.035  17.413  1.00  0.00     0.080 C
HETATM   14  C21 UNL     1      17.434  23.503  16.075  1.00  0.00     0.134 C
HETATM   15  O4  UNL     1      18.509  23.714  15.521  1.00  0.00    -0.297 OA
HETATM   16  C22 UNL     1      16.171  23.751  15.283  1.00  0.00     0.095 C
HETATM   17  C23 UNL     1      15.271  22.656  15.802  1.00  0.00     0.074 C
ENDROOT
BRANCH   8  18
HETATM   18  C9  UNL     1      19.567  24.570  20.181  1.00  0.00     0.115 C
BRANCH  18  19
HETATM   19  C10 UNL     1      20.857  25.186  19.835  1.00  0.00     0.220 C
HETATM   20  O1  UNL     1      21.824  24.990  20.645  1.00  0.00    -0.273 OA
HETATM   21  N1  UNL     1      21.120  25.973  18.689  1.00  0.00    -0.349 N
HETATM   22  C11 UNL     1      22.472  26.486  18.505  1.00  0.00     0.156 C
HETATM   23  C16 UNL     1      20.038  26.235  17.766  1.00  0.00     0.156 C
HETATM   24  C12 UNL     1      22.582  27.453  17.352  1.00  0.00     0.292 C
HETATM   25  N2  UNL     1      21.799  26.883  16.250  1.00  0.00     0.093 N
HETATM   26  C15 UNL     1      20.413  27.117  16.615  1.00  0.00     0.292 C
BRANCH  25  27
HETATM   27  C13 UNL     1      22.202  27.570  15.064  1.00  0.00     0.298 C
BRANCH  27  28
HETATM   28  C14 UNL     1      21.161  27.572  13.975  1.00  0.00     0.194 C
BRANCH  28  29
HETATM   29  O2  UNL     1      20.041  28.321  14.350  1.00  0.00    -0.399 OA
ATOM     30  H2  UNL     1      19.445  27.804  14.880  1.00  0.00     0.209 HD
ENDBRANCH  28  29
ENDBRANCH  27  28
ENDBRANCH  25  27
ENDBRANCH  18  19
ENDBRANCH   8  18
BRANCH  17  31
HETATM   31  S1  UNL     1      13.569  23.225  15.599  1.00  0.00    -0.091 SA
BRANCH  31  32
HETATM   32  S2  UNL     1      12.432  22.004  14.334  1.00  0.00    -0.096 SA
BRANCH  32  33
HETATM   33  C24 UNL     1      11.442  20.828  15.240  1.00  0.00     0.105 C
BRANCH  33  34
HETATM   34  C25 UNL     1      12.239  19.924  16.156  1.00  0.00     0.125 C
BRANCH  34  35
HETATM   35  N3  UNL     1      11.798  20.070  17.505  1.00  0.00    -0.413 N
ATOM     36  H3  UNL     1      11.844  20.961  17.999  1.00  0.00     0.153 HD
BRANCH  35  37
HETATM   37  C26 UNL     1      11.284  18.878  18.120  1.00  0.00     0.206 C
BRANCH  37  38
HETATM   38  C27 UNL     1      11.964  18.472  19.361  1.00  0.00     0.213 C
HETATM   39  O5  UNL     1      11.414  18.570  20.431  1.00  0.00    -0.283 OA
HETATM   40  S3  UNL     1      13.623  17.821  19.303  1.00  0.00    -0.010 SA
ENDBRANCH  37  38
ENDBRANCH  35  37
ENDBRANCH  34  35
ENDBRANCH  33  34
ENDBRANCH  32  33
ENDBRANCH  31  32
ENDBRANCH  17  31
TORSDOF 12
ENDMDL