MODEL 5
REMARK VINA RESULT: -8.472113776      2.370      4.435
REMARK  14 active torsions:
REMARK  status: ('A' for Active; 'I' for Inactive)
REMARK    1  A    between atoms: S1_2  and  N1_4
REMARK    2  A    between atoms: S1_2  and  O4_23
REMARK    3  A    between atoms: N1_4  and  C1_6
REMARK    4  A    between atoms: C1_6  and  N2_8
REMARK    5  A    between atoms: N2_8  and  C2_10
REMARK    6  A    between atoms: C2_10  and  C3_11
REMARK    7  A    between atoms: C3_11  and  C4_16
REMARK    8  A    between atoms: N3_12  and  O3_14
REMARK    9  A    between atoms: O4_23  and  C11_24
REMARK   10  A    between atoms: C11_24  and  C12_25
REMARK   11  A    between atoms: C13_27  and  C14_28
REMARK   12  A    between atoms: C14_28  and  O6_29
REMARK   13  A    between atoms: C15_31  and  O7_32
REMARK   14  A    between atoms: C16_34  and  O8_35
ROOT
HETATM    1  N1  UNL     1       6.630   1.128  13.290  1.00  0.00    -0.237 N
ATOM      2  H1  UNL     1       6.525   2.012  12.793  1.00  0.00     0.183 HD
ENDROOT
BRANCH   1   3
HETATM    3  S1  UNL     1       5.982   0.993  14.863  1.00  0.00     0.363 S
HETATM    4  O1  UNL     1       5.043  -0.164  14.937  1.00  0.00    -0.175 OA
HETATM    5  O2  UNL     1       7.123   0.783  15.858  1.00  0.00    -0.175 OA
BRANCH   3   6
HETATM    6  O4  UNL     1       5.223   2.457  15.257  1.00  0.00    -0.257 OA
BRANCH   6   7
HETATM    7  C11 UNL     1       5.744   2.844  16.491  1.00  0.00     0.226 C
BRANCH   7   8
HETATM    8  C12 UNL     1       6.191   4.298  16.350  1.00  0.00     0.178 C
HETATM    9  O5  UNL     1       5.414   5.068  17.178  1.00  0.00    -0.371 OA
HETATM   10  C13 UNL     1       6.252   5.931  17.872  1.00  0.00     0.177 C
HETATM   11  C15 UNL     1       7.533   5.119  18.101  1.00  0.00     0.180 C
HETATM   12  C16 UNL     1       7.622   4.392  16.774  1.00  0.00     0.180 C
BRANCH  10  13
HETATM   13  C14 UNL     1       5.654   6.400  19.157  1.00  0.00     0.198 C
BRANCH  13  14
HETATM   14  O6  UNL     1       6.461   6.023  20.204  1.00  0.00    -0.398 OA
ATOM     15  H6  UNL     1       7.004   5.290  19.939  1.00  0.00     0.209 HD
ENDBRANCH  13  14
ENDBRANCH  10  13
BRANCH  11  16
HETATM   16  O7  UNL     1       8.618   5.924  18.346  1.00  0.00    -0.390 OA
ATOM     17  H7  UNL     1       8.398   6.664  18.901  1.00  0.00     0.210 HD
ENDBRANCH  11  16
BRANCH  12  18
HETATM   18  O8  UNL     1       8.232   3.150  16.894  1.00  0.00    -0.390 OA
ATOM     19  H8  UNL     1       8.667   3.032  17.730  1.00  0.00     0.210 HD
ENDBRANCH  12  18
ENDBRANCH   7   8
ENDBRANCH   6   7
ENDBRANCH   3   6
ENDBRANCH   1   3
BRANCH   1  20
HETATM   20  C1  UNL     1       7.307   0.068  12.646  1.00  0.00     0.186 C
HETATM   21  S2  UNL     1       6.637  -0.561  11.260  1.00  0.00    -0.040 SA
BRANCH  20  22
HETATM   22  N2  UNL     1       8.516  -0.503  13.086  1.00  0.00    -0.341 N
ATOM     23  H2  UNL     1       8.497  -1.503  13.285  1.00  0.00     0.167 HD
BRANCH  22  24
HETATM   24  C2  UNL     1       9.749   0.150  13.282  1.00  0.00     0.117 C
BRANCH  24  25
HETATM   25  C3  UNL     1      10.050   0.768  14.576  1.00  0.00     0.051 C
HETATM   26  N3  UNL     1       9.662   1.994  14.782  1.00  0.00    -0.272 N
ATOM     27  H3  UNL     1       9.859   2.445  15.676  1.00  0.00     0.194 HD
BRANCH  26  28
HETATM   28  O3  UNL     1       8.996   2.678  13.811  1.00  0.00    -0.290 OA
ATOM     29  H3  UNL     1       8.088   2.924  13.934  1.00  0.00     0.244 HD
ENDBRANCH  26  28
BRANCH  25  30
HETATM   30  C4  UNL     1      10.815   0.131  15.675  1.00  0.00     0.043 C
HETATM   31  C5  UNL     1      11.025   0.979  16.900  1.00  0.00     0.016 C
HETATM   32  C6  UNL     1      12.498   0.721  17.261  1.00  0.00    -0.013 C
HETATM   33  C7  UNL     1      12.661  -0.721  17.540  1.00  0.00     0.005 C
HETATM   34  C10 UNL     1      13.050   0.844  15.825  1.00  0.00     0.010 C
HETATM   35  C8  UNL     1      12.657  -1.397  16.166  1.00  0.00     0.006 C
HETATM   36  C9  UNL     1      12.193  -0.270  15.243  1.00  0.00    -0.004 C
ENDBRANCH  25  30
ENDBRANCH  24  25
ENDBRANCH  22  24
ENDBRANCH  20  22
ENDBRANCH   1  20
TORSDOF 14
ENDMDL