MODEL 1
REMARK VINA RESULT: -8.937216071      0.000      0.000
REMARK  11 active torsions:
REMARK  status: ('A' for Active; 'I' for Inactive)
REMARK    1  A    between atoms: O1_2  and  C2_3
REMARK    2  A    between atoms: C4_5  and  C5_6
REMARK    3  A    between atoms: C10_15  and  C11_16
REMARK    4  A    between atoms: C11_16  and  S1_17
REMARK    5  A    between atoms: S1_17  and  C12_18
REMARK    6  A    between atoms: C14_23  and  C15_24
REMARK    7  A    between atoms: C16_26  and  C17_27
REMARK    8  A    between atoms: C17_27  and  O4_28
REMARK    9  A    between atoms: C18_30  and  O5_31
REMARK   10  A    between atoms: C19_33  and  O6_34
REMARK   11  A    between atoms: C20_36  and  O7_37
ROOT
HETATM    1  C12 UNL     1      11.043   1.135  16.892  1.00  0.00     0.075 C
HETATM    2  C13 UNL     1      11.631   2.001  17.972  1.00  0.00     0.247 C
HETATM    3  N2  UNL     1      10.717   3.100  18.197  1.00  0.00    -0.067 N
ATOM      4  H21 UNL     1      11.073   3.998  17.869  1.00  0.00     0.277 HD
ATOM      5  H22 UNL     1      10.622   3.356  19.179  1.00  0.00     0.277 HD
HETATM    6  C14 UNL     1       9.464   2.711  17.577  1.00  0.00     0.218 C
HETATM    7  C21 UNL     1       9.959   2.023  16.322  1.00  0.00     0.052 C
ENDROOT
BRANCH   1   8
HETATM    8  S1  UNL     1      12.261   0.659  15.654  1.00  0.00    -0.160 SA
BRANCH   8   9
HETATM    9  C11 UNL     1      11.966  -0.950  14.953  1.00  0.00     0.109 C
BRANCH   9  10
HETATM   10  C10 UNL     1      11.421  -0.979  13.574  1.00  0.00     0.160 C
HETATM   11  C2  UNL     1      11.487   0.311  12.812  1.00  0.00     0.153 C
HETATM   12  C3  UNL     1      10.563  -0.065  11.627  1.00  0.00     0.068 C
HETATM   13  C4  UNL     1       9.596  -0.978  12.295  1.00  0.00     0.155 C
HETATM   14  O2  UNL     1      10.048  -1.225  13.584  1.00  0.00    -0.375 OA
BRANCH  11  15
HETATM   15  O1  UNL     1      12.698   0.609  12.244  1.00  0.00    -0.388 OA
HETATM   16  C1  UNL     1      13.089  -0.443  11.420  1.00  0.00     0.202 C
ENDBRANCH  11  15
BRANCH  13  17
HETATM   17  C5  UNL     1       8.165  -0.504  12.266  1.00  0.00     0.214 C
HETATM   18  C6  UNL     1       8.018   0.514  11.158  1.00  0.00     0.036 C
HETATM   19  C7  UNL     1       6.600   0.417  10.636  1.00  0.00     0.004 C
HETATM   20  C8  UNL     1       5.675   0.251  11.826  1.00  0.00     0.027 C
HETATM   21  C9  UNL     1       5.921  -1.089  12.491  1.00  0.00     0.233 C
HETATM   22  N1  UNL     1       7.223  -1.555  12.034  1.00  0.00    -0.069 N
ATOM     23  H12 UNL     1       7.212  -1.872  11.065  1.00  0.00     0.277 HD
ATOM     24  H11 UNL     1       7.501  -2.439  12.461  1.00  0.00     0.277 HD
ENDBRANCH  13  17
ENDBRANCH   9  10
ENDBRANCH   8   9
ENDBRANCH   1   8
BRANCH   6  25
HETATM   25  C15 UNL     1       8.583   3.888  17.277  1.00  0.00     0.184 C
HETATM   26  O3  UNL     1       7.842   4.229  18.390  1.00  0.00    -0.371 OA
HETATM   27  C16 UNL     1       6.928   5.229  18.169  1.00  0.00     0.177 C
HETATM   28  C18 UNL     1       5.961   4.947  17.051  1.00  0.00     0.180 C
HETATM   29  C19 UNL     1       6.216   3.539  16.552  1.00  0.00     0.180 C
HETATM   30  C20 UNL     1       7.687   3.509  16.116  1.00  0.00     0.180 C
BRANCH  27  31
HETATM   31  C17 UNL     1       7.532   6.578  17.936  1.00  0.00     0.198 C
BRANCH  31  32
HETATM   32  O4  UNL     1       8.550   6.893  18.816  1.00  0.00    -0.398 OA
ATOM     33  H4  UNL     1       8.797   7.810  18.805  1.00  0.00     0.209 HD
ENDBRANCH  31  32
ENDBRANCH  27  31
BRANCH  28  34
HETATM   34  O5  UNL     1       4.640   5.152  17.416  1.00  0.00    -0.390 OA
ATOM     35  H5  UNL     1       4.030   4.650  16.890  1.00  0.00     0.210 HD
ENDBRANCH  28  34
BRANCH  29  36
HETATM   36  O6  UNL     1       5.468   3.246  15.413  1.00  0.00    -0.390 OA
ATOM     37  H6  UNL     1       6.019   3.024  14.672  1.00  0.00     0.210 HD
ENDBRANCH  29  36
BRANCH  30  38
HETATM   38  O7  UNL     1       7.873   4.350  15.023  1.00  0.00    -0.390 OA
ATOM     39  H7  UNL     1       8.400   3.939  14.348  1.00  0.00     0.210 HD
ENDBRANCH  30  38
ENDBRANCH   6  25
TORSDOF 11
ENDMDL