MODEL 3
REMARK VINA RESULT: -7.801333650      2.078      2.587
REMARK  12 active torsions:
REMARK  status: ('A' for Active; 'I' for Inactive)
REMARK    1  A    between atoms: N1_1  and  C1_5
REMARK    2  A    between atoms: C1_5  and  C2_6
REMARK    3  A    between atoms: C3_8  and  O2_9
REMARK    4  A    between atoms: O2_9  and  C4_10
REMARK    5  A    between atoms: C6_12  and  N2_13
REMARK    6  A    between atoms: C9_19  and  N3_20
REMARK    7  A    between atoms: C10_24  and  N4_25
REMARK    8  A    between atoms: N4_25  and  C11_27
REMARK    9  A    between atoms: C11_27  and  C12_28
REMARK   10  A    between atoms: C17_33  and  S1_34
REMARK   11  A    between atoms: S1_34  and  N5_35
REMARK   12  A    between atoms: C19_42  and  O6_43
ROOT
HETATM    1  C2  UNL     1      13.158  -0.175  11.698  1.00  0.00     0.181 C
HETATM    2  O1  UNL     1      11.871  -0.422  11.373  1.00  0.00    -0.344 OA
HETATM    3  C3  UNL     1      11.024   0.434  12.260  1.00  0.00     0.336 C
HETATM    4  C10 UNL     1      11.031  -0.186  13.545  1.00  0.00     0.171 C
HETATM    5  O5  UNL     1      11.646  -1.496  13.498  1.00  0.00    -0.333 OA
HETATM    6  C18 UNL     1      12.977  -1.363  13.890  1.00  0.00     0.211 C
HETATM    7  C19 UNL     1      13.835  -1.044  12.691  1.00  0.00     0.173 C
ENDROOT
BRANCH   3   8
HETATM    8  O2  UNL     1       9.820   0.401  11.527  1.00  0.00    -0.346 OA
BRANCH   8   9
HETATM    9  C4  UNL     1       8.840  -0.380  12.125  1.00  0.00     0.157 C
HETATM   10  C5  UNL     1       7.734   0.535  12.573  1.00  0.00     0.067 C
HETATM   11  C6  UNL     1       6.372   0.234  12.080  1.00  0.00     0.186 C
HETATM   12  C7  UNL     1       6.377  -0.328  10.699  1.00  0.00     0.035 C
HETATM   13  C8  UNL     1       7.147  -1.605  10.695  1.00  0.00     0.037 C
HETATM   14  C9  UNL     1       8.465  -1.580  11.377  1.00  0.00     0.212 C
BRANCH  11  15
HETATM   15  N2  UNL     1       5.617  -0.579  13.022  1.00  0.00    -0.075 N
ATOM     16  H23 UNL     1       5.715  -1.572  12.812  1.00  0.00     0.274 HD
ATOM     17  H22 UNL     1       6.045  -0.566  13.947  1.00  0.00     0.274 HD
ATOM     18  H21 UNL     1       4.636  -0.304  13.065  1.00  0.00     0.274 HD
ENDBRANCH  11  15
BRANCH  14  19
HETATM   19  N3  UNL     1       8.514  -2.773  12.254  1.00  0.00    -0.073 N
ATOM     20  H33 UNL     1       8.498  -2.519  13.241  1.00  0.00     0.274 HD
ATOM     21  H32 UNL     1       7.644  -3.305  12.220  1.00  0.00     0.274 HD
ATOM     22  H31 UNL     1       9.322  -3.351  12.023  1.00  0.00     0.274 HD
ENDBRANCH  14  19
ENDBRANCH   8   9
ENDBRANCH   3   8
BRANCH   4  23
HETATM   23  N4  UNL     1      11.230   0.344  14.817  1.00  0.00    -0.366 N
ATOM     24  H4  UNL     1      12.167   0.512  15.184  1.00  0.00     0.161 HD
BRANCH  23  25
HETATM   25  C11 UNL     1      10.030   0.650  15.607  1.00  0.00     0.161 C
BRANCH  25  26
HETATM   26  C12 UNL     1      10.489   1.669  16.621  1.00  0.00    -0.017 A
HETATM   27  C13 UNL     1      11.793   1.580  17.139  1.00  0.00     0.010 A
HETATM   28  C14 UNL     1      12.189   2.328  18.208  1.00  0.00     0.001 A
HETATM   29  C15 UNL     1      11.291   3.194  18.798  1.00  0.00     0.002 A
HETATM   30  C16 UNL     1      10.022   3.296  18.305  1.00  0.00     0.026 A
HETATM   31  C17 UNL     1       9.624   2.520  17.194  1.00  0.00     0.087 A
BRANCH  31  32
HETATM   32  S1  UNL     1       8.060   2.893  16.526  1.00  0.00     0.257 S
HETATM   33  O3  UNL     1       7.423   4.045  17.207  1.00  0.00    -0.201 OA
HETATM   34  O4  UNL     1       7.111   1.717  16.584  1.00  0.00    -0.201 OA
BRANCH  32  35
HETATM   35  N5  UNL     1       8.348   3.300  14.851  1.00  0.00    -0.324 N
ATOM     36  H52 UNL     1       9.140   2.999  14.281  1.00  0.00     0.169 HD
ATOM     37  H51 UNL     1       7.566   3.893  14.573  1.00  0.00     0.169 HD
ENDBRANCH  32  35
ENDBRANCH  31  32
ENDBRANCH  25  26
ENDBRANCH  23  25
ENDBRANCH   4  23
BRANCH   1  38
HETATM   38  C1  UNL     1      13.957  -0.338  10.377  1.00  0.00     0.264 C
BRANCH  38  39
HETATM   39  N1  UNL     1      13.156  -1.124   9.472  1.00  0.00    -0.077 N
ATOM     40  H13 UNL     1      13.703  -1.540   8.718  1.00  0.00     0.274 HD
ATOM     41  H12 UNL     1      12.822  -1.992   9.891  1.00  0.00     0.274 HD
ATOM     42  H11 UNL     1      12.399  -0.532   9.131  1.00  0.00     0.274 HD
ENDBRANCH  38  39
ENDBRANCH   1  38
BRANCH   7  43
HETATM   43  O6  UNL     1      14.310  -2.238  12.102  1.00  0.00    -0.391 OA
ATOM     44  H6  UNL     1      15.256  -2.238  12.022  1.00  0.00     0.210 HD
ENDBRANCH   7  43
TORSDOF 12
ENDMDL