MODEL 1
REMARK VINA RESULT: -8.774998304      0.000      0.000
REMARK  13 active torsions:
REMARK  status: ('A' for Active; 'I' for Inactive)
REMARK    1  A    between atoms: O1_1  and  C1_3
REMARK    2  A    between atoms: C1_3  and  C2_4
REMARK    3  A    between atoms: C7_10  and  O3_11
REMARK    4  A    between atoms: O3_11  and  C8_12
REMARK    5  A    between atoms: C8_12  and  C9_13
REMARK    6  A    between atoms: C10_15  and  C11_16
REMARK    7  A    between atoms: C11_16  and  N1_17
REMARK    8  A    between atoms: N1_17  and  C12_20
REMARK    9  A    between atoms: C18_26  and  O5_27
REMARK   10  A    between atoms: C19_29  and  O6_30
REMARK   11  A    between atoms: C20_32  and  O7_33
REMARK   12  A    between atoms: C21_35  and  O8_36
REMARK   13  A    between atoms: C22_38  and  O9_39
ROOT
HETATM    1  O3  UNL     1      11.079  -0.558  14.457  1.00  0.00    -0.378 OA
ENDROOT
BRANCH   1   2
HETATM    2  C7  UNL     1      11.234   0.121  13.232  1.00  0.00     0.187 C
HETATM    3  C3  UNL     1      11.031  -0.975  12.132  1.00  0.00     0.090 C
HETATM    4  O2  UNL     1      10.224  -0.615  11.120  1.00  0.00    -0.367 OA
HETATM    5  C4  UNL     1      10.886  -2.358  12.664  1.00  0.00     0.041 C
HETATM    6  C6  UNL     1      12.402  -1.400  11.584  1.00  0.00     0.041 C
HETATM    7  C2  UNL     1       9.003  -0.151  11.142  1.00  0.00     0.177 C
HETATM    8  C22 UNL     1       8.724   1.363  11.162  1.00  0.00     0.180 C
HETATM    9  C21 UNL     1       9.329   2.025  12.441  1.00  0.00     0.180 C
HETATM   10  C20 UNL     1      10.355   1.199  12.945  1.00  0.00     0.181 C
HETATM   11  C5  UNL     1      11.858  -2.821  11.571  1.00  0.00     0.006 C
BRANCH   7  12
HETATM   12  C1  UNL     1       8.327  -0.583   9.817  1.00  0.00     0.198 C
BRANCH  12  13
HETATM   13  O1  UNL     1       8.720   0.353   8.876  1.00  0.00    -0.398 OA
ATOM     14  H1  UNL     1       9.548   0.698   9.189  1.00  0.00     0.209 HD
ENDBRANCH  12  13
ENDBRANCH   7  12
BRANCH   8  15
HETATM   15  O9  UNL     1       7.334   1.486  11.220  1.00  0.00    -0.390 OA
ATOM     16  H9  UNL     1       7.170   2.385  11.478  1.00  0.00     0.210 HD
ENDBRANCH   8  15
BRANCH   9  17
HETATM   17  O8  UNL     1       9.706   3.329  12.038  1.00  0.00    -0.390 OA
ATOM     18  H8  UNL     1       9.880   3.454  11.112  1.00  0.00     0.210 HD
ENDBRANCH   9  17
BRANCH  10  19
HETATM   19  O7  UNL     1      11.050   1.412  11.713  1.00  0.00    -0.390 OA
ATOM     20  H7  UNL     1      11.492   2.156  12.105  1.00  0.00     0.210 HD
ENDBRANCH  10  19
ENDBRANCH   1   2
BRANCH   1  21
HETATM   21  C8  UNL     1      12.137  -0.352  15.334  1.00  0.00     0.203 C
BRANCH  21  22
HETATM   22  C9  UNL     1      11.858   0.910  16.080  1.00  0.00     0.177 C
HETATM   23  O4  UNL     1      10.507   1.243  16.114  1.00  0.00    -0.371 OA
HETATM   24  C10 UNL     1      10.433   2.271  17.057  1.00  0.00     0.179 C
HETATM   25  C18 UNL     1      11.471   1.960  18.105  1.00  0.00     0.180 C
HETATM   26  C19 UNL     1      12.113   0.705  17.557  1.00  0.00     0.180 C
BRANCH  24  27
HETATM   27  C11 UNL     1       9.086   2.316  17.728  1.00  0.00     0.267 C
BRANCH  27  28
HETATM   28  N1  UNL     1       8.383   3.508  17.365  1.00  0.00    -0.068 N
ATOM     29  H12 UNL     1       7.676   3.732  18.065  1.00  0.00     0.277 HD
ATOM     30  H11 UNL     1       8.987   4.324  17.462  1.00  0.00     0.277 HD
BRANCH  28  31
HETATM   31  C12 UNL     1       7.800   3.471  16.061  1.00  0.00     0.186 C
HETATM   32  C13 UNL     1       6.929   2.261  15.920  1.00  0.00     0.033 C
HETATM   33  C14 UNL     1       5.691   2.293  16.755  1.00  0.00     0.002 C
HETATM   34  C15 UNL     1       4.935   3.592  16.672  1.00  0.00     0.000 C
HETATM   35  C16 UNL     1       5.912   4.733  16.965  1.00  0.00     0.002 C
HETATM   36  C17 UNL     1       6.940   4.701  15.854  1.00  0.00     0.033 C
ENDBRANCH  28  31
ENDBRANCH  27  28
ENDBRANCH  24  27
BRANCH  25  37
HETATM   37  O5  UNL     1      12.436   2.964  18.060  1.00  0.00    -0.390 OA
ATOM     38  H5  UNL     1      12.256   3.571  18.768  1.00  0.00     0.210 HD
ENDBRANCH  25  37
BRANCH  26  39
HETATM   39  O6  UNL     1      13.462   0.629  17.856  1.00  0.00    -0.390 OA
ATOM     40  H6  UNL     1      13.884  -0.117  17.446  1.00  0.00     0.210 HD
ENDBRANCH  26  39
ENDBRANCH  21  22
ENDBRANCH   1  21
TORSDOF 13
ENDMDL