MODEL 3
REMARK VINA RESULT: -7.978882186      1.579      2.087
REMARK  14 active torsions:
REMARK  status: ('A' for Active; 'I' for Inactive)
REMARK    1  A    between atoms: O1_1  and  C1_3
REMARK    2  A    between atoms: C1_3  and  C2_4
REMARK    3  A    between atoms: C2_4  and  O2_5
REMARK    4  A    between atoms: O2_5  and  C3_6
REMARK    5  A    between atoms: C3_6  and  C4_7
REMARK    6  A    between atoms: C5_9  and  O4_10
REMARK    7  A    between atoms: O4_10  and  C6_11
REMARK    8  A    between atoms: C8_13  and  O5_14
REMARK    9  A    between atoms: C9_16  and  O6_17
REMARK   10  A    between atoms: C10_19  and  O7_20
REMARK   11  A    between atoms: C11_22  and  O8_23
REMARK   12  A    between atoms: O8_23  and  C12_24
REMARK   13  A    between atoms: C20_32  and  O9_33
REMARK   14  A    between atoms: C22_36  and  O10_37
ROOT
HETATM    1  C6  UNL     1       8.985   0.979  15.037  1.00  0.00     0.158 C
HETATM    2  C7  UNL     1       7.464   0.895  15.333  1.00  0.00     0.069 C
HETATM    3  C8  UNL     1       7.014   2.334  15.388  1.00  0.00     0.152 C
HETATM    4  C9  UNL     1       7.746   3.063  16.453  1.00  0.00     0.178 C
HETATM    5  C10 UNL     1       8.662   2.168  17.215  1.00  0.00     0.180 C
HETATM    6  C11 UNL     1       9.604   1.353  16.366  1.00  0.00     0.182 C
ENDROOT
BRANCH   1   7
HETATM    7  O4  UNL     1       9.116   2.005  14.152  1.00  0.00    -0.353 OA
BRANCH   7   8
HETATM    8  C5  UNL     1       9.783   1.772  12.988  1.00  0.00     0.266 C
HETATM    9  O3  UNL     1      10.540   0.580  13.027  1.00  0.00    -0.350 OA
HETATM   10  C4  UNL     1      11.205   0.571  11.778  1.00  0.00     0.183 C
HETATM   11  C22 UNL     1      10.149   0.498  10.736  1.00  0.00     0.099 C
HETATM   12  C19 UNL     1       9.446   1.796  10.488  1.00  0.00     0.062 C
HETATM   13  C21 UNL     1       8.774   0.249  11.253  1.00  0.00     0.062 C
HETATM   14  C18 UNL     1       8.840   1.629  11.853  1.00  0.00     0.060 C
HETATM   15  C20 UNL     1       8.278   0.964  10.020  1.00  0.00     0.133 C
BRANCH  10  16
HETATM   16  C3  UNL     1      12.142  -0.614  11.677  1.00  0.00     0.202 C
BRANCH  16  17
HETATM   17  O2  UNL     1      11.877  -1.586  12.593  1.00  0.00    -0.386 OA
BRANCH  17  18
HETATM   18  C2  UNL     1      11.379  -2.719  12.000  1.00  0.00     0.193 C
BRANCH  18  19
HETATM   19  C1  UNL     1       9.991  -3.033  12.447  1.00  0.00     0.190 C
BRANCH  19  20
HETATM   20  O1  UNL     1       9.671  -2.244  13.590  1.00  0.00    -0.399 OA
ATOM     21  H1  UNL     1       8.950  -2.645  14.060  1.00  0.00     0.209 HD
ENDBRANCH  19  20
ENDBRANCH  18  19
ENDBRANCH  17  18
ENDBRANCH  16  17
ENDBRANCH  10  16
BRANCH  11  22
HETATM   22  O10 UNL     1      10.562  -0.205   9.636  1.00  0.00    -0.386 OA
ATOM     23  H10 UNL     1      10.049   0.007   8.866  1.00  0.00     0.210 HD
ENDBRANCH  11  22
BRANCH  15  24
HETATM   24  O9  UNL     1       8.399   0.329   8.819  1.00  0.00    -0.395 OA
ATOM     25  H9  UNL     1       7.885  -0.459   8.686  1.00  0.00     0.210 HD
ENDBRANCH  15  24
ENDBRANCH   7   8
ENDBRANCH   1   7
BRANCH   6  26
HETATM   26  O8  UNL     1      10.793   2.011  16.245  1.00  0.00    -0.375 OA
BRANCH  26  27
HETATM   27  C12 UNL     1      11.919   1.218  16.324  1.00  0.00     0.122 C
HETATM   28  C13 UNL     1      11.724  -0.242  16.175  1.00  0.00     0.032 C
HETATM   29  C14 UNL     1      13.031  -0.937  16.590  1.00  0.00     0.002 C
HETATM   30  C15 UNL     1      13.309  -0.766  18.050  1.00  0.00     0.000 C
HETATM   31  C16 UNL     1      12.701   0.503  18.608  1.00  0.00     0.002 C
HETATM   32  C17 UNL     1      12.670   1.606  17.575  1.00  0.00     0.032 C
ENDBRANCH  26  27
ENDBRANCH   6  26
BRANCH   3  33
HETATM   33  O5  UNL     1       5.649   2.414  15.662  1.00  0.00    -0.393 OA
ATOM     34  H5  UNL     1       5.460   2.080  16.531  1.00  0.00     0.210 HD
ENDBRANCH   3  33
BRANCH   5  35
HETATM   35  O7  UNL     1       9.477   3.012  18.011  1.00  0.00    -0.390 OA
ATOM     36  H7  UNL     1       8.899   3.663  18.392  1.00  0.00     0.210 HD
ENDBRANCH   5  35
BRANCH   4  37
HETATM   37  O6  UNL     1       8.501   4.136  15.927  1.00  0.00    -0.390 OA
ATOM     38  H6  UNL     1       8.871   4.677  16.615  1.00  0.00     0.210 HD
ENDBRANCH   4  37
TORSDOF 14
ENDMDL