MODEL 1
REMARK VINA RESULT: -8.219145447      0.000      0.000
REMARK  12 active torsions:
REMARK  status: ('A' for Active; 'I' for Inactive)
REMARK    1  A    between atoms: O1_2  and  C2_3
REMARK    2  A    between atoms: C3_4  and  O2_5
REMARK    3  A    between atoms: C4_7  and  N1_8
REMARK       I    between atoms: N1_8  and  C5_10
REMARK    4  A    between atoms: C5_10  and  C6_12
REMARK    5  A    between atoms: C12_19  and  O5_20
REMARK    6  A    between atoms: C12_19  and  C19_36
REMARK    7  A    between atoms: O5_20  and  C13_21
REMARK    8  A    between atoms: C14_23  and  C15_24
REMARK    9  A    between atoms: C15_24  and  O7_25
REMARK   10  A    between atoms: C16_27  and  O8_28
REMARK   11  A    between atoms: C17_30  and  O9_31
REMARK   12  A    between atoms: C18_33  and  O10_34
ROOT
HETATM    1  C2  UNL     1      10.516  -2.099  12.209  1.00  0.00     0.216 C
HETATM    2  C3  UNL     1      10.624  -1.696  13.686  1.00  0.00     0.201 C
HETATM    3  C4  UNL     1      12.009  -1.102  13.704  1.00  0.00     0.258 C
HETATM    4  O4  UNL     1      12.066  -0.382  12.549  1.00  0.00    -0.325 OA
HETATM    5  C12 UNL     1      11.367  -1.079  11.555  1.00  0.00     0.201 C
ENDROOT
BRANCH   5   6
HETATM    6  O5  UNL     1      10.788  -0.168  10.752  1.00  0.00    -0.319 OA
BRANCH   6   7
HETATM    7  C13 UNL     1       9.519  -0.316  10.317  1.00  0.00     0.295 C
HETATM    8  O6  UNL     1       8.709  -0.140  11.424  1.00  0.00    -0.348 OA
HETATM    9  C14 UNL     1       8.086   1.020  11.624  1.00  0.00     0.179 C
HETATM   10  C16 UNL     1       7.552   1.733  10.412  1.00  0.00     0.180 C
HETATM   11  C17 UNL     1       7.718   0.863   9.184  1.00  0.00     0.183 C
HETATM   12  C18 UNL     1       9.228   0.562   9.158  1.00  0.00     0.204 C
BRANCH   9  13
HETATM   13  C15 UNL     1       8.893   1.990  12.472  1.00  0.00     0.198 C
BRANCH  13  14
HETATM   14  O7  UNL     1       9.464   2.998  11.669  1.00  0.00    -0.398 OA
ATOM     15  H7  UNL     1      10.388   2.832  11.527  1.00  0.00     0.209 HD
ENDBRANCH  13  14
ENDBRANCH   9  13
BRANCH  10  16
HETATM   16  O8  UNL     1       6.212   2.075  10.512  1.00  0.00    -0.390 OA
ATOM     17  H8  UNL     1       5.645   1.567   9.943  1.00  0.00     0.210 HD
ENDBRANCH  10  16
BRANCH  11  18
HETATM   18  O9  UNL     1       7.321   1.521   8.046  1.00  0.00    -0.390 OA
ATOM     19  H9  UNL     1       7.904   2.243   7.841  1.00  0.00     0.210 HD
ENDBRANCH  11  18
BRANCH  12  20
HETATM   20  O10 UNL     1       9.891   1.785   9.167  1.00  0.00    -0.388 OA
ATOM     21  H10 UNL     1      10.360   1.994   8.366  1.00  0.00     0.210 HD
ENDBRANCH  12  20
ENDBRANCH   6   7
ENDBRANCH   5   6
BRANCH   5  22
HETATM   22  C19 UNL     1      12.440  -1.788  10.755  1.00  0.00     0.051 A
HETATM   23  C20 UNL     1      13.023  -1.198   9.526  1.00  0.00     0.011 A
HETATM   24  C21 UNL     1      13.842  -1.318  10.777  1.00  0.00     0.011 A
ENDBRANCH   5  22
BRANCH   1  25
HETATM   25  O1  UNL     1      10.991  -3.374  11.996  1.00  0.00    -0.382 OA
HETATM   26  C1  UNL     1      10.074  -4.370  12.283  1.00  0.00     0.202 C
ENDBRANCH   1  25
BRANCH   2  27
HETATM   27  O2  UNL     1       9.702  -0.690  13.905  1.00  0.00    -0.388 OA
ATOM     28  H2  UNL     1      10.166   0.035  14.306  1.00  0.00     0.210 HD
ENDBRANCH   2  27
BRANCH   3  29
HETATM   29  N1  UNL     1      12.171  -0.176  14.830  1.00  0.00    -0.332 N
HETATM   30  C5  UNL     1      12.486  -0.637  16.128  1.00  0.00     0.223 C
HETATM   31  O3  UNL     1      12.638  -1.849  16.368  1.00  0.00    -0.273 OA
ATOM     32  H1  UNL     1      12.054   0.824  14.673  1.00  0.00     0.165 HD
BRANCH  30  33
HETATM   33  C6  UNL     1      12.635   0.356  17.212  1.00  0.00     0.078 C
HETATM   34  C7  UNL     1      11.614   1.470  17.128  1.00  0.00     0.014 C
HETATM   35  C8  UNL     1      11.986   2.524  18.127  1.00  0.00     0.001 C
HETATM   36  C9  UNL     1      12.078   1.974  19.521  1.00  0.00     0.000 C
HETATM   37  C10 UNL     1      12.970   0.755  19.600  1.00  0.00     0.001 C
HETATM   38  C11 UNL     1      12.528  -0.278  18.581  1.00  0.00     0.014 C
ENDBRANCH  30  33
ENDBRANCH   3  29
TORSDOF 12
ENDMDL