MODEL 2
REMARK VINA RESULT: -8.177994546      0.845      1.271
REMARK  13 active torsions:
REMARK  status: ('A' for Active; 'I' for Inactive)
REMARK    1  A    between atoms: C3_3  and  S1_4
REMARK    2  A    between atoms: S1_4  and  C4_5
REMARK    3  A    between atoms: C4_5  and  C5_6
REMARK    4  A    between atoms: C5_6  and  C6_7
REMARK    5  A    between atoms: C6_7  and  S2_8
REMARK    6  A    between atoms: S2_8  and  C7_9
REMARK    7  A    between atoms: C7_9  and  C8_10
REMARK    8  A    between atoms: C10_13  and  O2_14
REMARK    9  A    between atoms: C11_16  and  O3_17
REMARK   10  A    between atoms: C12_19  and  O4_20
REMARK   11  A    between atoms: C13_22  and  O5_23
REMARK   12  A    between atoms: C15_26  and  O6_27
REMARK   13  A    between atoms: C16_29  and  O7_30
ROOT
HETATM    1  C1  UNL     1       9.338   3.191  17.497  1.00  0.00     0.013 C
HETATM    2  C2  UNL     1       8.659   4.157  17.781  1.00  0.00    -0.107 C
HETATM    3  C3  UNL     1       7.862   5.296  18.155  1.00  0.00     0.166 C
ENDROOT
BRANCH   3   4
HETATM    4  S1  UNL     1       6.228   5.384  17.479  1.00  0.00    -0.157 SA
BRANCH   4   5
HETATM    5  C4  UNL     1       6.033   4.412  15.993  1.00  0.00     0.075 C
BRANCH   5   6
HETATM    6  C5  UNL     1       5.086   3.261  16.216  1.00  0.00     0.020 C
BRANCH   6   7
HETATM    7  C6  UNL     1       5.938   2.010  16.457  1.00  0.00     0.075 C
BRANCH   7   8
HETATM    8  S2  UNL     1       6.832   1.445  15.058  1.00  0.00    -0.166 SA
BRANCH   8   9
HETATM    9  C7  UNL     1       5.980   0.460  13.889  1.00  0.00     0.108 C
BRANCH   9  10
HETATM   10  C8  UNL     1       6.736  -0.103  12.718  1.00  0.00     0.163 C
HETATM   11  O1  UNL     1       7.953   0.614  12.703  1.00  0.00    -0.363 OA
HETATM   12  C9  UNL     1       8.885   0.081  11.850  1.00  0.00     0.144 C
HETATM   13  C10 UNL     1       8.269  -0.032  10.473  1.00  0.00     0.189 C
HETATM   14  C13 UNL     1      10.087   1.027  11.837  1.00  0.00     0.167 C
HETATM   15  C17 UNL     1       9.452  -1.249  12.297  1.00  0.00     0.193 C
HETATM   16  C11 UNL     1       6.953   0.662  10.373  1.00  0.00     0.181 C
HETATM   17  C12 UNL     1       6.011   0.078  11.425  1.00  0.00     0.179 C
HETATM   18  C14 UNL     1      11.380   0.247  11.961  1.00  0.00     0.083 C
HETATM   19  C15 UNL     1      11.397  -0.246  13.418  1.00  0.00     0.159 C
HETATM   20  C18 UNL     1      11.447  -0.992  11.123  1.00  0.00     0.063 C
HETATM   21  C16 UNL     1      10.185  -1.131  13.595  1.00  0.00     0.179 C
HETATM   22  O8  UNL     1      10.283  -1.696  11.267  1.00  0.00    -0.369 OA
HETATM   23  C19 UNL     1      11.836  -0.718   9.679  1.00  0.00     0.046 C
HETATM   24  C20 UNL     1      12.616  -1.821  11.677  1.00  0.00     0.046 C
BRANCH  13  25
HETATM   25  O2  UNL     1       8.143  -1.332  10.052  1.00  0.00    -0.390 OA
ATOM     26  H2  UNL     1       7.543  -1.425   9.321  1.00  0.00     0.210 HD
ENDBRANCH  13  25
BRANCH  16  27
HETATM   27  O3  UNL     1       7.011   2.031  10.408  1.00  0.00    -0.390 OA
ATOM     28  H3  UNL     1       7.344   2.401  11.218  1.00  0.00     0.210 HD
ENDBRANCH  16  27
BRANCH  17  29
HETATM   29  O4  UNL     1       5.572  -1.148  10.901  1.00  0.00    -0.390 OA
ATOM     30  H4  UNL     1       5.993  -1.347  10.072  1.00  0.00     0.210 HD
ENDBRANCH  17  29
BRANCH  14  31
HETATM   31  O5  UNL     1      10.060   1.890  10.778  1.00  0.00    -0.392 OA
ATOM     32  H5  UNL     1      10.925   2.057  10.424  1.00  0.00     0.210 HD
ENDBRANCH  14  31
BRANCH  19  33
HETATM   33  O6  UNL     1      11.292   0.837  14.282  1.00  0.00    -0.392 OA
ATOM     34  H6  UNL     1      11.294   0.531  15.181  1.00  0.00     0.210 HD
ENDBRANCH  19  33
BRANCH  21  35
HETATM   35  O7  UNL     1       9.347  -0.696  14.595  1.00  0.00    -0.390 OA
ATOM     36  H7  UNL     1       8.743  -1.368  14.889  1.00  0.00     0.210 HD
ENDBRANCH  21  35
ENDBRANCH   9  10
ENDBRANCH   8   9
ENDBRANCH   7   8
ENDBRANCH   6   7
ENDBRANCH   5   6
ENDBRANCH   4   5
ENDBRANCH   3   4
TORSDOF 13
ENDMDL