MODEL 3
REMARK VINA RESULT: -8.099090201      1.962      5.054
REMARK  11 active torsions:
REMARK  status: ('A' for Active; 'I' for Inactive)
REMARK    1  A    between atoms: O1_2  and  C2_3
REMARK    2  A    between atoms: C4_6  and  O3_7
REMARK    3  A    between atoms: O3_7  and  C5_8
REMARK    4  A    between atoms: C9_12  and  O4_14
REMARK    5  A    between atoms: C11_16  and  O5_17
REMARK    6  A    between atoms: C12_19  and  O6_20
REMARK    7  A    between atoms: O6_20  and  C13_21
REMARK    8  A    between atoms: C16_24  and  O7_25
REMARK    9  A    between atoms: C17_27  and  C18_28
REMARK   10  A    between atoms: C18_28  and  O8_29
REMARK   11  A    between atoms: C19_32  and  N1_33
REMARK       I    between atoms: N1_33  and  C20_35
ROOT
HETATM    1  C2  UNL     1      12.183  -0.435  13.145  1.00  0.00     0.170 C
HETATM    2  C3  UNL     1      11.517  -0.017  11.865  1.00  0.00     0.205 C
HETATM    3  O2  UNL     1      10.137  -0.045  12.167  1.00  0.00    -0.356 OA
HETATM    4  C4  UNL     1       9.919   1.183  12.820  1.00  0.00     0.291 C
HETATM    5  C12 UNL     1      10.364   0.984  14.226  1.00  0.00     0.205 C
HETATM    6  C19 UNL     1      11.452  -0.043  14.389  1.00  0.00     0.149 C
ENDROOT
BRANCH   4   7
HETATM    7  O3  UNL     1       8.601   1.558  12.774  1.00  0.00    -0.351 OA
BRANCH   7   8
HETATM    8  C5  UNL     1       7.751   0.701  12.132  1.00  0.00     0.156 C
HETATM    9  C6  UNL     1       7.224   1.085  10.804  1.00  0.00     0.035 C
HETATM   10  C7  UNL     1       6.684  -0.201  10.145  1.00  0.00     0.006 C
HETATM   11  C8  UNL     1       5.430  -0.541  10.936  1.00  0.00     0.040 C
HETATM   12  C9  UNL     1       5.924  -0.904  12.328  1.00  0.00     0.082 C
HETATM   13  C10 UNL     1       4.793  -1.487  13.139  1.00  0.00     0.049 C
HETATM   14  C11 UNL     1       6.575   0.276  13.008  1.00  0.00     0.181 C
BRANCH  12  15
HETATM   15  O4  UNL     1       6.899  -1.885  12.162  1.00  0.00    -0.388 OA
ATOM     16  H4  UNL     1       7.110  -2.208  13.030  1.00  0.00     0.210 HD
ENDBRANCH  12  15
BRANCH  14  17
HETATM   17  O5  UNL     1       5.714   1.300  13.306  1.00  0.00    -0.390 OA
ATOM     18  H5  UNL     1       5.955   1.787  14.086  1.00  0.00     0.210 HD
ENDBRANCH  14  17
ENDBRANCH   7   8
ENDBRANCH   4   7
BRANCH   5  19
HETATM   19  O6  UNL     1       9.257   0.701  15.012  1.00  0.00    -0.349 OA
BRANCH  19  20
HETATM   20  C13 UNL     1       9.038   1.541  16.068  1.00  0.00     0.261 C
HETATM   21  C14 UNL     1       8.390   2.796  15.464  1.00  0.00     0.063 C
HETATM   22  C15 UNL     1       8.007   3.804  16.494  1.00  0.00     0.039 C
HETATM   23  C16 UNL     1       8.745   3.469  17.757  1.00  0.00     0.149 C
HETATM   24  C17 UNL     1      10.162   2.999  17.490  1.00  0.00     0.176 C
HETATM   25  O9  UNL     1      10.249   1.893  16.678  1.00  0.00    -0.351 OA
BRANCH  23  26
HETATM   26  O7  UNL     1       8.852   4.615  18.544  1.00  0.00    -0.393 OA
ATOM     27  H7  UNL     1       9.090   4.366  19.430  1.00  0.00     0.210 HD
ENDBRANCH  23  26
BRANCH  24  28
HETATM   28  C18 UNL     1      10.691   2.593  18.876  1.00  0.00     0.198 C
BRANCH  28  29
HETATM   29  O8  UNL     1      11.405   3.713  19.363  1.00  0.00    -0.398 OA
ATOM     30  H8  UNL     1      11.595   4.252  18.603  1.00  0.00     0.209 HD
ENDBRANCH  28  29
ENDBRANCH  24  28
ENDBRANCH  19  20
ENDBRANCH   5  19
BRANCH   6  31
HETATM   31  N1  UNL     1      12.452   0.380  15.349  1.00  0.00    -0.352 N
HETATM   32  C20 UNL     1      12.908  -0.486  16.375  1.00  0.00     0.214 C
HETATM   33  C21 UNL     1      13.915  -0.121  17.376  1.00  0.00     0.117 C
HETATM   34  O10 UNL     1      12.416  -1.643  16.432  1.00  0.00    -0.274 OA
ATOM     35  H1  UNL     1      12.836   1.323  15.285  1.00  0.00     0.163 HD
ENDBRANCH   6  31
BRANCH   1  36
HETATM   36  O1  UNL     1      12.355  -1.832  13.066  1.00  0.00    -0.386 OA
HETATM   37  C1  UNL     1      12.615  -2.275  11.795  1.00  0.00     0.202 C
ENDBRANCH   1  36
TORSDOF 11
ENDMDL