MODEL 3
REMARK VINA RESULT: -8.758893631      3.538      4.750
REMARK  11 active torsions:
REMARK  status: ('A' for Active; 'I' for Inactive)
REMARK       I    between atoms: N2_3  and  C2_5
REMARK       I    between atoms: C2_5  and  N6_22
REMARK    1  A    between atoms: N3_6  and  C3_8
REMARK    2  A    between atoms: C3_8  and  C4_9
REMARK    3  A    between atoms: C4_9  and  C5_10
REMARK    4  A    between atoms: C7_14  and  N5_15
REMARK    5  A    between atoms: N6_22  and  C13_24
REMARK    6  A    between atoms: C14_25  and  C15_26
REMARK    7  A    between atoms: C15_26  and  O1_27
REMARK    8  A    between atoms: C16_30  and  C17_31
REMARK    9  A    between atoms: C17_31  and  N7_32
REMARK   10  A    between atoms: C18_36  and  O3_37
REMARK   11  A    between atoms: C19_39  and  O4_40
ROOT
HETATM    1  N1  UNL     1      11.703   0.648  14.774  1.00  0.00    -0.171 NA
HETATM    2  C1  UNL     1      10.708   1.168  14.416  1.00  0.00     0.196 C
HETATM    3  N2  UNL     1       9.527   1.784  14.017  1.00  0.00    -0.126 N
ATOM      4  H2  UNL     1       9.604   2.647  13.478  1.00  0.00     0.197 HD
HETATM    5  C2  UNL     1       8.236   1.310  14.300  1.00  0.00     0.683 C
HETATM    6  N3  UNL     1       7.727   0.497  13.400  1.00  0.00    -0.225 N
ATOM      7  H3  UNL     1       6.791   0.124  13.556  1.00  0.00     0.177 HD
HETATM    8  N6  UNL     1       7.451   1.584  15.428  1.00  0.00    -0.216 N
ATOM      9  H6  UNL     1       6.952   0.781  15.811  1.00  0.00     0.178 HD
ENDROOT
BRANCH   6  10
HETATM   10  C3  UNL     1       8.435   0.105  12.197  1.00  0.00     0.143 C
BRANCH  10  11
HETATM   11  C4  UNL     1       8.922  -1.315  12.266  1.00  0.00     0.068 C
BRANCH  11  12
HETATM   12  C5  UNL     1      10.322  -1.358  11.752  1.00  0.00     0.003 A
HETATM   13  C6  UNL     1      11.268  -2.319  12.006  1.00  0.00     0.105 A
HETATM   14  N4  UNL     1      12.430  -2.192  11.460  1.00  0.00    -0.346 N
HETATM   15  C7  UNL     1      12.684  -1.150  10.675  1.00  0.00     0.146 A
ATOM     16  H4  UNL     1      13.154  -2.891  11.631  1.00  0.00     0.167 HD
HETATM   17  S1  UNL     1      11.197  -0.302  10.713  1.00  0.00    -0.057 SA
BRANCH  15  18
HETATM   18  N5  UNL     1      13.912  -0.857   9.969  1.00  0.00    -0.361 N
HETATM   19  C8  UNL     1      14.065  -1.424   8.649  1.00  0.00     0.125 C
HETATM   20  C9  UNL     1      14.555  -0.364   7.672  1.00  0.00     0.020 C
HETATM   21  C10 UNL     1      15.708   0.428   8.214  1.00  0.00     0.003 C
HETATM   22  C11 UNL     1      16.126  -0.012   9.598  1.00  0.00     0.020 C
HETATM   23  C12 UNL     1      14.942  -0.037  10.540  1.00  0.00     0.125 C
ENDBRANCH  15  18
ENDBRANCH  11  12
ENDBRANCH  10  11
ENDBRANCH   6  10
BRANCH   8  24
HETATM   24  C13 UNL     1       7.241   2.805  16.118  1.00  0.00     0.161 C
HETATM   25  C14 UNL     1       7.863   2.892  17.495  1.00  0.00     0.171 C
HETATM   26  O2  UNL     1       7.609   4.123  18.076  1.00  0.00    -0.372 OA
HETATM   27  C16 UNL     1       7.124   5.085  17.233  1.00  0.00     0.178 C
HETATM   28  C18 UNL     1       5.862   4.761  16.511  1.00  0.00     0.179 C
HETATM   29  C19 UNL     1       5.818   3.268  16.237  1.00  0.00     0.175 C
BRANCH  25  30
HETATM   30  C15 UNL     1       9.374   2.762  17.429  1.00  0.00     0.198 C
BRANCH  30  31
HETATM   31  O1  UNL     1       9.988   3.281  18.572  1.00  0.00    -0.398 OA
ATOM     32  H1  UNL     1      10.466   4.080  18.383  1.00  0.00     0.209 HD
ENDBRANCH  30  31
ENDBRANCH  25  30
BRANCH  27  33
HETATM   33  C17 UNL     1       6.942   6.352  18.092  1.00  0.00     0.264 C
BRANCH  33  34
HETATM   34  N7  UNL     1       8.107   6.614  18.912  1.00  0.00    -0.077 N
ATOM     35  H73 UNL     1       8.930   6.125  18.556  1.00  0.00     0.274 HD
ATOM     36  H72 UNL     1       8.433   7.574  18.801  1.00  0.00     0.274 HD
ATOM     37  H71 UNL     1       7.936   6.390  19.892  1.00  0.00     0.274 HD
ENDBRANCH  33  34
ENDBRANCH  27  33
BRANCH  28  38
HETATM   38  O3  UNL     1       4.714   5.187  17.176  1.00  0.00    -0.390 OA
ATOM     39  H3  UNL     1       4.602   6.130  17.175  1.00  0.00     0.210 HD
ENDBRANCH  28  38
BRANCH  29  40
HETATM   40  O4  UNL     1       5.101   2.698  17.260  1.00  0.00    -0.391 OA
ATOM     41  H4  UNL     1       4.789   1.817  17.092  1.00  0.00     0.210 HD
ENDBRANCH  29  40
ENDBRANCH   8  24
TORSDOF 11
ENDMDL