MODEL 4
REMARK VINA RESULT: -7.044871699      2.903      4.776
REMARK  12 active torsions:
REMARK  status: ('A' for Active; 'I' for Inactive)
REMARK    1  A    between atoms: O1_2  and  C2_3
REMARK    2  A    between atoms: C3_4  and  O2_5
REMARK    3  A    between atoms: C4_7  and  C5_8
REMARK    4  A    between atoms: C5_8  and  O3_9
REMARK    5  A    between atoms: C6_12  and  N1_13
REMARK    6  A    between atoms: N1_13  and  C7_15
REMARK    7  A    between atoms: C12_20  and  N2_21
REMARK       I    between atoms: N2_21  and  C13_23
REMARK    8  A    between atoms: C13_23  and  C14_25
REMARK    9  A    between atoms: C14_25  and  N3_26
REMARK   10  A    between atoms: C14_25  and  C15_30
REMARK   11  A    between atoms: C19_34  and  O6_35
REMARK   12  A    between atoms: C21_38  and  O7_39
ROOT
HETATM    1  O6  UNL     1       8.932   1.761  11.121  1.00  0.00    -0.274 OA
HETATM    2  C20 UNL     1       8.089   1.923  10.075  1.00  0.00     0.229 C
HETATM    3  N4  UNL     1       7.381   2.075   9.174  1.00  0.00    -0.164 NA
ENDROOT
BRANCH   1   4
HETATM    4  C19 UNL     1       9.146   0.483  11.683  1.00  0.00     0.187 C
HETATM    5  C7  UNL     1       7.782  -0.032  12.078  1.00  0.00     0.112 C
HETATM    6  C8  UNL     1       7.673  -1.474  12.283  1.00  0.00     0.032 C
HETATM    7  C9  UNL     1       8.871  -2.304  11.860  1.00  0.00    -0.015 C
HETATM    8  C10 UNL     1       9.834  -2.416  12.985  1.00  0.00     0.010 C
HETATM    9  C11 UNL     1       9.387  -1.758  10.586  1.00  0.00     0.032 C
HETATM   10  C12 UNL     1       9.884  -0.354  10.712  1.00  0.00     0.117 C
BRANCH   5  11
HETATM   11  N1  UNL     1       7.308   0.761  13.126  1.00  0.00    -0.388 N
ATOM     12  H1  UNL     1       6.371   1.149  13.024  1.00  0.00     0.156 HD
BRANCH  11  13
HETATM   13  C6  UNL     1       7.988   1.068  14.287  1.00  0.00     0.249 C
HETATM   14  O4  UNL     1       7.164   0.975  15.444  1.00  0.00    -0.354 OA
HETATM   15  C4  UNL     1       6.466   2.134  15.686  1.00  0.00     0.179 C
HETATM   16  C3  UNL     1       7.402   3.258  16.142  1.00  0.00     0.180 C
HETATM   17  C2  UNL     1       8.801   2.736  15.887  1.00  0.00     0.185 C
HETATM   18  C21 UNL     1       8.810   2.299  14.397  1.00  0.00     0.198 C
BRANCH  15  19
HETATM   19  C5  UNL     1       5.491   1.883  16.800  1.00  0.00     0.198 C
BRANCH  19  20
HETATM   20  O3  UNL     1       4.935   3.063  17.309  1.00  0.00    -0.398 OA
ATOM     21  H3  UNL     1       5.417   3.406  18.052  1.00  0.00     0.209 HD
ENDBRANCH  19  20
ENDBRANCH  15  19
BRANCH  16  22
HETATM   22  O2  UNL     1       7.168   4.333  15.277  1.00  0.00    -0.390 OA
ATOM     23  H2  UNL     1       6.994   3.988  14.409  1.00  0.00     0.210 HD
ENDBRANCH  16  22
BRANCH  17  24
HETATM   24  O1  UNL     1       9.093   1.650  16.675  1.00  0.00    -0.385 OA
HETATM   25  C1  UNL     1      10.271   1.842  17.420  1.00  0.00     0.202 C
ENDBRANCH  17  24
BRANCH  18  26
HETATM   26  O7  UNL     1      10.140   2.160  14.003  1.00  0.00    -0.389 OA
ATOM     27  H7  UNL     1      10.148   1.737  13.153  1.00  0.00     0.210 HD
ENDBRANCH  18  26
ENDBRANCH  11  13
ENDBRANCH   5  11
BRANCH  10  28
HETATM   28  N2  UNL     1      11.309  -0.413  10.978  1.00  0.00    -0.352 N
HETATM   29  C13 UNL     1      12.285  -0.564   9.935  1.00  0.00     0.249 C
HETATM   30  O5  UNL     1      11.869  -0.645   8.753  1.00  0.00    -0.271 OA
ATOM     31  H2  UNL     1      11.630  -0.345  11.944  1.00  0.00     0.163 HD
BRANCH  29  32
HETATM   32  C14 UNL     1      13.722  -0.628  10.178  1.00  0.00     0.282 C
BRANCH  32  33
HETATM   33  N3  UNL     1      14.209   0.299  11.163  1.00  0.00    -0.066 N
ATOM     34  H33 UNL     1      14.114   1.257  10.825  1.00  0.00     0.275 HD
ATOM     35  H32 UNL     1      13.575   0.331  11.962  1.00  0.00     0.275 HD
ATOM     36  H31 UNL     1      15.164   0.128  11.477  1.00  0.00     0.275 HD
ENDBRANCH  32  33
BRANCH  32  37
HETATM   37  C15 UNL     1      14.194  -2.010  10.494  1.00  0.00    -0.014 C
HETATM   38  C16 UNL     1      15.195  -2.008  11.630  1.00  0.00     0.017 C
HETATM   39  C17 UNL     1      13.052  -2.926  10.897  1.00  0.00     0.017 C
HETATM   40  C18 UNL     1      14.848  -2.584   9.239  1.00  0.00     0.017 C
ENDBRANCH  32  37
ENDBRANCH  29  32
ENDBRANCH  10  28
ENDBRANCH   1   4
TORSDOF 12
ENDMDL