MODEL 5
REMARK VINA RESULT: -8.438554148      1.712      2.244
REMARK  6 active torsions:
REMARK  status: ('A' for Active; 'I' for Inactive)
REMARK    1  A    between atoms: O1_2  and  C2_3
REMARK    2  A    between atoms: C2_3  and  C3_5
REMARK       I    between atoms: C3_5  and  N1_7
REMARK    3  A    between atoms: N1_7  and  C4_9
REMARK    4  A    between atoms: C6_14  and  C7_15
REMARK    5  A    between atoms: C8_16  and  C9_17
REMARK    6  A    between atoms: C12_20  and  O4_21
ROOT
HETATM    1  C4  UNL     1      53.645  -6.490  63.139  1.00  0.00     0.154 A
HETATM    2  N2  UNL     1      54.661  -7.068  63.781  1.00  0.00    -0.323 N
ATOM      3  H2  UNL     1      55.557  -7.212  63.314  1.00  0.00     0.169 HD
HETATM    4  C5  UNL     1      54.487  -7.445  65.021  1.00  0.00     0.144 A
HETATM    5  N3  UNL     1      55.511  -8.081  65.821  1.00  0.00    -0.081 NA
HETATM    6  C6  UNL     1      53.256  -7.220  65.584  1.00  0.00     0.103 A
HETATM    7  S1  UNL     1      52.405  -6.477  64.307  1.00  0.00    -0.041 SA
ENDROOT
BRANCH   6   8
HETATM    8  C7  UNL     1      52.811  -7.545  66.937  1.00  0.00    -0.050 C
HETATM    9  C8  UNL     1      52.424  -7.808  68.048  1.00  0.00    -0.055 C
BRANCH   9  10
HETATM   10  C9  UNL     1      51.978  -8.103  69.382  1.00  0.00     0.086 A
HETATM   11  C10 UNL     1      52.340  -9.287  70.022  1.00  0.00     0.030 A
HETATM   12  C11 UNL     1      51.913  -9.571  71.298  1.00  0.00     0.058 A
HETATM   13  C12 UNL     1      51.111  -8.653  71.941  1.00  0.00     0.144 A
HETATM   14  N4  UNL     1      50.771  -7.520  71.315  1.00  0.00    -0.303 N
HETATM   15  C14 UNL     1      51.185  -7.230  70.061  1.00  0.00     0.266 A
ATOM     16  H4  UNL     1      50.178  -6.849  71.803  1.00  0.00     0.171 HD
HETATM   17  O5  UNL     1      50.855  -6.159  69.486  1.00  0.00    -0.267 OA
BRANCH  13  18
HETATM   18  O4  UNL     1      50.674  -8.925  73.226  1.00  0.00    -0.341 OA
HETATM   19  C13 UNL     1      49.819  -8.027  73.895  1.00  0.00     0.211 C
ENDBRANCH  13  18
ENDBRANCH   9  10
ENDBRANCH   6   8
BRANCH   1  20
HETATM   20  N1  UNL     1      53.651  -6.057  61.905  1.00  0.00    -0.298 N
HETATM   21  C3  UNL     1      53.173  -6.888  60.860  1.00  0.00     0.322 C
HETATM   22  O3  UNL     1      51.991  -6.712  60.473  1.00  0.00    -0.261 OA
ATOM     23  H1  UNL     1      54.000  -5.122  61.695  1.00  0.00     0.171 HD
BRANCH  21  24
HETATM   24  C2  UNL     1      54.041  -7.894  60.277  1.00  0.00     0.351 C
HETATM   25  O2  UNL     1      55.057  -8.310  60.880  1.00  0.00    -0.254 OA
BRANCH  24  26
HETATM   26  O1  UNL     1      53.800  -8.455  59.021  1.00  0.00    -0.319 OA
HETATM   27  C1  UNL     1      52.822  -9.482  58.869  1.00  0.00     0.213 C
ENDBRANCH  24  26
ENDBRANCH  21  24
ENDBRANCH   1  20
TORSDOF 6
ENDMDL