MODEL 1
REMARK VINA RESULT: -8.286041983      0.000      0.000
REMARK  2 active torsions:
REMARK  status: ('A' for Active; 'I' for Inactive)
REMARK       I    between atoms: N2_8  and  C5_9
REMARK       I    between atoms: C5_9  and  N3_11
REMARK    1  A    between atoms: N3_11  and  C6_13
REMARK    2  A    between atoms: C8_22  and  N7_23
ROOT
HETATM    1  C1  UNL     1      55.256 -14.699  67.678  1.00  0.00     0.048 C
HETATM    2  C2  UNL     1      54.878 -13.535  68.564  1.00  0.00     0.107 C
HETATM    3  C3  UNL     1      54.838 -13.905  70.021  1.00  0.00     0.048 C
HETATM    4  N1  UNL     1      55.833 -12.441  68.370  1.00  0.00    -0.349 N
ATOM      5  H1  UNL     1      56.763 -12.373  68.783  1.00  0.00     0.163 HD
HETATM    6  C4  UNL     1      55.227 -11.487  67.495  1.00  0.00     0.186 C
HETATM    7  S1  UNL     1      55.989 -10.232  66.739  1.00  0.00    -0.040 SA
HETATM    8  N2  UNL     1      53.845 -11.768  67.356  1.00  0.00    -0.206 N
HETATM    9  C5  UNL     1      52.906 -11.046  66.572  1.00  0.00     0.337 C
HETATM   10  O1  UNL     1      51.697 -11.385  66.519  1.00  0.00    -0.246 OA
HETATM   11  N3  UNL     1      53.310  -9.915  65.822  1.00  0.00    -0.290 N
ATOM     12  H3  UNL     1      53.939 -10.035  65.028  1.00  0.00     0.172 HD
HETATM   13  C9  UNL     1      53.586 -12.931  68.169  1.00  0.00     0.262 C
HETATM   14  O4  UNL     1      52.427 -13.321  68.461  1.00  0.00    -0.270 OA
ENDROOT
BRANCH  11  15
HETATM   15  C6  UNL     1      52.893  -8.739  66.130  1.00  0.00     0.164 A
HETATM   16  N4  UNL     1      52.302  -8.437  67.290  1.00  0.00    -0.315 N
HETATM   17  C7  UNL     1      51.870  -7.201  67.599  1.00  0.00     0.192 A
ATOM     18  H4  UNL     1      52.173  -9.181  67.976  1.00  0.00     0.170 HD
HETATM   19  S2  UNL     1      51.145  -6.851  69.030  1.00  0.00    -0.039 SA
HETATM   20  N5  UNL     1      52.056  -6.233  66.667  1.00  0.00    -0.274 N
HETATM   21  N6  UNL     1      52.634  -6.490  65.511  1.00  0.00    -0.275 N
ATOM     22  H5  UNL     1      51.741  -5.284  66.866  1.00  0.00     0.189 HD
HETATM   23  C8  UNL     1      53.074  -7.723  65.185  1.00  0.00     0.233 A
ATOM     24  H6  UNL     1      52.753  -5.730  64.840  1.00  0.00     0.189 HD
BRANCH  23  25
HETATM   25  N7  UNL     1      53.696  -7.999  63.943  1.00  0.00    -0.092 N
HETATM   26  O2  UNL     1      54.862  -7.622  63.758  1.00  0.00    -0.530 OA
HETATM   27  O3  UNL     1      53.029  -8.670  62.957  1.00  0.00    -0.530 OA
ENDBRANCH  23  25
ENDBRANCH  11  15
TORSDOF 2
ENDMDL