MODEL 3
REMARK VINA RESULT: -8.748042105      2.555      4.758
REMARK  4 active torsions:
REMARK  status: ('A' for Active; 'I' for Inactive)
REMARK    1  A    between atoms: C4_4  and  N1_5
REMARK    2  A    between atoms: N1_5  and  C5_7
REMARK    3  A    between atoms: C7_10  and  C8_11
REMARK    4  A    between atoms: C8_11  and  O1_12
ROOT
HETATM    1  C8  UNL     1      51.375  -8.529  70.352  1.00  0.00     0.181 C
HETATM    2  N3  UNL     1      51.393  -7.849  71.533  1.00  0.00    -0.267 N
HETATM    3  C9  UNL     1      52.207  -7.916  72.679  1.00  0.00     0.171 C
HETATM    4  C10 UNL     1      50.355  -6.816  71.661  1.00  0.00     0.186 C
HETATM    5  N4  UNL     1      49.532  -6.008  71.742  1.00  0.00    -0.172 NA
ENDROOT
BRANCH   1   6
HETATM    6  C7  UNL     1      52.166  -9.558  69.734  1.00  0.00     0.130 A
HETATM    7  N2  UNL     1      52.920  -9.299  68.585  1.00  0.00    -0.149 N
HETATM    8  C6  UNL     1      53.055  -8.234  67.775  1.00  0.00     0.151 A
HETATM    9  C13 UNL     1      53.635 -10.387  68.258  1.00  0.00     0.694 A
HETATM   10  C5  UNL     1      53.890  -8.225  66.644  1.00  0.00     0.120 A
HETATM   11  C15 UNL     1      54.579  -9.384  66.396  1.00  0.00     0.289 A
HETATM   12  N6  UNL     1      54.470 -10.457  67.172  1.00  0.00    -0.149 N
HETATM   13  O2  UNL     1      55.344  -9.449  65.401  1.00  0.00    -0.265 OA
HETATM   14  C14 UNL     1      55.180 -11.700  66.944  1.00  0.00     0.179 C
HETATM   15  N5  UNL     1      53.359 -11.326  69.161  1.00  0.00    -0.193 N
HETATM   16  C11 UNL     1      52.462 -10.838  70.074  1.00  0.00     0.055 A
ATOM     17  H5  UNL     1      53.755 -12.266  69.172  1.00  0.00     0.184 HD
HETATM   18  C12 UNL     1      52.003 -11.627  71.221  1.00  0.00     0.071 C
BRANCH  10  19
HETATM   19  N1  UNL     1      53.991  -7.098  65.844  1.00  0.00    -0.336 N
ATOM     20  H1  UNL     1      54.248  -6.232  66.318  1.00  0.00     0.168 HD
BRANCH  19  21
HETATM   21  C4  UNL     1      53.802  -7.016  64.589  1.00  0.00     0.122 A
HETATM   22  C3  UNL     1      52.572  -6.703  64.029  1.00  0.00     0.075 A
HETATM   23  C2  UNL     1      52.695  -6.694  62.660  1.00  0.00     0.025 A
HETATM   24  C1  UNL     1      51.579  -6.396  61.725  1.00  0.00     0.070 C
HETATM   25  N8  UNL     1      53.972  -6.995  62.401  1.00  0.00    -0.304 N
HETATM   26  N7  UNL     1      54.633  -7.187  63.554  1.00  0.00    -0.285 N
ATOM     27  H8  UNL     1      54.382  -7.066  61.470  1.00  0.00     0.186 HD
ATOM     28  H7  UNL     1      55.620  -7.428  63.630  1.00  0.00     0.188 HD
ENDBRANCH  19  21
ENDBRANCH  10  19
ENDBRANCH   1   6
BRANCH   1  29
HETATM   29  O1  UNL     1      50.329  -8.100  69.608  1.00  0.00    -0.344 OA
ATOM     30  H1  UNL     1      49.475  -8.296  69.975  1.00  0.00     0.219 HD
ENDBRANCH   1  29
TORSDOF 4
ENDMDL