MODEL 3
REMARK VINA RESULT: -8.730363626      1.254      1.858
REMARK  3 active torsions:
REMARK  status: ('A' for Active; 'I' for Inactive)
REMARK    1  A    between atoms: C2_2  and  N1_3
REMARK    2  A    between atoms: C5_6  and  C6_7
REMARK    3  A    between atoms: C7_8  and  C8_9
ROOT
HETATM    1  C8  UNL     1      52.596  -7.640  66.013  1.00  0.00     0.112 A
HETATM    2  C9  UNL     1      53.020  -8.664  65.180  1.00  0.00     0.101 A
HETATM    3  N2  UNL     1      53.104  -9.975  65.699  1.00  0.00    -0.098 NA
HETATM    4  C10 UNL     1      53.356  -8.394  63.863  1.00  0.00     0.104 A
HETATM    5  N3  UNL     1      53.789  -9.168  62.846  1.00  0.00    -0.348 N
ATOM      6  H3  UNL     1      53.948 -10.173  62.913  1.00  0.00     0.167 HD
HETATM    7  C11 UNL     1      53.982  -8.446  61.742  1.00  0.00     0.182 A
HETATM    8  N4  UNL     1      53.663  -7.169  62.057  1.00  0.00    -0.337 N
ATOM      9  H4  UNL     1      53.705  -6.373  61.420  1.00  0.00     0.168 HD
HETATM   10  C12 UNL     1      53.281  -7.122  63.344  1.00  0.00     0.138 A
HETATM   11  N5  UNL     1      52.864  -6.138  64.173  1.00  0.00    -0.306 N
ATOM     12  H5  UNL     1      52.797  -5.185  63.815  1.00  0.00     0.170 HD
HETATM   13  C13 UNL     1      52.532  -6.376  65.460  1.00  0.00     0.267 A
HETATM   14  O1  UNL     1      52.153  -5.381  66.156  1.00  0.00    -0.266 OA
ENDROOT
BRANCH   1  15
HETATM   15  C7  UNL     1      52.239  -7.882  67.390  1.00  0.00    -0.053 C
HETATM   16  C6  UNL     1      51.932  -8.081  68.539  1.00  0.00    -0.053 C
BRANCH  16  17
HETATM   17  C5  UNL     1      51.557  -8.303  69.919  1.00  0.00     0.108 A
HETATM   18  C3  UNL     1      51.182  -7.259  70.749  1.00  0.00     0.036 A
HETATM   19  N1  UNL     1      50.831  -7.450  72.033  1.00  0.00    -0.302 N
HETATM   20  C4  UNL     1      51.172  -5.902  70.189  1.00  0.00     0.070 C
HETATM   21  C16 UNL     1      50.856  -8.712  72.500  1.00  0.00     0.331 A
HETATM   22  N6  UNL     1      51.217  -9.759  71.722  1.00  0.00    -0.269 N
HETATM   23  O3  UNL     1      50.542  -8.969  73.688  1.00  0.00    -0.246 OA
HETATM   24  C14 UNL     1      51.570  -9.572  70.430  1.00  0.00     0.272 A
HETATM   25  C15 UNL     1      51.240 -11.115  72.237  1.00  0.00     0.164 C
HETATM   26  O2  UNL     1      51.902 -10.558  69.726  1.00  0.00    -0.266 OA
BRANCH  19  27
HETATM   27  C2  UNL     1      50.442  -6.368  72.894  1.00  0.00     0.129 C
HETATM   28  C1  UNL     1      51.587  -5.800  73.696  1.00  0.00     0.027 C
ENDBRANCH  19  27
ENDBRANCH  16  17
ENDBRANCH   1  15
TORSDOF 3
ENDMDL