MODEL 3
REMARK VINA RESULT: -9.213699326      2.776      6.026
REMARK  2 active torsions:
REMARK  status: ('A' for Active; 'I' for Inactive)
REMARK       I    between atoms: C2_2  and  N1_4
REMARK    1  A    between atoms: N1_4  and  C3_6
REMARK    2  A    between atoms: C5_10  and  N3_11
ROOT
HETATM    1  C3  UNL     1      53.441  -8.328  62.963  1.00  0.00     0.152 A
HETATM    2  N2  UNL     1      53.584  -8.933  64.134  1.00  0.00    -0.333 N
ATOM      3  H2  UNL     1      54.016  -9.854  64.197  1.00  0.00     0.168 HD
HETATM    4  C4  UNL     1      53.152  -8.311  65.222  1.00  0.00     0.084 A
HETATM    5  C5  UNL     1      53.190  -8.745  66.569  1.00  0.00     0.112 A
HETATM    6  C9  UNL     1      52.693  -7.970  67.581  1.00  0.00     0.036 A
HETATM    7  C10 UNL     1      52.767  -8.491  68.986  1.00  0.00     0.070 C
HETATM    8  N6  UNL     1      52.140  -6.756  67.378  1.00  0.00    -0.366 N
ATOM      9  H6  UNL     1      51.779  -6.201  68.154  1.00  0.00     0.165 HD
HETATM   10  C11 UNL     1      52.084  -6.307  66.117  1.00  0.00     0.109 A
HETATM   11  C12 UNL     1      52.585  -7.078  65.050  1.00  0.00     0.053 A
HETATM   12  S1  UNL     1      52.691  -6.857  63.358  1.00  0.00    -0.050 SA
ENDROOT
BRANCH   5  13
HETATM   13  N3  UNL     1      53.752 -10.018  66.923  1.00  0.00    -0.198 N
HETATM   14  N4  UNL     1      54.942 -10.096  67.510  1.00  0.00    -0.251 N
HETATM   15  C6  UNL     1      55.457 -11.274  67.835  1.00  0.00     0.328 A
ATOM     16  H4  UNL     1      55.463  -9.243  67.712  1.00  0.00     0.191 HD
HETATM   17  O2  UNL     1      56.592 -11.350  68.396  1.00  0.00    -0.261 OA
HETATM   18  C7  UNL     1      54.787 -12.455  67.581  1.00  0.00     0.319 A
HETATM   19  O3  UNL     1      55.307 -13.554  67.903  1.00  0.00    -0.262 OA
HETATM   20  N5  UNL     1      53.584 -12.376  66.987  1.00  0.00    -0.269 N
HETATM   21  C8  UNL     1      53.099 -11.166  66.674  1.00  0.00     0.349 A
ATOM     22  H5  UNL     1      53.050 -13.220  66.778  1.00  0.00     0.174 HD
HETATM   23  O4  UNL     1      51.970 -11.081  66.115  1.00  0.00    -0.245 OA
ENDBRANCH   5  13
BRANCH   1  24
HETATM   24  N1  UNL     1      53.824  -8.831  61.814  1.00  0.00    -0.307 N
HETATM   25  C2  UNL     1      53.670  -7.974  60.664  1.00  0.00     0.219 C
HETATM   26  C1  UNL     1      52.308  -7.589  60.219  1.00  0.00     0.117 C
HETATM   27  O1  UNL     1      54.709  -7.578  60.073  1.00  0.00    -0.274 OA
ATOM     28  H1  UNL     1      54.208  -9.772  61.737  1.00  0.00     0.171 HD
ENDBRANCH   1  24
TORSDOF 2
ENDMDL