MODEL 1
REMARK VINA RESULT: -9.690205585      0.000      0.000
REMARK  3 active torsions:
REMARK  status: ('A' for Active; 'I' for Inactive)
REMARK    1  A    between atoms: C4_4  and  N1_5
REMARK       I    between atoms: N1_5  and  C5_7
REMARK    2  A    between atoms: C5_7  and  C6_9
REMARK    3  A    between atoms: C9_15  and  C10_16
REMARK       I    between atoms: C10_16  and  N4_18
ROOT
HETATM    1  C6  UNL     1      53.439  -8.735  66.817  1.00  0.00     0.101 A
HETATM    2  C7  UNL     1      52.762  -7.645  67.367  1.00  0.00     0.068 A
HETATM    3  C8  UNL     1      52.564  -6.372  66.640  1.00  0.00     0.072 C
HETATM    4  N2  UNL     1      52.271  -7.787  68.626  1.00  0.00    -0.088 N
HETATM    5  N3  UNL     1      51.604  -6.929  69.371  1.00  0.00    -0.259 N
ATOM      6  H3  UNL     1      51.354  -5.985  69.076  1.00  0.00     0.190 HD
HETATM    7  C9  UNL     1      51.291  -7.461  70.581  1.00  0.00     0.205 A
HETATM    8  N5  UNL     1      51.798  -8.694  70.551  1.00  0.00    -0.168 N
ATOM      9  H5  UNL     1      51.743  -9.378  71.306  1.00  0.00     0.186 HD
HETATM   10  C13 UNL     1      52.403  -8.889  69.339  1.00  0.00     0.707 A
HETATM   11  N6  UNL     1      53.045  -9.940  68.832  1.00  0.00    -0.174 N
ATOM     12  H6  UNL     1      53.144 -10.790  69.388  1.00  0.00     0.186 HD
HETATM   13  C14 UNL     1      53.579  -9.887  67.557  1.00  0.00     0.132 A
HETATM   14  N7  UNL     1      54.173 -10.913  67.139  1.00  0.00    -0.384 N
ATOM     15  H71 UNL     1      54.277 -11.766  67.688  1.00  0.00     0.157 HD
ATOM     16  H72 UNL     1      54.566 -10.874  66.198  1.00  0.00     0.157 HD
ENDROOT
BRANCH   1  17
HETATM   17  C5  UNL     1      53.971  -8.603  65.485  1.00  0.00     0.263 C
HETATM   18  N1  UNL     1      53.244  -8.789  64.273  1.00  0.00    -0.307 N
ATOM     19  H1  UNL     1      52.605  -9.584  64.228  1.00  0.00     0.170 HD
HETATM   20  O1  UNL     1      55.176  -8.299  65.273  1.00  0.00    -0.267 OA
BRANCH  18  21
HETATM   21  C4  UNL     1      53.325  -8.045  63.238  1.00  0.00     0.130 A
HETATM   22  C3  UNL     1      52.548  -6.959  62.910  1.00  0.00     0.084 A
HETATM   23  C2  UNL     1      53.013  -6.485  61.709  1.00  0.00     0.076 A
HETATM   24  C1  UNL     1      52.464  -5.301  60.959  1.00  0.00     0.079 C
HETATM   25  O3  UNL     1      53.998  -7.241  61.351  1.00  0.00    -0.241 OA
HETATM   26  N8  UNL     1      54.213  -8.174  62.229  1.00  0.00    -0.245 N
ATOM     27  H8  UNL     1      54.936  -8.890  62.165  1.00  0.00     0.196 HD
ENDBRANCH  18  21
ENDBRANCH   1  17
BRANCH   7  28
HETATM   28  C10 UNL     1      50.549  -6.749  71.631  1.00  0.00     0.288 C
HETATM   29  O2  UNL     1      49.538  -6.032  71.286  1.00  0.00    -0.264 OA
HETATM   30  N4  UNL     1      50.935  -6.850  72.976  1.00  0.00    -0.354 N
HETATM   31  C11 UNL     1      52.058  -7.645  73.372  1.00  0.00     0.152 C
HETATM   32  C12 UNL     1      50.176  -6.132  73.986  1.00  0.00     0.152 C
ENDBRANCH   7  28
TORSDOF 3
ENDMDL