MODEL 4
REMARK VINA RESULT: -8.999823045      2.295      3.782
REMARK  4 active torsions:
REMARK  status: ('A' for Active; 'I' for Inactive)
REMARK    1  A    between atoms: N1_2  and  C2_4
REMARK    2  A    between atoms: C7_15  and  N5_16
REMARK       I    between atoms: N5_16  and  C8_18
REMARK    3  A    between atoms: C8_18  and  C9_20
REMARK    4  A    between atoms: C9_20  and  O2_23
ROOT
HETATM    1  C2  UNL     1      53.666 -12.134  69.434  1.00  0.00     0.689 A
HETATM    2  N2  UNL     1      54.007 -13.293  68.845  1.00  0.00    -0.192 N
ATOM      3  H2  UNL     1      54.283 -14.152  69.320  1.00  0.00     0.184 HD
HETATM    4  C3  UNL     1      53.918 -13.114  67.516  1.00  0.00     0.068 A
HETATM    5  C4  UNL     1      54.198 -14.108  66.450  1.00  0.00     0.073 C
HETATM    6  C5  UNL     1      53.512 -11.804  67.320  1.00  0.00     0.157 A
HETATM    7  N3  UNL     1      53.316 -11.268  66.089  1.00  0.00    -0.324 N
ATOM      8  H3  UNL     1      53.108 -11.910  65.324  1.00  0.00     0.169 HD
HETATM    9  C6  UNL     1      53.377  -9.933  65.794  1.00  0.00     0.150 A
HETATM   10  N4  UNL     1      53.748  -9.433  64.616  1.00  0.00    -0.174 N
ATOM     11  H4  UNL     1      54.027  -9.979  63.801  1.00  0.00     0.186 HD
HETATM   12  C7  UNL     1      53.693  -8.050  64.681  1.00  0.00     0.689 A
HETATM   13  N6  UNL     1      53.282  -7.714  65.913  1.00  0.00    -0.183 N
HETATM   14  C12 UNL     1      53.056  -6.428  66.510  1.00  0.00     0.175 C
HETATM   15  C13 UNL     1      53.082  -8.865  66.621  1.00  0.00     0.101 A
HETATM   16  C14 UNL     1      52.656  -8.933  67.938  1.00  0.00     0.109 C
HETATM   17  C15 UNL     1      52.980  -9.948  68.851  1.00  0.00     0.270 C
HETATM   18  O3  UNL     1      52.902  -9.627  70.049  1.00  0.00    -0.267 OA
HETATM   19  N7  UNL     1      53.356 -11.199  68.516  1.00  0.00    -0.094 N
ENDROOT
BRANCH  12  20
HETATM   20  N5  UNL     1      53.990  -7.286  63.717  1.00  0.00    -0.157 N
HETATM   21  C8  UNL     1      53.248  -6.468  62.895  1.00  0.00     0.269 C
HETATM   22  O1  UNL     1      52.663  -5.437  63.389  1.00  0.00    -0.269 OA
ATOM     23  H5  UNL     1      54.987  -7.273  63.504  1.00  0.00     0.187 HD
BRANCH  21  24
HETATM   24  C9  UNL     1      53.059  -6.680  61.429  1.00  0.00     0.132 C
HETATM   25  C10 UNL     1      53.881  -7.803  60.894  1.00  0.00     0.056 C
HETATM   26  C11 UNL     1      53.499  -5.348  60.792  1.00  0.00     0.056 C
BRANCH  24  27
HETATM   27  O2  UNL     1      51.741  -6.840  61.073  1.00  0.00    -0.381 OA
ATOM     28  H2  UNL     1      51.631  -7.134  60.177  1.00  0.00     0.211 HD
ENDBRANCH  24  27
ENDBRANCH  21  24
ENDBRANCH  12  20
BRANCH   1  29
HETATM   29  N1  UNL     1      53.643 -11.958  70.692  1.00  0.00    -0.230 N
HETATM   30  C1  UNL     1      54.800 -12.122  71.537  1.00  0.00     0.165 C
ATOM     31  H1  UNL     1      52.761 -11.687  71.127  1.00  0.00     0.177 HD
ENDBRANCH   1  29
TORSDOF 4
ENDMDL