MODEL 2
REMARK VINA RESULT: -8.600182158      1.141      1.361
REMARK  6 active torsions:
REMARK  status: ('A' for Active; 'I' for Inactive)
REMARK    1  A    between atoms: O1_2  and  C2_3
REMARK    2  A    between atoms: C2_3  and  C3_5
REMARK    3  A    between atoms: C3_5  and  O3_7
REMARK    4  A    between atoms: C3_5  and  C5_9
REMARK    5  A    between atoms: C6_10  and  C7_11
REMARK    6  A    between atoms: N3_21  and  C11_22
ROOT
HETATM    1  C7  UNL     1      52.781  -8.088  65.740  1.00  0.00     0.164 A
HETATM    2  N1  UNL     1      51.935  -7.803  66.738  1.00  0.00    -0.328 N
ATOM      3  H1  UNL     1      51.214  -7.082  66.730  1.00  0.00     0.168 HD
HETATM    4  C8  UNL     1      52.212  -8.652  67.767  1.00  0.00     0.148 A
HETATM    5  C9  UNL     1      51.655  -8.798  69.023  1.00  0.00     0.280 A
HETATM    6  O4  UNL     1      50.704  -8.057  69.391  1.00  0.00    -0.265 OA
HETATM    7  N2  UNL     1      52.131  -9.731  69.852  1.00  0.00    -0.273 N
ATOM      8  H2  UNL     1      51.728  -9.848  70.781  1.00  0.00     0.173 HD
HETATM    9  C10 UNL     1      53.160 -10.527  69.442  1.00  0.00     0.331 A
HETATM   10  O5  UNL     1      53.512 -11.361  70.313  1.00  0.00    -0.246 OA
HETATM   11  N3  UNL     1      53.711 -10.402  68.232  1.00  0.00    -0.274 N
HETATM   12  C15 UNL     1      53.242  -9.443  67.348  1.00  0.00     0.147 A
HETATM   13  N4  UNL     1      53.603  -9.105  66.097  1.00  0.00    -0.319 N
ATOM     14  H4  UNL     1      54.342  -9.526  65.535  1.00  0.00     0.169 HD
ENDROOT
BRANCH   1  15
HETATM   15  C6  UNL     1      52.876  -7.463  64.449  1.00  0.00    -0.026 C
HETATM   16  C5  UNL     1      52.973  -6.942  63.365  1.00  0.00    -0.050 C
BRANCH  16  17
HETATM   17  C3  UNL     1      53.097  -6.296  62.043  1.00  0.00     0.206 C
HETATM   18  C4  UNL     1      51.781  -5.659  61.630  1.00  0.00     0.072 C
BRANCH  17  19
HETATM   19  C2  UNL     1      53.534  -7.330  61.096  1.00  0.00     0.305 C
HETATM   20  O2  UNL     1      54.608  -7.944  61.316  1.00  0.00    -0.261 OA
BRANCH  19  21
HETATM   21  O1  UNL     1      52.804  -7.663  59.956  1.00  0.00    -0.323 OA
HETATM   22  C1  UNL     1      53.080  -8.878  59.289  1.00  0.00     0.213 C
ENDBRANCH  19  21
ENDBRANCH  17  19
BRANCH  17  23
HETATM   23  O3  UNL     1      54.048  -5.301  62.136  1.00  0.00    -0.369 OA
ATOM     24  H3  UNL     1      53.685  -4.470  61.849  1.00  0.00     0.212 HD
ENDBRANCH  17  23
ENDBRANCH  16  17
ENDBRANCH   1  15
BRANCH  11  25
HETATM   25  C11 UNL     1      54.784 -11.209  67.762  1.00  0.00     0.032 C
HETATM   26  C12 UNL     1      54.351 -12.209  66.701  1.00  0.00     0.038 C
HETATM   27  C13 UNL     1      55.853 -10.264  67.228  1.00  0.00     0.038 C
HETATM   28  C14 UNL     1      55.415 -12.017  68.859  1.00  0.00     0.038 C
ENDBRANCH  11  25
TORSDOF 6
ENDMDL