MODEL 5
REMARK VINA RESULT: -8.733450615      1.933      2.337
REMARK  2 active torsions:
REMARK  status: ('A' for Active; 'I' for Inactive)
REMARK    1  A    between atoms: C4_7  and  N2_8
REMARK       I    between atoms: N2_8  and  C5_10
REMARK       I    between atoms: C5_10  and  N3_12
REMARK    2  A    between atoms: N3_12  and  S2_14
ROOT
HETATM    1  C1  UNL     1      52.631 -14.691  69.207  1.00  0.00     0.059 C
HETATM    2  C2  UNL     1      53.273 -13.615  68.406  1.00  0.00     0.011 A
HETATM    3  S1  UNL     1      54.397 -13.682  67.090  1.00  0.00    -0.072 SA
HETATM    4  C3  UNL     1      54.584 -12.000  66.791  1.00  0.00     0.121 A
HETATM    5  N1  UNL     1      55.132 -10.946  66.100  1.00  0.00    -0.182 N
ATOM      6  H1  UNL     1      55.795 -11.001  65.327  1.00  0.00     0.185 HD
HETATM    7  C4  UNL     1      54.614  -9.808  66.654  1.00  0.00     0.698 A
HETATM    8  N4  UNL     1      53.771 -10.150  67.658  1.00  0.00    -0.089 N
HETATM    9  C7  UNL     1      52.981  -9.486  68.552  1.00  0.00     0.362 A
HETATM   10  O4  UNL     1      52.970  -8.250  68.506  1.00  0.00    -0.244 OA
HETATM   11  N5  UNL     1      52.256 -10.238  69.437  1.00  0.00    -0.246 N
HETATM   12  C8  UNL     1      51.431  -9.482  70.369  1.00  0.00     0.183 C
HETATM   13  N6  UNL     1      52.293 -11.567  69.456  1.00  0.00    -0.292 N
ATOM     14  H6  UNL     1      51.732 -12.080  70.137  1.00  0.00     0.187 HD
HETATM   15  C9  UNL     1      53.090 -12.258  68.555  1.00  0.00     0.092 A
HETATM   16  C10 UNL     1      53.767 -11.481  67.725  1.00  0.00     0.125 A
ENDROOT
BRANCH   7  17
HETATM   17  N2  UNL     1      54.882  -8.613  66.288  1.00  0.00    -0.140 N
HETATM   18  C5  UNL     1      54.664  -8.011  65.058  1.00  0.00     0.347 C
HETATM   19  O1  UNL     1      55.577  -7.385  64.481  1.00  0.00    -0.245 OA
HETATM   20  N3  UNL     1      53.401  -8.086  64.421  1.00  0.00    -0.236 N
ATOM     21  H3  UNL     1      52.643  -8.593  64.879  1.00  0.00     0.183 HD
ATOM     22  H2  UNL     1      55.315  -8.022  66.997  1.00  0.00     0.189 HD
BRANCH  20  23
HETATM   23  S2  UNL     1      53.106  -7.345  62.890  1.00  0.00     0.230 S
HETATM   24  C6  UNL     1      53.761  -8.297  61.544  1.00  0.00     0.186 C
HETATM   25  O2  UNL     1      51.613  -7.226  62.681  1.00  0.00    -0.206 OA
HETATM   26  O3  UNL     1      53.766  -5.996  62.833  1.00  0.00    -0.206 OA
ENDBRANCH  20  23
ENDBRANCH   7  17
TORSDOF 2
ENDMDL