MODEL 1
REMARK VINA RESULT: -9.034957640      0.000      0.000
REMARK  2 active torsions:
REMARK  status: ('A' for Active; 'I' for Inactive)
REMARK    1  A    between atoms: C5_10  and  N3_11
REMARK    2  A    between atoms: N5_17  and  C7_19
ROOT
HETATM    1  C7  UNL     1      53.131  -7.352  67.282  1.00  0.00     0.115 C
HETATM    2  C8  UNL     1      51.998  -6.825  66.443  1.00  0.00     0.062 C
HETATM    3  C9  UNL     1      52.766  -7.233  65.251  1.00  0.00    -0.058 C
HETATM    4  C10 UNL     1      52.817  -6.853  64.001  1.00  0.00     0.097 C
HETATM    5  C11 UNL     1      53.680  -7.438  63.027  1.00  0.00     0.088 C
HETATM    6  N6  UNL     1      54.363  -7.914  62.226  1.00  0.00    -0.192 NA
HETATM    7  C12 UNL     1      53.429  -8.231  66.083  1.00  0.00    -0.002 C
HETATM    8  C13 UNL     1      54.877  -8.498  65.827  1.00  0.00     0.021 C
HETATM    9  C14 UNL     1      52.577  -9.506  66.114  1.00  0.00     0.021 C
ENDROOT
BRANCH   1  10
HETATM   10  N5  UNL     1      52.883  -8.120  68.417  1.00  0.00    -0.220 N
HETATM   11  C6  UNL     1      52.231  -7.863  69.479  1.00  0.00     0.683 A
HETATM   12  N4  UNL     1      51.634  -6.682  69.654  1.00  0.00    -0.176 N
HETATM   13  N7  UNL     1      52.167  -8.855  70.437  1.00  0.00    -0.171 N
HETATM   14  C5  UNL     1      50.942  -6.389  70.755  1.00  0.00     0.134 A
ATOM     15  H4  UNL     1      51.709  -5.979  68.918  1.00  0.00     0.186 HD
HETATM   16  C4  UNL     1      50.849  -7.348  71.739  1.00  0.00     0.121 A
HETATM   17  C3  UNL     1      50.139  -7.068  72.884  1.00  0.00     0.267 A
HETATM   18  C16 UNL     1      51.479  -8.608  71.568  1.00  0.00     0.148 A
HETATM   19  N2  UNL     1      50.050  -7.995  73.828  1.00  0.00    -0.274 N
HETATM   20  O2  UNL     1      49.601  -5.938  72.986  1.00  0.00    -0.267 OA
HETATM   21  C2  UNL     1      50.648  -9.165  73.646  1.00  0.00     0.330 A
ATOM     22  H2  UNL     1      49.528  -7.810  74.685  1.00  0.00     0.173 HD
HETATM   23  N1  UNL     1      51.376  -9.529  72.534  1.00  0.00    -0.288 N
HETATM   24  O1  UNL     1      50.551 -10.042  74.565  1.00  0.00    -0.246 OA
HETATM   25  C1  UNL     1      51.973 -10.799  72.429  1.00  0.00     0.163 C
HETATM   26  C15 UNL     1      52.820 -10.095  70.227  1.00  0.00     0.177 C
ATOM     27  H5  UNL     1      53.297  -9.052  68.393  1.00  0.00     0.178 HD
BRANCH  14  28
HETATM   28  N3  UNL     1      50.370  -5.269  70.930  1.00  0.00    -0.384 N
ATOM     29  H32 UNL     1      50.053  -4.947  71.845  1.00  0.00     0.157 HD
ATOM     30  H31 UNL     1      50.220  -4.659  70.126  1.00  0.00     0.157 HD
ENDBRANCH  14  28
ENDBRANCH   1  10
TORSDOF 2
ENDMDL