MODEL 2
REMARK VINA RESULT: -5.021553285      0.898      1.077
REMARK  0 active torsions:
REMARK  status: ('A' for Active; 'I' for Inactive)
ROOT
HETATM    1  C1  UNL     1      13.958   1.931  27.455  1.00  0.00     0.079 C
HETATM    2  N1  UNL     1      12.776   2.138  27.066  1.00  0.00    -0.320 N
ATOM      3  H1  UNL     1      12.499   3.118  27.125  1.00  0.00     0.185 HD
HETATM    4  N2  UNL     1      11.790   1.330  26.582  1.00  0.00    -0.337 N
ATOM      5  H2  UNL     1      11.067   1.018  27.231  1.00  0.00     0.180 HD
HETATM    6  C2  UNL     1      11.701   0.878  25.179  1.00  0.00     0.139 C
HETATM    7  C3  UNL     1      11.891  -0.575  25.043  1.00  0.00     0.021 C
HETATM    8  C4  UNL     1      12.946  -1.076  24.146  1.00  0.00     0.002 C
HETATM    9  C5  UNL     1      14.162  -0.253  23.979  1.00  0.00     0.000 C
HETATM   10  C6  UNL     1      15.438  -0.969  24.380  1.00  0.00     0.000 C
HETATM   11  C7  UNL     1      15.695  -0.910  25.854  1.00  0.00     0.000 C
HETATM   12  C8  UNL     1      15.709   0.466  26.434  1.00  0.00     0.005 C
HETATM   13  C9  UNL     1      14.668   0.628  27.500  1.00  0.00     0.046 C
ENDROOT
TORSDOF 0
ENDMDL