MODEL 3
REMARK VINA RESULT: -4.783690749      1.376      2.861
REMARK  0 active torsions:
REMARK  status: ('A' for Active; 'I' for Inactive)
ROOT
HETATM    1  N1  UNL     1      12.158   1.746  27.333  1.00  0.00    -0.389 N
ATOM      2  H11 UNL     1      11.306   1.984  26.826  1.00  0.00     0.157 HD
ATOM      3  H12 UNL     1      12.192   1.894  28.342  1.00  0.00     0.157 HD
HETATM    4  C1  UNL     1      13.167   1.271  26.722  1.00  0.00     0.070 C
HETATM    5  C2  UNL     1      14.385   0.932  27.447  1.00  0.00     0.076 C
HETATM    6  C3  UNL     1      15.177  -0.189  26.862  1.00  0.00     0.014 C
HETATM    7  C4  UNL     1      15.110  -0.391  25.415  1.00  0.00     0.009 C
HETATM    8  C5  UNL     1      14.924  -1.894  25.147  1.00  0.00     0.007 C
HETATM    9  C6  UNL     1      13.473  -2.253  25.354  1.00  0.00     0.001 C
HETATM   10  C7  UNL     1      12.687  -1.625  24.231  1.00  0.00     0.002 C
HETATM   11  C8  UNL     1      13.417  -0.486  23.576  1.00  0.00     0.025 C
HETATM   12  C9  UNL     1      14.147   0.384  24.616  1.00  0.00     0.086 C
HETATM   13  N2  UNL     1      13.119   1.067  25.332  1.00  0.00    -0.375 N
ATOM     14  H2  UNL     1      12.316   1.422  24.813  1.00  0.00     0.161 HD
ENDROOT
TORSDOF 0
ENDMDL