MODEL 2
REMARK VINA RESULT: -4.524268913      0.803      3.296
REMARK  0 active torsions:
REMARK  status: ('A' for Active; 'I' for Inactive)
ROOT
HETATM    1  C1  UNL     1      13.629   1.554  27.042  1.00  0.00     0.000 C
HETATM    2  C2  UNL     1      14.666   2.376  26.274  1.00  0.00     0.000 C
HETATM    3  C3  UNL     1      15.943   1.632  26.065  1.00  0.00     0.001 C
HETATM    4  C4  UNL     1      16.643   1.920  24.790  1.00  0.00     0.017 C
HETATM    5  C5  UNL     1      16.063   1.304  23.574  1.00  0.00     0.130 C
HETATM    6  N1  UNL     1      14.739   0.795  23.707  1.00  0.00    -0.149 NA
HETATM    7  N2  UNL     1      14.564  -0.382  22.969  1.00  0.00    -0.149 NA
HETATM    8  C6  UNL     1      13.323  -1.037  23.252  1.00  0.00     0.130 C
HETATM    9  C7  UNL     1      12.390  -0.239  24.113  1.00  0.00     0.017 C
HETATM   10  C8  UNL     1      12.770  -0.308  25.591  1.00  0.00     0.001 C
HETATM   11  C9  UNL     1      12.531   1.057  26.167  1.00  0.00     0.000 C
ENDROOT
TORSDOF 0
ENDMDL