MODEL 2
REMARK VINA RESULT: -5.452844122      1.143      1.272
REMARK  1 active torsions:
REMARK  status: ('A' for Active; 'I' for Inactive)
REMARK    1  A    between atoms: O1_1  and  N1_3
ROOT
HETATM    1  N1  UNL     1      12.278  -2.043  25.299  1.00  0.00    -0.277 N
ATOM      2  H1  UNL     1      11.404  -1.755  25.738  1.00  0.00     0.193 HD
HETATM    3  C1  UNL     1      13.089  -1.133  24.874  1.00  0.00     0.010 C
HETATM    4  C2  UNL     1      12.672   0.275  25.066  1.00  0.00     0.054 C
HETATM    5  C3  UNL     1      12.987   0.741  26.470  1.00  0.00     0.006 C
HETATM    6  C4  UNL     1      13.808   1.984  26.503  1.00  0.00     0.000 C
HETATM    7  C5  UNL     1      14.984   1.990  25.590  1.00  0.00     0.000 C
HETATM    8  C6  UNL     1      15.719   0.673  25.533  1.00  0.00     0.000 C
HETATM    9  C7  UNL     1      16.073   0.250  24.152  1.00  0.00     0.000 C
HETATM   10  C8  UNL     1      15.038  -0.541  23.435  1.00  0.00     0.006 C
HETATM   11  C9  UNL     1      14.338  -1.567  24.247  1.00  0.00     0.054 C
ENDROOT
BRANCH   1  12
HETATM   12  O1  UNL     1      12.550  -3.384  25.181  1.00  0.00    -0.290 OA
ATOM     13  H1  UNL     1      11.930  -4.054  25.445  1.00  0.00     0.244 HD
ENDBRANCH   1  12
TORSDOF 1
ENDMDL