MODEL 2
REMARK VINA RESULT: -5.114580029      2.395      3.683
REMARK  1 active torsions:
REMARK  status: ('A' for Active; 'I' for Inactive)
REMARK    1  A    between atoms: O1_1  and  C1_3
ROOT
HETATM    1  C1  UNL     1      12.672  -1.421  24.478  1.00  0.00     0.213 C
HETATM    2  C2  UNL     1      13.995  -1.105  25.055  1.00  0.00     0.058 C
HETATM    3  C3  UNL     1      14.117   0.166  25.796  1.00  0.00    -0.005 C
HETATM    4  C4  UNL     1      15.166   0.035  26.908  1.00  0.00     0.005 C
HETATM    5  C5  UNL     1      15.415   1.341  27.592  1.00  0.00     0.000 C
HETATM    6  C6  UNL     1      14.378   2.379  27.352  1.00  0.00     0.000 C
HETATM    7  C7  UNL     1      12.989   1.872  27.210  1.00  0.00     0.006 C
HETATM    8  C8  UNL     1      12.846   0.586  26.494  1.00  0.00     0.007 C
HETATM    9  C9  UNL     1      11.745   0.579  25.452  1.00  0.00     0.121 C
HETATM   10  N1  UNL     1      11.552  -0.761  25.024  1.00  0.00    -0.396 N
ATOM     11  H1  UNL     1      10.647  -1.223  25.107  1.00  0.00     0.155 HD
ENDROOT
BRANCH   1  12
HETATM   12  O1  UNL     1      12.682  -1.258  23.073  1.00  0.00    -0.377 OA
ATOM     13  H1  UNL     1      11.849  -0.920  22.765  1.00  0.00     0.212 HD
ENDBRANCH   1  12
TORSDOF 1
ENDMDL