MODEL 4
REMARK VINA RESULT: -4.663517903      2.251      3.574
REMARK  1 active torsions:
REMARK  status: ('A' for Active; 'I' for Inactive)
REMARK    1  A    between atoms: O1_1  and  C1_3
ROOT
HETATM    1  C1  UNL     1      14.785  -0.886  23.314  1.00  0.00     0.118 C
HETATM    2  C2  UNL     1      15.402   0.511  23.290  1.00  0.00     0.032 C
HETATM    3  C3  UNL     1      16.367   0.653  24.422  1.00  0.00     0.002 C
HETATM    4  C4  UNL     1      15.922   1.624  25.481  1.00  0.00     0.000 C
HETATM    5  C5  UNL     1      14.892   1.024  26.421  1.00  0.00     0.000 C
HETATM    6  C6  UNL     1      13.549   1.643  26.201  1.00  0.00     0.000 C
HETATM    7  C7  UNL     1      12.403   0.694  26.332  1.00  0.00     0.000 C
HETATM    8  C8  UNL     1      11.877   0.204  25.004  1.00  0.00     0.000 C
HETATM    9  C9  UNL     1      12.588  -1.040  24.524  1.00  0.00     0.002 C
HETATM   10  C10 UNL     1      13.287  -0.832  23.208  1.00  0.00     0.032 C
ENDROOT
BRANCH   1  11
HETATM   11  O1  UNL     1      15.315  -1.612  22.230  1.00  0.00    -0.396 OA
ATOM     12  H1  UNL     1      15.749  -0.997  21.650  1.00  0.00     0.210 HD
ENDBRANCH   1  11
TORSDOF 1
ENDMDL