MODEL 1
REMARK VINA RESULT: -4.435833306      0.000      0.000
REMARK  1 active torsions:
REMARK  status: ('A' for Active; 'I' for Inactive)
REMARK    1  A    between atoms: C8_11  and  O1_13
ROOT
HETATM    1  C1  UNL     1      14.986  -0.825  23.332  1.00  0.00     0.020 C
HETATM    2  C2  UNL     1      14.242  -0.742  24.666  1.00  0.00     0.010 C
HETATM    3  C3  UNL     1      14.806  -1.868  25.529  1.00  0.00     0.020 C
HETATM    4  C4  UNL     1      14.563   0.559  25.298  1.00  0.00     0.020 C
HETATM    5  C5  UNL     1      13.392   1.409  25.646  1.00  0.00     0.019 A
HETATM    6  C6  UNL     1      12.876   1.230  27.099  1.00  0.00     0.040 A
HETATM    7  C7  UNL     1      12.134   0.747  25.915  1.00  0.00     0.194 A
HETATM    8  N1  UNL     1      12.034  -0.641  25.596  1.00  0.00    -0.038 N
ATOM      9  H11 UNL     1      11.065  -0.950  25.531  1.00  0.00     0.281 HD
ATOM     10  H12 UNL     1      12.328  -1.234  26.372  1.00  0.00     0.281 HD
HETATM   11  C8  UNL     1      12.787  -0.926  24.371  1.00  0.00     0.228 C
HETATM   12  C9  UNL     1      12.467  -2.344  23.995  1.00  0.00     0.079 C
ENDROOT
BRANCH  11  13
HETATM   13  O1  UNL     1      12.433  -0.088  23.334  1.00  0.00    -0.365 OA
ATOM     14  H1  UNL     1      12.978   0.691  23.368  1.00  0.00     0.212 HD
ENDBRANCH  11  13
TORSDOF 1
ENDMDL