MODEL 5
REMARK VINA RESULT: -4.571469967      2.261      3.608
REMARK  0 active torsions:
REMARK  status: ('A' for Active; 'I' for Inactive)
ROOT
HETATM    1  C1  UNL     1      16.255   0.425  22.170  1.00  0.00     0.176 C
HETATM    2  N1  UNL     1      15.683   0.222  23.520  1.00  0.00    -0.316 N
HETATM    3  C2  UNL     1      15.772   1.361  24.229  1.00  0.00     0.082 C
HETATM    4  C3  UNL     1      15.767   1.540  25.684  1.00  0.00     0.046 C
HETATM    5  C4  UNL     1      14.427   2.058  26.289  1.00  0.00     0.005 C
HETATM    6  C5  UNL     1      13.499   1.072  25.748  1.00  0.00     0.000 C
HETATM    7  C6  UNL     1      12.096   0.844  25.972  1.00  0.00     0.000 C
HETATM    8  C7  UNL     1      11.729  -0.188  24.879  1.00  0.00     0.002 C
HETATM    9  C8  UNL     1      12.768  -1.185  24.521  1.00  0.00     0.021 C
HETATM   10  C9  UNL     1      13.611  -0.931  23.310  1.00  0.00     0.139 C
HETATM   11  N2  UNL     1      15.061  -0.916  23.542  1.00  0.00    -0.335 N
ATOM     12  H2  UNL     1      15.569  -1.783  23.716  1.00  0.00     0.180 HD
ENDROOT
TORSDOF 0
ENDMDL