MODEL 2
REMARK VINA RESULT: -4.846006907      1.205      3.562
REMARK  1 active torsions:
REMARK  status: ('A' for Active; 'I' for Inactive)
REMARK    1  A    between atoms: O1_1  and  C1_3
ROOT
HETATM    1  C1  UNL     1      12.980  -0.850  25.593  1.00  0.00     0.126 C
HETATM    2  C2  UNL     1      11.984   0.313  25.591  1.00  0.00     0.032 C
HETATM    3  C3  UNL     1      12.503   1.252  26.635  1.00  0.00     0.002 C
HETATM    4  C4  UNL     1      13.831   1.805  26.260  1.00  0.00     0.001 C
HETATM    5  C5  UNL     1      14.634   1.024  25.299  1.00  0.00     0.012 C
HETATM    6  C6  UNL     1      14.293  -0.384  25.070  1.00  0.00    -0.014 C
HETATM    7  C7  UNL     1      14.336  -0.667  23.567  1.00  0.00     0.012 C
HETATM    8  C8  UNL     1      15.551  -1.514  23.331  1.00  0.00     0.001 C
HETATM    9  C9  UNL     1      15.559  -2.390  24.582  1.00  0.00     0.001 C
HETATM   10  C10 UNL     1      15.343  -1.339  25.653  1.00  0.00     0.012 C
ENDROOT
BRANCH   1  11
HETATM   11  O1  UNL     1      12.490  -1.953  24.925  1.00  0.00    -0.395 OA
ATOM     12  H1  UNL     1      12.199  -2.632  25.523  1.00  0.00     0.210 HD
ENDBRANCH   1  11
TORSDOF 1
ENDMDL