MODEL 2
REMARK VINA RESULT: -4.886384666      0.821      2.866
REMARK  1 active torsions:
REMARK  status: ('A' for Active; 'I' for Inactive)
REMARK    1  A    between atoms: N1_9  and  N2_10
ROOT
HETATM    1  C1  UNL     1      12.570  -1.524  24.742  1.00  0.00     0.040 C
HETATM    2  C2  UNL     1      13.696  -0.586  24.981  1.00  0.00     0.046 C
HETATM    3  C3  UNL     1      14.217  -0.035  23.671  1.00  0.00     0.032 C
HETATM    4  C4  UNL     1      15.469   0.762  23.883  1.00  0.00     0.004 C
HETATM    5  C5  UNL     1      15.495   1.584  25.115  1.00  0.00     0.027 C
HETATM    6  C6  UNL     1      14.678   1.040  26.252  1.00  0.00     0.104 C
HETATM    7  C7  UNL     1      15.371  -0.251  26.701  1.00  0.00     0.029 C
HETATM    8  C8  UNL     1      14.793  -1.275  25.766  1.00  0.00     0.034 C
HETATM    9  N1  UNL     1      13.397   0.526  25.824  1.00  0.00    -0.300 N
ENDROOT
BRANCH   9  10
HETATM   10  N2  UNL     1      12.168   1.022  26.168  1.00  0.00    -0.251 N
HETATM   11  N3  UNL     1      11.925   1.792  27.123  1.00  0.00    -0.331 N
ATOM     12  H32 UNL     1      12.729   2.067  27.688  1.00  0.00     0.178 HD
ATOM     13  H31 UNL     1      11.010   2.161  27.380  1.00  0.00     0.178 HD
ATOM     14  H2  UNL     1      11.376   0.736  25.592  1.00  0.00     0.207 HD
ENDBRANCH   9  10
TORSDOF 1
ENDMDL