MODEL 5
REMARK VINA RESULT: -8.398990837      1.396      1.581
REMARK  4 active torsions:
REMARK  status: ('A' for Active; 'I' for Inactive)
REMARK    1  A    between atoms: C8_9  and  N1_10
REMARK    2  A    between atoms: N1_10  and  C9_12
REMARK    3  A    between atoms: C13_16  and  N2_17
REMARK    4  A    between atoms: N2_17  and  C14_19
ROOT
HETATM    1  C9  UNL     1      40.211  29.472  58.412  1.00  0.00     0.034 A
HETATM    2  C10 UNL     1      38.883  29.428  58.105  1.00  0.00     0.029 A
HETATM    3  C11 UNL     1      37.955  29.003  59.031  1.00  0.00     0.004 A
HETATM    4  C12 UNL     1      38.411  28.615  60.305  1.00  0.00     0.030 A
HETATM    5  C13 UNL     1      39.716  28.641  60.658  1.00  0.00     0.051 A
HETATM    6  C15 UNL     1      40.612  29.088  59.658  1.00  0.00     0.059 A
ENDROOT
BRANCH   1   7
HETATM    7  N1  UNL     1      41.180  29.917  57.439  1.00  0.00    -0.354 N
ATOM      8  H1  UNL     1      41.543  29.223  56.785  1.00  0.00     0.166 HD
BRANCH   7   9
HETATM    9  C8  UNL     1      41.635  31.164  57.331  1.00  0.00     0.066 A
HETATM   10  C7  UNL     1      42.549  31.198  56.215  1.00  0.00     0.099 A
HETATM   11  C6  UNL     1      43.175  30.579  55.214  1.00  0.00     0.017 A
HETATM   12  O1  UNL     1      42.926  32.250  56.137  1.00  0.00    -0.309 OA
HETATM   13  C5  UNL     1      44.058  31.466  54.452  1.00  0.00     0.060 A
HETATM   14  C4  UNL     1      44.173  32.877  54.830  1.00  0.00     0.014 A
HETATM   15  C3  UNL     1      43.428  33.228  55.879  1.00  0.00     0.072 A
HETATM   16  C2  UNL     1      42.939  34.187  56.835  1.00  0.00     0.037 A
HETATM   17  C1  UNL     1      42.020  33.729  57.801  1.00  0.00     0.005 A
HETATM   18  C16 UNL     1      41.425  32.360  58.029  1.00  0.00     0.032 A
ENDBRANCH   7   9
ENDBRANCH   1   7
BRANCH   5  19
HETATM   19  N2  UNL     1      40.202  28.282  61.904  1.00  0.00    -0.189 N
ATOM     20  H2  UNL     1      40.932  28.878  62.297  1.00  0.00     0.184 HD
BRANCH  19  21
HETATM   21  C14 UNL     1      39.801  27.192  62.685  1.00  0.00     0.714 A
HETATM   22  N3  UNL     1      39.547  25.941  62.341  1.00  0.00    -0.115 N
HETATM   23  N4  UNL     1      39.206  25.274  63.405  1.00  0.00    -0.213 N
ATOM     24  H3  UNL     1      39.608  25.561  61.396  1.00  0.00     0.207 HD
HETATM   25  N5  UNL     1      39.233  26.073  64.451  1.00  0.00    -0.213 N
ATOM     26  H4  UNL     1      38.956  24.285  63.426  1.00  0.00     0.210 HD
HETATM   27  N6  UNL     1      39.597  27.262  64.035  1.00  0.00    -0.115 N
ATOM     28  H5  UNL     1      39.010  25.813  65.411  1.00  0.00     0.210 HD
ATOM     29  H6  UNL     1      39.707  28.093  64.616  1.00  0.00     0.207 HD
ENDBRANCH  19  21
ENDBRANCH   5  19
TORSDOF 4
ENDMDL