MODEL 5
REMARK VINA RESULT: -7.844224471      3.907      6.467
REMARK  3 active torsions:
REMARK  status: ('A' for Active; 'I' for Inactive)
REMARK    1  A    between atoms: C3_9  and  N5_10
REMARK    2  A    between atoms: N5_10  and  C4_12
REMARK    3  A    between atoms: C9_17  and  C10_18
ROOT
HETATM    1  C4  UNL     1      43.588  32.267  57.670  1.00  0.00     0.056 A
HETATM    2  C5  UNL     1      42.444  32.966  57.948  1.00  0.00     0.030 A
HETATM    3  C6  UNL     1      41.186  32.359  57.856  1.00  0.00     0.002 A
HETATM    4  C7  UNL     1      41.078  31.063  57.487  1.00  0.00     0.001 A
HETATM    5  C8  UNL     1      42.213  30.337  57.201  1.00  0.00     0.010 A
HETATM    6  C9  UNL     1      43.459  30.919  57.287  1.00  0.00    -0.027 A
ENDROOT
BRANCH   1   7
HETATM    7  N5  UNL     1      44.872  32.843  57.771  1.00  0.00    -0.191 N
ATOM      8  H5  UNL     1      45.629  32.187  57.965  1.00  0.00     0.184 HD
BRANCH   7   9
HETATM    9  C3  UNL     1      45.255  34.180  57.645  1.00  0.00     0.687 A
HETATM   10  N4  UNL     1      44.997  35.013  56.640  1.00  0.00    -0.163 N
HETATM   11  C2  UNL     1      45.367  36.282  56.542  1.00  0.00     0.209 A
ATOM     12  H4  UNL     1      44.457  34.635  55.862  1.00  0.00     0.187 HD
HETATM   13  N2  UNL     1      46.087  36.777  57.582  1.00  0.00    -0.304 N
HETATM   14  N3  UNL     1      45.083  37.162  55.470  1.00  0.00    -0.063 NA
HETATM   15  C1  UNL     1      46.377  35.982  58.623  1.00  0.00     0.209 A
ATOM     16  H2  UNL     1      46.404  37.746  57.572  1.00  0.00     0.171 HD
HETATM   17  N1  UNL     1      47.145  36.548  59.704  1.00  0.00    -0.063 NA
HETATM   18  N6  UNL     1      45.983  34.729  58.667  1.00  0.00    -0.163 N
ATOM     19  H6  UNL     1      46.224  34.156  59.476  1.00  0.00     0.187 HD
ENDBRANCH   7   9
ENDBRANCH   1   7
BRANCH   6  20
HETATM   20  C10 UNL     1      44.689  30.135  56.946  1.00  0.00     0.021 C
HETATM   21  C11 UNL     1      44.617  28.821  57.696  1.00  0.00     0.009 C
HETATM   22  C12 UNL     1      45.957  28.164  57.839  1.00  0.00     0.001 C
HETATM   23  C13 UNL     1      46.682  27.983  56.539  1.00  0.00     0.000 C
HETATM   24  C14 UNL     1      47.011  29.293  55.867  1.00  0.00     0.000 C
HETATM   25  C15 UNL     1      45.941  29.576  54.854  1.00  0.00     0.001 C
HETATM   26  C16 UNL     1      44.622  29.905  55.460  1.00  0.00     0.009 C
ENDBRANCH   6  20
TORSDOF 3
ENDMDL