MODEL 1
REMARK VINA RESULT: -7.126337916      0.000      0.000
REMARK  7 active torsions:
REMARK  status: ('A' for Active; 'I' for Inactive)
REMARK    1  A    between atoms: C4_4  and  C6_6
REMARK    2  A    between atoms: C6_6  and  C7_7
REMARK    3  A    between atoms: C7_7  and  C8_8
REMARK    4  A    between atoms: C10_10  and  C11_11
REMARK    5  A    between atoms: C11_11  and  S1_12
REMARK    6  A    between atoms: S1_12  and  C12_13
REMARK    7  A    between atoms: N2_15  and  O1_17
ROOT
HETATM    1  C1  UNL     1      37.434  29.098  58.581  1.00  0.00     0.102 C
HETATM    2  C2  UNL     1      38.732  29.264  58.505  1.00  0.00    -0.160 C
HETATM    3  C3  UNL     1      40.032  29.374  58.544  1.00  0.00     0.057 C
HETATM    4  C4  UNL     1      40.640  29.520  59.842  1.00  0.00    -0.055 C
HETATM    5  C5  UNL     1      39.947  28.958  61.066  1.00  0.00     0.049 C
ENDROOT
BRANCH   4   6
HETATM    6  C6  UNL     1      41.757  30.148  60.070  1.00  0.00     0.007 C
BRANCH   6   7
HETATM    7  C7  UNL     1      42.584  30.715  58.921  1.00  0.00     0.009 C
BRANCH   7   8
HETATM    8  C8  UNL     1      42.223  31.774  58.397  1.00  0.00    -0.011 C
HETATM    9  C9  UNL     1      41.807  33.002  57.790  1.00  0.00     0.112 C
HETATM   10  C10 UNL     1      43.147  33.651  57.385  1.00  0.00     0.213 C
HETATM   11  O2  UNL     1      43.073  33.582  55.980  1.00  0.00    -0.196 OA
HETATM   12  O4  UNL     1      44.058  32.540  57.507  1.00  0.00    -0.309 OA
HETATM   13  O3  UNL     1      42.521  32.308  55.985  1.00  0.00    -0.193 OA
HETATM   14  C13 UNL     1      43.221  31.643  56.935  1.00  0.00     0.221 C
HETATM   15  C14 UNL     1      43.491  30.267  56.714  1.00  0.00     0.087 C
BRANCH  10  16
HETATM   16  C11 UNL     1      43.525  34.855  58.038  1.00  0.00     0.153 C
BRANCH  16  17
HETATM   17  S1  UNL     1      45.227  35.335  57.665  1.00  0.00    -0.090 SA
BRANCH  17  18
HETATM   18  C12 UNL     1      45.351  35.807  55.947  1.00  0.00     0.173 C
HETATM   19  N1  UNL     1      45.056  37.142  55.557  1.00  0.00    -0.073 NA
HETATM   20  N2  UNL     1      45.694  34.930  55.074  1.00  0.00    -0.250 N
ATOM     21  H2  UNL     1      45.766  35.191  54.091  1.00  0.00     0.196 HD
BRANCH  20  22
HETATM   22  O1  UNL     1      45.960  33.647  55.462  1.00  0.00    -0.288 OA
ATOM     23  H1  UNL     1      46.839  33.297  55.374  1.00  0.00     0.244 HD
ENDBRANCH  20  22
ENDBRANCH  17  18
ENDBRANCH  16  17
ENDBRANCH  10  16
ENDBRANCH   7   8
ENDBRANCH   6   7
ENDBRANCH   4   6
TORSDOF 7
ENDMDL