MODEL 4
REMARK VINA RESULT: -7.223677679      4.683      7.817
REMARK  4 active torsions:
REMARK  status: ('A' for Active; 'I' for Inactive)
REMARK    1  A    between atoms: O1_1  and  N1_3
REMARK    2  A    between atoms: C5_9  and  C6_10
REMARK    3  A    between atoms: C7_15  and  C8_16
REMARK    4  A    between atoms: C8_16  and  C9_17
ROOT
HETATM    1  C6  UNL     1      41.550  30.899  57.543  1.00  0.00     0.101 A
HETATM    2  N2  UNL     1      41.818  29.599  57.436  1.00  0.00    -0.287 N
ATOM      3  H2  UNL     1      42.714  29.204  57.152  1.00  0.00     0.188 HD
HETATM    4  N3  UNL     1      40.750  28.903  57.752  1.00  0.00    -0.287 N
ATOM      5  H3  UNL     1      40.674  27.886  57.758  1.00  0.00     0.188 HD
HETATM    6  C7  UNL     1      39.785  29.765  58.065  1.00  0.00     0.103 A
HETATM    7  N6  UNL     1      40.270  31.001  57.938  1.00  0.00    -0.333 N
ATOM      8  H6  UNL     1      39.761  31.869  58.109  1.00  0.00     0.168 HD
ENDROOT
BRANCH   1   9
HETATM    9  C5  UNL     1      42.529  31.976  57.261  1.00  0.00     0.060 C
HETATM   10  C4  UNL     1      42.028  33.295  57.830  1.00  0.00     0.013 C
HETATM   11  C3  UNL     1      43.082  34.345  57.769  1.00  0.00     0.006 C
HETATM   12  C2  UNL     1      44.068  34.196  56.664  1.00  0.00     0.054 C
HETATM   13  C1  UNL     1      43.712  33.264  55.612  1.00  0.00     0.010 C
HETATM   14  N1  UNL     1      44.309  33.301  54.478  1.00  0.00    -0.277 N
HETATM   15  C11 UNL     1      42.648  32.210  55.757  1.00  0.00     0.067 C
ATOM     16  H1  UNL     1      44.062  32.648  53.735  1.00  0.00     0.193 HD
BRANCH  14  17
HETATM   17  O1  UNL     1      45.287  34.241  54.288  1.00  0.00    -0.290 OA
ATOM     18  H1  UNL     1      46.097  33.970  53.873  1.00  0.00     0.244 HD
ENDBRANCH  14  17
ENDBRANCH   1   9
BRANCH   6  19
HETATM   19  C8  UNL     1      38.412  29.394  58.480  1.00  0.00     0.144 C
BRANCH  19  20
HETATM   20  C9  UNL     1      38.575  28.478  59.668  1.00  0.00     0.076 A
HETATM   21  N4  UNL     1      38.045  27.279  59.854  1.00  0.00    -0.296 N
HETATM   22  N5  UNL     1      38.282  26.632  60.918  1.00  0.00    -0.284 N
ATOM     23  H4  UNL     1      37.443  26.874  59.137  1.00  0.00     0.187 HD
HETATM   24  C10 UNL     1      39.074  27.185  61.844  1.00  0.00     0.159 A
ATOM     25  H5  UNL     1      37.876  25.708  61.066  1.00  0.00     0.188 HD
HETATM   26  S1  UNL     1      39.528  26.546  63.299  1.00  0.00    -0.051 SA
HETATM   27  S2  UNL     1      39.465  28.683  61.111  1.00  0.00    -0.044 SA
ENDBRANCH  19  20
ENDBRANCH   6  19
TORSDOF 4
ENDMDL