MODEL 4
REMARK VINA RESULT: -7.550635407      1.070      1.387
REMARK  3 active torsions:
REMARK  status: ('A' for Active; 'I' for Inactive)
REMARK    1  A    between atoms: C2_7  and  N3_8
REMARK    2  A    between atoms: N4_10  and  C3_12
REMARK    3  A    between atoms: C10_22  and  C11_23
ROOT
HETATM    1  N1  UNL     1      44.157  34.293  54.709  1.00  0.00    -0.234 N
ATOM      2  H11 UNL     1      44.845  34.662  54.052  1.00  0.00     0.174 HD
ATOM      3  H12 UNL     1      43.462  35.021  54.874  1.00  0.00     0.174 HD
HETATM    4  C1  UNL     1      44.166  33.113  55.233  1.00  0.00     0.678 A
HETATM    5  N2  UNL     1      43.246  32.620  56.111  1.00  0.00    -0.173 N
ATOM      6  H2  UNL     1      42.428  33.112  56.470  1.00  0.00     0.186 HD
HETATM    7  C2  UNL     1      43.617  31.364  56.414  1.00  0.00     0.166 A
HETATM    8  C10 UNL     1      44.774  31.055  55.730  1.00  0.00     0.128 A
HETATM    9  N7  UNL     1      45.090  32.145  55.014  1.00  0.00    -0.185 N
ATOM     10  H7  UNL     1      45.900  32.231  54.399  1.00  0.00     0.184 HD
ENDROOT
BRANCH   7  11
HETATM   11  N3  UNL     1      42.966  30.433  57.296  1.00  0.00    -0.281 N
HETATM   12  N4  UNL     1      41.792  30.750  57.666  1.00  0.00    -0.283 N
ATOM     13  H4  UNL     1      41.393  31.623  57.323  1.00  0.00     0.188 HD
ATOM     14  H3  UNL     1      43.419  29.573  57.605  1.00  0.00     0.188 HD
BRANCH  12  15
HETATM   15  C3  UNL     1      41.011  29.944  58.535  1.00  0.00     0.137 A
HETATM   16  C4  UNL     1      41.306  29.512  59.808  1.00  0.00     0.142 A
HETATM   17  N5  UNL     1      40.259  28.773  60.228  1.00  0.00    -0.343 N
HETATM   18  C5  UNL     1      39.317  28.728  59.255  1.00  0.00     0.084 A
HETATM   19  C9  UNL     1      39.956  28.054  61.449  1.00  0.00     0.130 C
HETATM   20  N6  UNL     1      39.800  29.447  58.240  1.00  0.00    -0.330 N
HETATM   21  C6  UNL     1      38.095  27.944  59.571  1.00  0.00     0.076 C
ATOM     22  H6  UNL     1      39.313  29.598  57.356  1.00  0.00     0.168 HD
HETATM   23  C7  UNL     1      37.545  28.495  60.869  1.00  0.00     0.009 C
HETATM   24  C8  UNL     1      38.574  28.320  61.961  1.00  0.00     0.021 C
ENDBRANCH  12  15
ENDBRANCH   7  11
BRANCH   8  25
HETATM   25  C11 UNL     1      45.495  29.778  55.794  1.00  0.00     0.106 A
HETATM   26  C12 UNL     1      46.037  29.119  54.711  1.00  0.00     0.041 A
HETATM   27  C13 UNL     1      46.628  27.962  55.176  1.00  0.00     0.027 A
HETATM   28  C14 UNL     1      46.425  27.955  56.536  1.00  0.00     0.142 A
HETATM   29  O1  UNL     1      45.761  29.041  56.827  1.00  0.00    -0.320 OA
ENDBRANCH   8  25
TORSDOF 3
ENDMDL