MODEL 3
REMARK VINA RESULT: -7.883012758      3.162      8.318
REMARK  4 active torsions:
REMARK  status: ('A' for Active; 'I' for Inactive)
REMARK    1  A    between atoms: N1_1  and  C1_4
REMARK    2  A    between atoms: C2_7  and  N3_8
REMARK    3  A    between atoms: N3_8  and  C3_10
REMARK    4  A    between atoms: C6_13  and  C7_14
ROOT
HETATM    1  C1  UNL     1      44.611  35.080  57.328  1.00  0.00     0.679 A
HETATM    2  N2  UNL     1      44.620  33.849  57.850  1.00  0.00    -0.174 N
ATOM      3  H2  UNL     1      44.748  33.768  58.858  1.00  0.00     0.186 HD
HETATM    4  C2  UNL     1      44.475  32.737  57.167  1.00  0.00     0.152 A
HETATM    5  C14 UNL     1      44.300  32.890  55.787  1.00  0.00     0.131 A
HETATM    6  N5  UNL     1      44.122  32.012  54.774  1.00  0.00    -0.340 N
ATOM      7  H5  UNL     1      44.083  30.996  54.860  1.00  0.00     0.167 HD
HETATM    8  C15 UNL     1      44.006  32.714  53.638  1.00  0.00     0.236 A
HETATM    9  O1  UNL     1      44.109  34.004  53.945  1.00  0.00    -0.286 OA
HETATM   10  C16 UNL     1      44.288  34.145  55.238  1.00  0.00     0.194 A
HETATM   11  N6  UNL     1      44.442  35.238  55.999  1.00  0.00    -0.168 N
ATOM     12  H6  UNL     1      44.432  36.169  55.582  1.00  0.00     0.186 HD
ENDROOT
BRANCH   4  13
HETATM   13  N3  UNL     1      44.468  31.428  57.662  1.00  0.00    -0.340 N
ATOM     14  H3  UNL     1      45.342  30.912  57.560  1.00  0.00     0.167 HD
BRANCH  13  15
HETATM   15  C3  UNL     1      43.409  30.726  58.284  1.00  0.00     0.033 A
HETATM   16  C4  UNL     1      43.491  29.487  58.866  1.00  0.00     0.030 A
HETATM   17  C5  UNL     1      42.436  28.832  59.484  1.00  0.00     0.014 A
HETATM   18  C6  UNL     1      41.219  29.443  59.530  1.00  0.00    -0.026 A
HETATM   19  C12 UNL     1      41.069  30.683  58.966  1.00  0.00     0.014 A
HETATM   20  C13 UNL     1      42.130  31.306  58.363  1.00  0.00     0.030 A
BRANCH  18  21
HETATM   21  C7  UNL     1      40.066  28.806  60.165  1.00  0.00    -0.023 A
HETATM   22  C8  UNL     1      38.942  28.523  59.414  1.00  0.00     0.029 A
HETATM   23  C9  UNL     1      37.865  27.923  60.021  1.00  0.00     0.088 A
HETATM   24  N4  UNL     1      37.850  27.594  61.330  1.00  0.00    -0.375 N
HETATM   25  C10 UNL     1      38.952  27.874  62.056  1.00  0.00     0.088 A
ATOM     26  H4  UNL     1      37.036  27.151  61.755  1.00  0.00     0.164 HD
HETATM   27  C11 UNL     1      40.064  28.475  61.501  1.00  0.00     0.029 A
ENDBRANCH  18  21
ENDBRANCH  13  15
ENDBRANCH   4  13
BRANCH   1  28
HETATM   28  N1  UNL     1      44.760  36.141  58.070  1.00  0.00    -0.234 N
ATOM     29  H12 UNL     1      44.714  37.058  57.625  1.00  0.00     0.174 HD
ATOM     30  H11 UNL     1      44.918  36.076  59.075  1.00  0.00     0.174 HD
ENDBRANCH   1  28
TORSDOF 4
ENDMDL