MODEL 1
REMARK VINA RESULT: -7.623317535      0.000      0.000
REMARK  6 active torsions:
REMARK  status: ('A' for Active; 'I' for Inactive)
REMARK    1  A    between atoms: C2_2  and  C3_3
REMARK    2  A    between atoms: C4_4  and  N1_5
REMARK    3  A    between atoms: C9_13  and  O1_14
REMARK    4  A    between atoms: O1_14  and  O2_15
REMARK    5  A    between atoms: C10_18  and  C11_19
REMARK    6  A    between atoms: C13_22  and  O5_23
ROOT
HETATM    1  C3  UNL     1      44.282  32.767  57.522  1.00  0.00     0.043 C
HETATM    2  C4  UNL     1      44.010  32.679  56.043  1.00  0.00     0.191 C
HETATM    3  C5  UNL     1      44.568  31.397  55.468  1.00  0.00     0.034 C
HETATM    4  C6  UNL     1      44.245  30.181  56.254  1.00  0.00     0.017 C
HETATM    5  C7  UNL     1      44.472  30.300  57.743  1.00  0.00     0.013 C
HETATM    6  C8  UNL     1      45.964  30.429  57.962  1.00  0.00     0.020 C
HETATM    7  C9  UNL     1      43.943  29.103  58.459  1.00  0.00     0.305 C
HETATM    8  O3  UNL     1      43.039  29.316  59.445  1.00  0.00    -0.348 OA
HETATM    9  C10 UNL     1      42.141  30.304  59.368  1.00  0.00     0.160 C
HETATM   10  C15 UNL     1      42.361  31.278  58.218  1.00  0.00     0.043 C
HETATM   11  C16 UNL     1      43.842  31.584  58.276  1.00  0.00     0.011 C
ENDROOT
BRANCH   9  12
HETATM   12  C11 UNL     1      40.761  29.754  59.275  1.00  0.00    -0.002 A
HETATM   13  C12 UNL     1      40.078  28.974  60.205  1.00  0.00     0.154 A
HETATM   14  O4  UNL     1      38.872  28.692  59.741  1.00  0.00    -0.300 OA
HETATM   15  C13 UNL     1      38.695  29.229  58.564  1.00  0.00     0.183 A
HETATM   16  C14 UNL     1      39.861  29.907  58.234  1.00  0.00     0.075 A
BRANCH  15  17
HETATM   17  O5  UNL     1      37.553  29.145  57.778  1.00  0.00    -0.341 OA
ATOM     18  H5  UNL     1      37.296  29.742  57.085  1.00  0.00     0.220 HD
ENDBRANCH  15  17
ENDBRANCH   9  12
BRANCH   7  19
HETATM   19  O1  UNL     1      45.010  28.377  59.014  1.00  0.00    -0.209 OA
BRANCH  19  20
HETATM   20  O2  UNL     1      45.009  27.120  58.671  1.00  0.00    -0.248 OA
ATOM     21  H2  UNL     1      44.150  26.718  58.723  1.00  0.00     0.253 HD
ENDBRANCH  19  20
ENDBRANCH   7  19
BRANCH   1  22
HETATM   22  C2  UNL     1      43.850  34.039  58.096  1.00  0.00    -0.030 C
HETATM   23  C1  UNL     1      44.519  35.176  58.091  1.00  0.00     0.007 C
ENDBRANCH   1  22
BRANCH   2  24
HETATM   24  N1  UNL     1      42.620  32.771  55.701  1.00  0.00    -0.074 N
ATOM     25  H13 UNL     1      42.111  33.303  56.407  1.00  0.00     0.274 HD
ATOM     26  H12 UNL     1      42.487  33.383  54.897  1.00  0.00     0.274 HD
ATOM     27  H11 UNL     1      42.173  31.869  55.542  1.00  0.00     0.274 HD
ENDBRANCH   2  24
TORSDOF 6
ENDMDL