MODEL 5
REMARK VINA RESULT: -7.118390966      2.569      6.709
REMARK  5 active torsions:
REMARK  status: ('A' for Active; 'I' for Inactive)
REMARK    1  A    between atoms: C2_3  and  S1_16
REMARK    2  A    between atoms: N2_4  and  N3_6
REMARK    3  A    between atoms: N3_6  and  C3_8
REMARK    4  A    between atoms: S1_16  and  C10_17
REMARK    5  A    between atoms: C12_20  and  N5_21
ROOT
HETATM    1  N1  UNL     1      41.527  33.916  57.533  1.00  0.00    -0.189 NA
HETATM    2  C1  UNL     1      41.499  32.767  57.720  1.00  0.00     0.127 C
HETATM    3  C2  UNL     1      41.467  31.358  57.931  1.00  0.00     0.172 C
HETATM    4  N2  UNL     1      40.538  30.832  58.606  1.00  0.00    -0.284 N
ATOM      5  H2  UNL     1      39.827  31.458  58.985  1.00  0.00     0.188 HD
ENDROOT
BRANCH   3   6
HETATM    6  S1  UNL     1      42.749  30.350  57.232  1.00  0.00    -0.042 SA
BRANCH   6   7
HETATM    7  C10 UNL     1      43.619  31.280  55.913  1.00  0.00     0.085 A
HETATM    8  C11 UNL     1      44.898  31.723  56.141  1.00  0.00     0.090 A
HETATM    9  S2  UNL     1      45.269  32.506  54.672  1.00  0.00    -0.064 SA
HETATM   10  C12 UNL     1      43.802  32.231  53.860  1.00  0.00     0.142 A
HETATM   11  N6  UNL     1      43.082  31.545  54.756  1.00  0.00    -0.331 N
ATOM     12  H6  UNL     1      42.134  31.237  54.538  1.00  0.00     0.168 HD
BRANCH  10  13
HETATM   13  N5  UNL     1      43.436  32.592  52.650  1.00  0.00    -0.380 N
ATOM     14  H52 UNL     1      42.595  32.309  52.147  1.00  0.00     0.158 HD
ATOM     15  H51 UNL     1      43.904  33.210  51.986  1.00  0.00     0.158 HD
ENDBRANCH  10  13
ENDBRANCH   6   7
ENDBRANCH   3   6
BRANCH   4  16
HETATM   16  N3  UNL     1      40.401  29.491  58.875  1.00  0.00    -0.298 N
ATOM     17  H3  UNL     1      40.808  28.858  58.186  1.00  0.00     0.187 HD
BRANCH  16  18
HETATM   18  C3  UNL     1      39.782  28.881  59.962  1.00  0.00     0.068 A
HETATM   19  C4  UNL     1      40.510  28.582  61.120  1.00  0.00     0.032 A
HETATM   20  C5  UNL     1      39.961  27.988  62.213  1.00  0.00     0.002 A
HETATM   21  C6  UNL     1      38.619  27.663  62.182  1.00  0.00     0.002 A
HETATM   22  C7  UNL     1      37.842  27.927  61.077  1.00  0.00     0.025 A
HETATM   23  C8  UNL     1      38.460  28.541  59.980  1.00  0.00     0.072 A
HETATM   24  C9  UNL     1      37.619  28.803  58.841  1.00  0.00     0.102 C
HETATM   25  N4  UNL     1      36.921  29.004  57.937  1.00  0.00    -0.191 NA
ENDBRANCH  16  18
ENDBRANCH   4  16
TORSDOF 5
ENDMDL