MODEL 3
REMARK VINA RESULT: -7.356482139      4.314      6.576
REMARK  4 active torsions:
REMARK  status: ('A' for Active; 'I' for Inactive)
REMARK    1  A    between atoms: N1_1  and  C1_4
REMARK    2  A    between atoms: C4_11  and  C5_12
REMARK    3  A    between atoms: C7_16  and  N5_17
REMARK    4  A    between atoms: N5_17  and  C8_19
ROOT
HETATM    1  C1  UNL     1      46.925  28.827  58.744  1.00  0.00     0.119 A
HETATM    2  N2  UNL     1      46.630  27.530  58.946  1.00  0.00    -0.338 N
ATOM      3  H2  UNL     1      47.336  26.830  59.174  1.00  0.00     0.168 HD
HETATM    4  C2  UNL     1      45.328  27.236  58.822  1.00  0.00     0.182 A
HETATM    5  N3  UNL     1      44.351  28.085  58.528  1.00  0.00    -0.350 N
ATOM      6  H3  UNL     1      43.394  27.736  58.460  1.00  0.00     0.166 HD
HETATM    7  C3  UNL     1      44.592  29.429  58.312  1.00  0.00     0.067 A
HETATM    8  C4  UNL     1      43.734  30.405  57.993  1.00  0.00     0.034 A
HETATM    9  C13 UNL     1      44.298  31.676  57.810  1.00  0.00     0.067 A
HETATM   10  S1  UNL     1      45.948  31.428  58.092  1.00  0.00    -0.095 SA
HETATM   11  C14 UNL     1      45.918  29.757  58.432  1.00  0.00     0.076 A
ENDROOT
BRANCH   8  12
HETATM   12  C5  UNL     1      42.248  30.306  57.904  1.00  0.00     0.107 A
HETATM   13  C6  UNL     1      41.316  31.163  57.417  1.00  0.00     0.130 A
HETATM   14  N4  UNL     1      40.064  30.614  57.553  1.00  0.00    -0.329 N
HETATM   15  C7  UNL     1      40.261  29.432  58.122  1.00  0.00     0.225 A
ATOM     16  H4  UNL     1      39.174  31.027  57.275  1.00  0.00     0.168 HD
HETATM   17  O1  UNL     1      41.535  29.263  58.320  1.00  0.00    -0.277 OA
BRANCH  15  18
HETATM   18  N5  UNL     1      39.200  28.516  58.446  1.00  0.00    -0.351 N
ATOM     19  H5  UNL     1      38.909  27.808  57.772  1.00  0.00     0.163 HD
BRANCH  18  20
HETATM   20  C8  UNL     1      38.557  28.605  59.723  1.00  0.00     0.085 C
HETATM   21  C9  UNL     1      39.581  28.936  60.783  1.00  0.00     0.025 C
HETATM   22  C10 UNL     1      39.256  28.072  61.982  1.00  0.00     0.002 C
HETATM   23  C11 UNL     1      38.688  26.818  61.343  1.00  0.00     0.002 C
HETATM   24  C12 UNL     1      37.898  27.315  60.154  1.00  0.00     0.025 C
ENDBRANCH  18  20
ENDBRANCH  15  18
ENDBRANCH   8  12
BRANCH   1  25
HETATM   25  N1  UNL     1      48.121  29.286  58.823  1.00  0.00    -0.384 N
ATOM     26  H12 UNL     1      48.218  30.302  58.803  1.00  0.00     0.157 HD
ATOM     27  H11 UNL     1      48.940  28.684  58.900  1.00  0.00     0.157 HD
ENDBRANCH   1  25
TORSDOF 4
ENDMDL