MODEL 1
REMARK VINA RESULT: -7.026415660      0.000      0.000
REMARK  3 active torsions:
REMARK  status: ('A' for Active; 'I' for Inactive)
REMARK    1  A    between atoms: C2_2  and  C3_3
REMARK    2  A    between atoms: C7_7  and  C8_8
REMARK    3  A    between atoms: C8_8  and  C9_9
ROOT
HETATM    1  C9  UNL     1      41.658  30.842  58.357  1.00  0.00     0.045 A
HETATM    2  C10 UNL     1      41.483  30.073  59.490  1.00  0.00     0.159 A
HETATM    3  N1  UNL     1      40.272  29.494  59.454  1.00  0.00     0.013 N
HETATM    4  C11 UNL     1      39.662  29.877  58.315  1.00  0.00     0.700 A
HETATM    5  N2  UNL     1      40.505  30.687  57.664  1.00  0.00    -0.193 N
ATOM      6  H2  UNL     1      40.306  31.129  56.766  1.00  0.00     0.184 HD
HETATM    7  N3  UNL     1      38.353  29.427  57.982  1.00  0.00    -0.208 N
ATOM      8  H3  UNL     1      38.019  29.526  57.023  1.00  0.00     0.179 HD
HETATM    9  C12 UNL     1      37.485  28.834  58.978  1.00  0.00     0.280 C
HETATM   10  N4  UNL     1      38.235  28.149  60.009  1.00  0.00    -0.209 N
ATOM     11  H4  UNL     1      37.837  27.352  60.506  1.00  0.00     0.179 HD
HETATM   12  C13 UNL     1      39.542  28.616  60.310  1.00  0.00     0.694 C
HETATM   13  N5  UNL     1      40.088  28.218  61.420  1.00  0.00    -0.234 N
ATOM     14  H51 UNL     1      39.567  27.591  62.032  1.00  0.00     0.174 HD
ATOM     15  H52 UNL     1      41.026  28.554  61.635  1.00  0.00     0.174 HD
ENDROOT
BRANCH   1  16
HETATM   16  C8  UNL     1      42.860  31.646  58.015  1.00  0.00     0.079 C
BRANCH  16  17
HETATM   17  C7  UNL     1      42.590  32.300  56.664  1.00  0.00     0.092 C
HETATM   18  C5  UNL     1      43.371  33.533  56.638  1.00  0.00    -0.071 C
HETATM   19  C4  UNL     1      44.156  34.035  55.735  1.00  0.00    -0.007 C
HETATM   20  C6  UNL     1      43.221  34.364  57.917  1.00  0.00     0.044 C
HETATM   21  C3  UNL     1      44.557  33.567  54.411  1.00  0.00     0.081 C
HETATM   22  S2  UNL     1      43.802  32.095  53.775  1.00  0.00    -0.088 SA
HETATM   23  S1  UNL     1      42.904  31.087  55.411  1.00  0.00    -0.087 SA
BRANCH  21  24
HETATM   24  C2  UNL     1      46.058  33.433  54.258  1.00  0.00     0.015 C
HETATM   25  C1  UNL     1      46.569  32.160  54.903  1.00  0.00     0.006 C
ENDBRANCH  21  24
ENDBRANCH  16  17
ENDBRANCH   1  16
TORSDOF 3
ENDMDL