MODEL 3
REMARK VINA RESULT: -8.209001853      1.777      2.435
REMARK  3 active torsions:
REMARK  status: ('A' for Active; 'I' for Inactive)
REMARK       I    between atoms: C2_2  and  N1_4
REMARK    1  A    between atoms: N1_4  and  C3_6
REMARK    2  A    between atoms: C12_15  and  C13_16
REMARK       I    between atoms: C13_16  and  N2_18
REMARK    3  A    between atoms: N3_21  and  C16_22
ROOT
HETATM    1  C3  UNL     1      32.567  72.606  86.280  1.00  0.00     0.093 C
HETATM    2  C4  UNL     1      32.573  72.294  87.756  1.00  0.00     0.009 C
HETATM    3  C5  UNL     1      31.203  72.155  88.329  1.00  0.00     0.011 C
HETATM    4  C6  UNL     1      30.486  73.437  88.570  1.00  0.00    -0.013 C
HETATM    5  C7  UNL     1      31.344  74.509  89.194  1.00  0.00     0.009 C
HETATM    6  C8  UNL     1      32.580  74.652  88.339  1.00  0.00    -0.013 C
HETATM    7  C9  UNL     1      33.348  73.359  88.459  1.00  0.00     0.011 C
HETATM    8  C10 UNL     1      32.262  75.021  86.923  1.00  0.00     0.012 C
HETATM    9  C11 UNL     1      31.843  73.887  86.062  1.00  0.00     0.022 C
HETATM   10  C12 UNL     1      30.348  73.614  86.065  1.00  0.00     0.084 C
HETATM   11  C25 UNL     1      29.760  73.997  87.389  1.00  0.00     0.019 C
ENDROOT
BRANCH  10  12
HETATM   12  C13 UNL     1      29.675  74.335  84.952  1.00  0.00     0.225 C
HETATM   13  O2  UNL     1      29.195  75.498  85.226  1.00  0.00    -0.273 OA
HETATM   14  N2  UNL     1      29.513  73.875  83.647  1.00  0.00    -0.334 N
HETATM   15  C14 UNL     1      28.853  74.561  82.575  1.00  0.00     0.147 C
HETATM   16  C24 UNL     1      29.979  72.630  83.107  1.00  0.00     0.247 C
HETATM   17  C15 UNL     1      29.782  74.221  81.400  1.00  0.00     0.139 C
HETATM   18  N3  UNL     1      30.290  72.966  81.761  1.00  0.00    -0.391 N
BRANCH  18  19
HETATM   19  C16 UNL     1      30.376  71.952  80.810  1.00  0.00     0.085 C
HETATM   20  C17 UNL     1      30.555  70.604  81.482  1.00  0.00     0.030 C
HETATM   21  C18 UNL     1      30.192  69.563  80.444  1.00  0.00    -0.013 C
HETATM   22  C19 UNL     1      30.618  69.971  79.049  1.00  0.00     0.005 C
HETATM   23  C23 UNL     1      28.670  69.483  80.438  1.00  0.00     0.005 C
HETATM   24  C20 UNL     1      29.852  71.184  78.562  1.00  0.00     0.007 C
HETATM   25  C21 UNL     1      29.264  71.831  79.829  1.00  0.00     0.008 C
HETATM   26  C22 UNL     1      28.155  70.886  80.244  1.00  0.00     0.007 C
ENDBRANCH  18  19
ENDBRANCH  10  12
BRANCH   1  27
HETATM   27  N1  UNL     1      33.916  72.593  85.774  1.00  0.00    -0.356 N
HETATM   28  C2  UNL     1      34.161  72.529  84.375  1.00  0.00     0.213 C
HETATM   29  C1  UNL     1      35.539  72.515  83.822  1.00  0.00     0.117 C
HETATM   30  O1  UNL     1      33.231  72.480  83.527  1.00  0.00    -0.274 OA
ATOM     31  H1  UNL     1      34.701  72.631  86.424  1.00  0.00     0.162 HD
ENDBRANCH   1  27
TORSDOF 3
ENDMDL