MODEL 4
REMARK VINA RESULT: -8.873144331      1.739      2.403
REMARK  4 active torsions:
REMARK  status: ('A' for Active; 'I' for Inactive)
REMARK    1  A    between atoms: N1_6  and  C5_7
REMARK    2  A    between atoms: N3_19  and  C14_20
REMARK    3  A    between atoms: C14_20  and  O3_21
REMARK    4  A    between atoms: C14_20  and  C15_23
ROOT
HETATM    1  O1  UNL     1      31.953  73.506  81.031  1.00  0.00    -0.271 OA
HETATM    2  C1  UNL     1      30.841  73.546  81.610  1.00  0.00     0.245 C
HETATM    3  C2  UNL     1      30.469  74.421  82.716  1.00  0.00     0.212 C
HETATM    4  C3  UNL     1      29.106  73.907  83.129  1.00  0.00     0.136 C
HETATM    5  C4  UNL     1      28.561  73.371  81.805  1.00  0.00     0.154 C
HETATM    6  N1  UNL     1      29.733  72.706  81.253  1.00  0.00    -0.344 N
HETATM    7  N2  UNL     1      29.433  72.795  83.995  1.00  0.00    -0.334 N
ATOM      8  H2  UNL     1      28.766  72.134  84.393  1.00  0.00     0.164 HD
HETATM    9  C13 UNL     1      30.866  72.776  84.201  1.00  0.00     0.325 C
HETATM   10  O2  UNL     1      31.523  71.762  84.525  1.00  0.00    -0.247 OA
HETATM   11  N3  UNL     1      31.281  74.097  83.955  1.00  0.00    -0.267 N
ENDROOT
BRANCH  11  12
HETATM   12  C14 UNL     1      32.186  74.961  84.536  1.00  0.00     0.131 C
BRANCH  12  13
HETATM   13  O3  UNL     1      31.669  75.666  85.541  1.00  0.00    -0.348 OA
ATOM     14  H3  UNL     1      32.297  76.248  85.953  1.00  0.00     0.219 HD
ENDBRANCH  12  13
BRANCH  12  15
HETATM   15  C15 UNL     1      33.577  75.267  84.300  1.00  0.00     0.026 C
HETATM   16  C16 UNL     1      33.824  76.298  83.256  1.00  0.00     0.022 C
HETATM   17  C17 UNL     1      35.314  76.637  83.104  1.00  0.00    -0.013 C
HETATM   18  C18 UNL     1      35.844  77.085  84.415  1.00  0.00     0.009 C
HETATM   19  C22 UNL     1      36.049  75.385  82.658  1.00  0.00     0.009 C
HETATM   20  C19 UNL     1      35.676  75.968  85.430  1.00  0.00    -0.013 C
HETATM   21  C20 UNL     1      36.336  74.697  85.014  1.00  0.00     0.009 C
HETATM   22  C24 UNL     1      34.219  75.722  85.622  1.00  0.00     0.022 C
HETATM   23  C21 UNL     1      35.781  74.301  83.648  1.00  0.00    -0.013 C
HETATM   24  C23 UNL     1      34.313  74.008  83.857  1.00  0.00     0.022 C
ENDBRANCH  12  15
ENDBRANCH  11  12
BRANCH   6  25
HETATM   25  C5  UNL     1      29.793  71.467  80.502  1.00  0.00     0.087 C
HETATM   26  C6  UNL     1      29.187  71.608  79.128  1.00  0.00     0.025 C
HETATM   27  C7  UNL     1      30.179  71.461  78.019  1.00  0.00     0.002 C
HETATM   28  C8  UNL     1      30.642  70.069  77.773  1.00  0.00     0.000 C
HETATM   29  C9  UNL     1      29.731  69.000  78.277  1.00  0.00     0.000 C
HETATM   30  C10 UNL     1      29.960  68.710  79.748  1.00  0.00     0.000 C
HETATM   31  C11 UNL     1      28.786  69.164  80.557  1.00  0.00     0.002 C
HETATM   32  C12 UNL     1      29.051  70.425  81.309  1.00  0.00     0.025 C
ENDBRANCH   6  25
TORSDOF 4
ENDMDL