MODEL 2
REMARK VINA RESULT: -8.491941170      5.997      8.610
REMARK  5 active torsions:
REMARK  status: ('A' for Active; 'I' for Inactive)
REMARK    1  A    between atoms: C2_2  and  C5_5
REMARK    2  A    between atoms: C8_8  and  C9_9
REMARK       I    between atoms: C9_9  and  N1_11
REMARK    3  A    between atoms: C12_14  and  C13_15
REMARK    4  A    between atoms: C13_15  and  O2_16
REMARK    5  A    between atoms: C13_15  and  N2_18
REMARK       I    between atoms: N3_21  and  C16_22
ROOT
HETATM    1  C9  UNL     1      30.029  72.998  84.670  1.00  0.00     0.224 C
HETATM    2  O1  UNL     1      30.869  72.548  85.486  1.00  0.00    -0.273 OA
HETATM    3  N1  UNL     1      29.223  74.090  85.028  1.00  0.00    -0.352 N
HETATM    4  C10 UNL     1      29.359  74.652  86.369  1.00  0.00     0.126 C
HETATM    5  C11 UNL     1      28.037  75.108  86.943  1.00  0.00     0.033 C
HETATM    6  C12 UNL     1      27.170  75.774  85.938  1.00  0.00     0.063 C
HETATM    7  C19 UNL     1      27.853  76.001  84.613  1.00  0.00     0.033 C
HETATM    8  C20 UNL     1      28.303  74.648  84.057  1.00  0.00     0.126 C
ENDROOT
BRANCH   1   9
HETATM    9  C8  UNL     1      29.919  72.358  83.360  1.00  0.00     0.078 C
HETATM   10  C7  UNL     1      30.211  70.888  83.489  1.00  0.00     0.014 C
HETATM   11  C6  UNL     1      29.565  70.148  82.336  1.00  0.00     0.006 C
HETATM   12  C5  UNL     1      29.670  71.081  81.135  1.00  0.00    -0.007 C
HETATM   13  C22 UNL     1      30.956  71.831  81.223  1.00  0.00     0.006 C
HETATM   14  C21 UNL     1      30.864  72.911  82.309  1.00  0.00     0.014 C
BRANCH  12  15
HETATM   15  C2  UNL     1      29.532  70.298  79.850  1.00  0.00    -0.048 C
HETATM   16  C1  UNL     1      28.253  69.470  79.993  1.00  0.00     0.015 C
HETATM   17  C3  UNL     1      29.354  71.222  78.692  1.00  0.00     0.015 C
HETATM   18  C4  UNL     1      30.655  69.312  79.663  1.00  0.00     0.015 C
ENDBRANCH  12  15
ENDBRANCH   1   9
BRANCH   6  19
HETATM   19  C13 UNL     1      26.450  76.969  86.355  1.00  0.00     0.117 C
BRANCH  19  20
HETATM   20  O2  UNL     1      27.123  77.870  87.023  1.00  0.00    -0.349 OA
ATOM     21  H2  UNL     1      26.660  78.662  87.272  1.00  0.00     0.219 HD
ENDBRANCH  19  20
BRANCH  19  22
HETATM   22  N2  UNL     1      25.107  77.310  86.143  1.00  0.00    -0.362 N
HETATM   23  C14 UNL     1      24.651  78.078  85.028  1.00  0.00     0.144 C
HETATM   24  C15 UNL     1      23.290  77.598  84.540  1.00  0.00     0.147 C
HETATM   25  N3  UNL     1      22.327  77.586  85.615  1.00  0.00    -0.333 N
HETATM   26  C16 UNL     1      20.953  77.485  85.286  1.00  0.00     0.330 C
HETATM   27  C17 UNL     1      22.820  77.676  86.958  1.00  0.00     0.147 C
HETATM   28  N4  UNL     1      20.499  77.398  83.945  1.00  0.00    -0.040 NA
HETATM   29  O3  UNL     1      20.075  77.471  86.197  1.00  0.00    -0.251 OA
HETATM   30  C18 UNL     1      24.104  76.869  87.099  1.00  0.00     0.144 C
ENDBRANCH  19  22
ENDBRANCH   6  19
TORSDOF 5
ENDMDL