MODEL 5
REMARK VINA RESULT: -8.163478788      3.847      4.854
REMARK  3 active torsions:
REMARK  status: ('A' for Active; 'I' for Inactive)
REMARK    1  A    between atoms: C2_2  and  N1_3
REMARK       I    between atoms: N1_3  and  C3_5
REMARK    2  A    between atoms: C3_5  and  C4_7
REMARK    3  A    between atoms: C11_14  and  C12_15
REMARK       I    between atoms: C12_15  and  N2_17
ROOT
HETATM    1  C4  UNL     1      31.060  72.820  83.522  1.00  0.00     0.046 C
HETATM    2  C5  UNL     1      31.799  72.107  84.628  1.00  0.00     0.024 C
HETATM    3  C6  UNL     1      31.940  73.076  85.783  1.00  0.00    -0.012 C
HETATM    4  C7  UNL     1      32.416  74.389  85.218  1.00  0.00     0.010 C
HETATM    5  C8  UNL     1      31.520  74.770  84.062  1.00  0.00    -0.007 C
HETATM    6  C9  UNL     1      31.959  73.864  82.897  1.00  0.00     0.025 C
HETATM    7  C10 UNL     1      30.234  73.969  84.040  1.00  0.00     0.020 C
HETATM    8  C11 UNL     1      29.623  73.754  85.368  1.00  0.00     0.084 C
HETATM    9  C17 UNL     1      30.558  73.211  86.403  1.00  0.00     0.019 C
ENDROOT
BRANCH   1  10
HETATM   10  C3  UNL     1      30.440  71.969  82.515  1.00  0.00     0.227 C
HETATM   11  N1  UNL     1      30.621  72.121  81.115  1.00  0.00    -0.352 N
ATOM     12  H1  UNL     1      31.221  72.869  80.769  1.00  0.00     0.163 HD
HETATM   13  O1  UNL     1      29.681  71.025  82.927  1.00  0.00    -0.273 OA
BRANCH  11  14
HETATM   14  C2  UNL     1      29.977  71.243  80.172  1.00  0.00     0.029 C
HETATM   15  C1  UNL     1      28.482  71.536  80.167  1.00  0.00     0.038 C
HETATM   16  C18 UNL     1      30.565  71.403  78.804  1.00  0.00     0.031 C
HETATM   17  C19 UNL     1      29.890  70.524  77.799  1.00  0.00     0.002 C
HETATM   18  C20 UNL     1      29.422  69.199  78.411  1.00  0.00     0.000 C
HETATM   19  C21 UNL     1      30.374  68.865  79.518  1.00  0.00     0.002 C
HETATM   20  C22 UNL     1      30.146  69.813  80.676  1.00  0.00     0.031 C
ENDBRANCH  11  14
ENDBRANCH   1  10
BRANCH   8  21
HETATM   21  C12 UNL     1      28.970  75.016  85.802  1.00  0.00     0.226 C
HETATM   22  O2  UNL     1      28.916  76.045  85.045  1.00  0.00    -0.273 OA
HETATM   23  N2  UNL     1      28.362  75.169  87.077  1.00  0.00    -0.333 N
HETATM   24  C13 UNL     1      27.109  75.437  87.228  1.00  0.00     0.004 C
ATOM     25  H2  UNL     1      28.942  75.061  87.910  1.00  0.00     0.168 HD
HETATM   26  C14 UNL     1      26.044  75.644  86.227  1.00  0.00     0.068 C
HETATM   27  C16 UNL     1      26.515  75.589  88.604  1.00  0.00     0.192 C
HETATM   28  C15 UNL     1      25.438  77.015  86.519  1.00  0.00     0.146 C
HETATM   29  S1  UNL     1      25.425  76.988  88.316  1.00  0.00     0.149 S
HETATM   30  O3  UNL     1      24.065  76.748  88.854  1.00  0.00    -0.228 OA
HETATM   31  O4  UNL     1      26.020  78.241  88.859  1.00  0.00    -0.228 OA
ENDBRANCH   8  21
TORSDOF 3
ENDMDL