MODEL 2
REMARK VINA RESULT: -8.127513101      2.126      9.576
REMARK  5 active torsions:
REMARK  status: ('A' for Active; 'I' for Inactive)
REMARK       I    between atoms: C1_2  and  N1_3
REMARK       I    between atoms: C1_2  and  N5_25
REMARK    1  A    between atoms: N1_3  and  C2_5
REMARK    2  A    between atoms: N2_8  and  C5_9
REMARK    3  A    between atoms: N3_12  and  C8_13
REMARK    4  A    between atoms: C8_13  and  O2_14
REMARK    5  A    between atoms: C8_13  and  N4_16
ROOT
HETATM    1  C2  UNL     1      27.960  77.354  84.412  1.00  0.00     0.089 C
HETATM    2  C3  UNL     1      28.193  77.663  82.949  1.00  0.00     0.044 C
HETATM    3  C4  UNL     1      29.095  76.539  82.432  1.00  0.00     0.119 C
HETATM    4  N2  UNL     1      29.662  75.765  83.477  1.00  0.00    -0.406 N
HETATM    5  C15 UNL     1      30.303  76.523  84.514  1.00  0.00     0.119 C
HETATM    6  C16 UNL     1      29.311  77.523  85.091  1.00  0.00     0.044 C
ENDROOT
BRANCH   4   7
HETATM    7  C5  UNL     1      30.299  74.618  83.004  1.00  0.00     0.098 C
HETATM    8  C6  UNL     1      31.448  74.895  82.074  1.00  0.00     0.046 C
HETATM    9  C7  UNL     1      31.725  73.557  81.440  1.00  0.00     0.128 C
HETATM   10  N3  UNL     1      30.529  72.794  81.609  1.00  0.00    -0.345 N
HETATM   11  C14 UNL     1      29.472  73.691  82.161  1.00  0.00     0.151 C
BRANCH  10  12
HETATM   12  C8  UNL     1      30.312  71.435  81.333  1.00  0.00     0.217 C
BRANCH  12  13
HETATM   13  O2  UNL     1      30.862  70.625  82.211  1.00  0.00    -0.333 OA
ATOM     14  H2  UNL     1      30.936  69.729  81.906  1.00  0.00     0.220 HD
ENDBRANCH  12  13
BRANCH  12  15
HETATM   15  N4  UNL     1      29.608  70.849  80.274  1.00  0.00    -0.348 N
HETATM   16  C9  UNL     1      29.162  69.428  80.404  1.00  0.00     0.126 C
HETATM   17  C10 UNL     1      29.247  68.855  79.006  1.00  0.00     0.020 C
HETATM   18  C11 UNL     1      30.396  69.443  78.220  1.00  0.00     0.003 C
HETATM   19  C12 UNL     1      30.237  70.931  77.986  1.00  0.00     0.020 C
HETATM   20  C13 UNL     1      29.250  71.447  79.030  1.00  0.00     0.126 C
ENDBRANCH  12  15
ENDBRANCH  10  12
ENDBRANCH   4   7
BRANCH   1  21
HETATM   21  N1  UNL     1      26.930  78.119  85.029  1.00  0.00    -0.338 N
HETATM   22  C1  UNL     1      25.715  77.491  85.429  1.00  0.00     0.318 C
HETATM   23  O1  UNL     1      25.572  76.230  85.222  1.00  0.00    -0.247 OA
HETATM   24  N5  UNL     1      24.630  78.150  86.048  1.00  0.00    -0.334 N
HETATM   25  C17 UNL     1      24.838  79.575  86.252  1.00  0.00     0.127 C
HETATM   26  C23 UNL     1      23.545  77.232  86.343  1.00  0.00     0.127 C
HETATM   27  C18 UNL     1      25.763  79.811  87.413  1.00  0.00     0.020 C
HETATM   28  C19 UNL     1      24.983  80.292  88.601  1.00  0.00     0.002 C
HETATM   29  C20 UNL     1      23.720  79.517  88.843  1.00  0.00     0.000 C
HETATM   30  C21 UNL     1      23.907  78.035  88.694  1.00  0.00     0.002 C
HETATM   31  C22 UNL     1      22.922  77.466  87.680  1.00  0.00     0.020 C
ATOM     32  H1  UNL     1      27.062  79.118  85.184  1.00  0.00     0.164 HD
ENDBRANCH   1  21
TORSDOF 5
ENDMDL