MODEL 1
REMARK VINA RESULT: -8.030113115      0.000      0.000
REMARK  2 active torsions:
REMARK  status: ('A' for Active; 'I' for Inactive)
REMARK       I    between atoms: N1_2  and  C3_4
REMARK       I    between atoms: C3_4  and  N2_6
REMARK    1  A    between atoms: C6_9  and  N3_10
REMARK    2  A    between atoms: C11_15  and  N4_16
REMARK       I    between atoms: N4_16  and  C12_18
REMARK       I    between atoms: C12_18  and  N5_20
ROOT
HETATM    1  N3  UNL     1      29.351  74.653  84.091  1.00  0.00     0.095 N
HETATM    2  C7  UNL     1      30.303  75.684  83.869  1.00  0.00     0.273 C
HETATM    3  C8  UNL     1      30.303  76.748  84.940  1.00  0.00     0.030 C
HETATM    4  C9  UNL     1      30.197  76.200  86.318  1.00  0.00     0.004 C
HETATM    5  C10 UNL     1      29.182  75.167  86.574  1.00  0.00     0.027 C
HETATM    6  C11 UNL     1      27.865  75.302  85.869  1.00  0.00     0.114 C
HETATM    7  C20 UNL     1      28.025  75.102  84.357  1.00  0.00     0.298 C
ENDROOT
BRANCH   6   8
HETATM    8  N4  UNL     1      27.119  76.469  86.199  1.00  0.00    -0.337 N
HETATM    9  C12 UNL     1      25.788  76.734  85.830  1.00  0.00     0.318 C
HETATM   10  O2  UNL     1      25.189  75.871  85.145  1.00  0.00    -0.247 OA
HETATM   11  N5  UNL     1      25.099  77.913  86.189  1.00  0.00    -0.334 N
HETATM   12  C13 UNL     1      23.763  77.946  85.696  1.00  0.00     0.127 C
HETATM   13  C19 UNL     1      25.907  78.820  86.979  1.00  0.00     0.127 C
HETATM   14  C14 UNL     1      22.713  77.724  86.752  1.00  0.00     0.020 C
HETATM   15  C15 UNL     1      23.297  77.449  88.109  1.00  0.00     0.002 C
HETATM   16  C16 UNL     1      23.795  78.632  88.844  1.00  0.00     0.000 C
HETATM   17  C17 UNL     1      23.912  79.897  88.082  1.00  0.00     0.002 C
HETATM   18  C18 UNL     1      25.175  80.087  87.314  1.00  0.00     0.020 C
ATOM     19  H4  UNL     1      27.594  77.180  86.755  1.00  0.00     0.164 HD
ENDBRANCH   6   8
BRANCH   1  20
HETATM   20  C6  UNL     1      29.506  73.600  83.159  1.00  0.00     0.226 C
HETATM   21  C5  UNL     1      28.597  73.594  81.983  1.00  0.00     0.056 C
HETATM   22  C4  UNL     1      29.234  72.749  80.885  1.00  0.00     0.129 C
HETATM   23  N2  UNL     1      29.773  71.515  81.381  1.00  0.00    -0.334 N
HETATM   24  C3  UNL     1      30.105  70.477  80.483  1.00  0.00     0.319 C
HETATM   25  C22 UNL     1      30.031  71.267  82.802  1.00  0.00     0.129 C
HETATM   26  N1  UNL     1      30.042  70.419  79.108  1.00  0.00    -0.343 N
HETATM   27  O1  UNL     1      30.545  69.400  81.061  1.00  0.00    -0.247 OA
HETATM   28  C1  UNL     1      29.634  71.420  78.155  1.00  0.00     0.154 C
HETATM   29  C2  UNL     1      30.443  69.134  78.412  1.00  0.00     0.154 C
HETATM   30  C21 UNL     1      29.423  72.213  83.760  1.00  0.00     0.056 C
ENDBRANCH   1  20
TORSDOF 2
ENDMDL