MODEL 2
REMARK VINA RESULT: -8.749975976      4.062      6.483
REMARK  2 active torsions:
REMARK  status: ('A' for Active; 'I' for Inactive)
REMARK       I    between atoms: N1_14  and  C13_15
REMARK    1  A    between atoms: C13_15  and  C14_17
REMARK       I    between atoms: N3_23  and  C17_24
REMARK    2  A    between atoms: C17_24  and  C18_26
ROOT
HETATM    1  O1  UNL     1      30.547  72.775  87.019  1.00  0.00    -0.273 OA
HETATM    2  C1  UNL     1      31.247  73.824  86.810  1.00  0.00     0.226 C
HETATM    3  C2  UNL     1      31.557  74.651  87.988  1.00  0.00     0.103 C
HETATM    4  C3  UNL     1      31.920  73.782  89.173  1.00  0.00     0.009 C
HETATM    5  C4  UNL     1      32.767  74.496  90.182  1.00  0.00     0.000 C
HETATM    6  C5  UNL     1      34.167  74.762  89.734  1.00  0.00     0.000 C
HETATM    7  C6  UNL     1      35.132  73.658  90.005  1.00  0.00     0.000 C
HETATM    8  C7  UNL     1      35.848  73.134  88.802  1.00  0.00     0.000 C
HETATM    9  C8  UNL     1      36.344  74.172  87.863  1.00  0.00     0.000 C
HETATM   10  C9  UNL     1      35.650  74.304  86.573  1.00  0.00     0.000 C
HETATM   11  C10 UNL     1      34.702  73.239  86.181  1.00  0.00     0.002 C
HETATM   12  C11 UNL     1      33.994  73.670  84.911  1.00  0.00     0.020 C
HETATM   13  C12 UNL     1      32.914  74.696  85.139  1.00  0.00     0.135 C
HETATM   14  N1  UNL     1      31.632  74.054  85.473  1.00  0.00    -0.287 N
HETATM   15  C13 UNL     1      30.785  73.671  84.392  1.00  0.00     0.251 C
HETATM   16  O2  UNL     1      29.687  73.092  84.679  1.00  0.00    -0.271 OA
ENDROOT
BRANCH  15  17
HETATM   17  C14 UNL     1      31.077  73.890  82.969  1.00  0.00     0.207 C
HETATM   18  C15 UNL     1      30.659  75.303  82.532  1.00  0.00     0.160 C
HETATM   19  N2  UNL     1      29.235  75.214  82.785  1.00  0.00    -0.340 N
HETATM   20  C16 UNL     1      28.894  73.908  82.261  1.00  0.00     0.326 C
ATOM     21  H2  UNL     1      28.623  75.902  83.225  1.00  0.00     0.164 HD
HETATM   22  O3  UNL     1      27.726  73.589  81.945  1.00  0.00    -0.247 OA
HETATM   23  N3  UNL     1      30.073  73.129  82.187  1.00  0.00    -0.254 N
HETATM   24  C17 UNL     1      30.273  71.920  81.506  1.00  0.00     0.232 C
HETATM   25  O4  UNL     1      31.467  71.454  81.553  1.00  0.00    -0.272 OA
BRANCH  24  26
HETATM   26  C18 UNL     1      29.281  71.130  80.754  1.00  0.00     0.078 C
HETATM   27  C19 UNL     1      29.191  71.663  79.320  1.00  0.00     0.014 C
HETATM   28  C20 UNL     1      30.320  71.058  78.536  1.00  0.00     0.001 C
HETATM   29  C21 UNL     1      29.842  69.657  78.133  1.00  0.00     0.000 C
HETATM   30  C22 UNL     1      29.063  69.105  79.315  1.00  0.00     0.001 C
HETATM   31  C23 UNL     1      29.643  69.661  80.629  1.00  0.00     0.014 C
ENDBRANCH  24  26
ENDBRANCH  15  17
TORSDOF 2
ENDMDL