MODEL 5
REMARK VINA RESULT: -7.619115808      4.888      6.272
REMARK  4 active torsions:
REMARK  status: ('A' for Active; 'I' for Inactive)
REMARK    1  A    between atoms: N1_9  and  C9_10
REMARK    2  A    between atoms: C9_10  and  C10_11
REMARK       I    between atoms: N2_14  and  C13_15
REMARK    3  A    between atoms: C13_15  and  C14_17
REMARK    4  A    between atoms: C20_23  and  N3_24
ROOT
HETATM    1  C1  UNL     1      26.627  77.821  90.794  1.00  0.00     0.011 C
HETATM    2  C2  UNL     1      25.561  76.946  90.239  1.00  0.00    -0.010 C
HETATM    3  C3  UNL     1      26.000  75.517  90.033  1.00  0.00    -0.010 C
HETATM    4  C4  UNL     1      26.702  74.779  91.041  1.00  0.00     0.005 C
HETATM    5  C5  UNL     1      28.136  74.403  90.598  1.00  0.00     0.001 C
HETATM    6  C6  UNL     1      28.187  73.890  89.182  1.00  0.00     0.008 C
HETATM    7  C7  UNL     1      28.956  74.718  88.203  1.00  0.00     0.049 C
HETATM    8  C8  UNL     1      30.113  74.059  87.527  1.00  0.00     0.279 C
HETATM    9  N1  UNL     1      29.644  74.453  86.202  1.00  0.00     0.096 N
HETATM   10  C19 UNL     1      28.349  74.729  86.791  1.00  0.00     0.259 C
HETATM   11  C20 UNL     1      27.870  76.067  86.352  1.00  0.00     0.221 C
HETATM   12  C21 UNL     1      26.541  76.550  86.763  1.00  0.00     0.019 C
HETATM   13  C22 UNL     1      25.471  75.556  87.032  1.00  0.00     0.011 C
HETATM   14  C23 UNL     1      24.669  75.978  88.222  1.00  0.00    -0.009 C
HETATM   15  C24 UNL     1      24.761  74.964  89.381  1.00  0.00     0.010 C
HETATM   16  C25 UNL     1      25.276  77.264  88.747  1.00  0.00    -0.006 C
HETATM   17  C26 UNL     1      26.554  77.478  87.982  1.00  0.00     0.012 C
ENDROOT
BRANCH   9  18
HETATM   18  C9  UNL     1      29.663  73.265  85.334  1.00  0.00     0.279 C
BRANCH  18  19
HETATM   19  C10 UNL     1      29.832  73.655  83.893  1.00  0.00     0.033 C
HETATM   20  C11 UNL     1      28.603  74.273  83.287  1.00  0.00     0.028 C
HETATM   21  C12 UNL     1      28.856  74.070  81.813  1.00  0.00     0.126 C
HETATM   22  N2  UNL     1      29.373  72.692  81.780  1.00  0.00    -0.351 N
HETATM   23  C13 UNL     1      29.302  71.840  80.675  1.00  0.00     0.224 C
HETATM   24  C18 UNL     1      29.956  72.381  83.076  1.00  0.00     0.132 C
HETATM   25  O1  UNL     1      28.767  72.233  79.612  1.00  0.00    -0.273 OA
BRANCH  23  26
HETATM   26  C14 UNL     1      29.844  70.477  80.719  1.00  0.00     0.078 C
HETATM   27  C15 UNL     1      30.344  69.917  79.405  1.00  0.00     0.014 C
HETATM   28  C16 UNL     1      29.599  68.641  79.706  1.00  0.00     0.002 C
HETATM   29  C17 UNL     1      28.807  69.374  80.748  1.00  0.00     0.014 C
ENDBRANCH  23  26
ENDBRANCH  18  19
ENDBRANCH   9  18
BRANCH  11  30
HETATM   30  N3  UNL     1      28.865  77.048  86.823  1.00  0.00    -0.073 N
ATOM     31  H33 UNL     1      29.027  77.005  87.829  1.00  0.00     0.274 HD
ATOM     32  H32 UNL     1      29.817  76.829  86.530  1.00  0.00     0.274 HD
ATOM     33  H31 UNL     1      28.546  77.963  86.505  1.00  0.00     0.274 HD
ENDBRANCH  11  30
TORSDOF 4
ENDMDL