MODEL 3
REMARK VINA RESULT: -7.191838341      4.823      6.177
REMARK  3 active torsions:
REMARK  status: ('A' for Active; 'I' for Inactive)
REMARK       I    between atoms: C2_2  and  N1_4
REMARK    1  A    between atoms: N1_4  and  C4_6
REMARK    2  A    between atoms: C17_19  and  O2_20
REMARK    3  A    between atoms: C18_22  and  N2_23
REMARK       I    between atoms: N2_23  and  C20_25
ROOT
HETATM    1  C4  UNL     1      30.010  72.346  81.700  1.00  0.00     0.087 C
HETATM    2  C5  UNL     1      28.755  73.187  81.884  1.00  0.00     0.026 C
HETATM    3  C6  UNL     1      29.324  74.612  81.936  1.00  0.00     0.007 C
HETATM    4  C7  UNL     1      29.846  74.766  83.380  1.00  0.00    -0.006 C
HETATM    5  C8  UNL     1      30.581  73.586  83.854  1.00  0.00    -0.008 C
HETATM    6  C9  UNL     1      30.007  73.023  85.174  1.00  0.00     0.005 C
HETATM    7  C10 UNL     1      29.970  74.288  86.052  1.00  0.00     0.006 C
HETATM    8  C11 UNL     1      28.673  74.946  85.635  1.00  0.00    -0.005 C
HETATM    9  C12 UNL     1      28.706  75.267  84.182  1.00  0.00    -0.006 C
HETATM   10  C13 UNL     1      28.628  76.796  84.005  1.00  0.00     0.006 C
HETATM   11  C14 UNL     1      27.363  77.363  84.538  1.00  0.00     0.012 C
HETATM   12  C15 UNL     1      27.043  76.733  85.846  1.00  0.00    -0.012 C
HETATM   13  C16 UNL     1      25.910  75.774  85.750  1.00  0.00     0.018 C
HETATM   14  C17 UNL     1      26.759  77.785  86.933  1.00  0.00     0.150 C
HETATM   15  C18 UNL     1      26.855  76.862  88.149  1.00  0.00     0.120 C
HETATM   16  C22 UNL     1      28.041  75.976  87.879  1.00  0.00     0.012 C
HETATM   17  C23 UNL     1      27.816  74.640  88.461  1.00  0.00     0.012 C
HETATM   18  C24 UNL     1      28.307  76.110  86.456  1.00  0.00     0.006 C
HETATM   19  C25 UNL     1      30.854  72.478  82.923  1.00  0.00     0.030 C
ENDROOT
BRANCH   1  20
HETATM   20  N1  UNL     1      29.703  70.992  81.352  1.00  0.00    -0.352 N
HETATM   21  C2  UNL     1      29.501  70.653  79.992  1.00  0.00     0.215 C
HETATM   22  C1  UNL     1      29.593  71.638  78.891  1.00  0.00     0.117 C
HETATM   23  O1  UNL     1      29.232  69.461  79.708  1.00  0.00    -0.274 OA
HETATM   24  C3  UNL     1      29.595  69.953  82.385  1.00  0.00     0.153 C
ENDBRANCH   1  20
BRANCH  14  25
HETATM   25  O2  UNL     1      27.775  78.714  86.895  1.00  0.00    -0.393 OA
ATOM     26  H2  UNL     1      28.447  78.387  86.307  1.00  0.00     0.210 HD
ENDBRANCH  14  25
BRANCH  15  27
HETATM   27  N2  UNL     1      26.886  77.590  89.378  1.00  0.00    -0.349 N
HETATM   28  C19 UNL     1      28.095  77.855  90.100  1.00  0.00     0.153 C
HETATM   29  C20 UNL     1      25.657  78.081  89.903  1.00  0.00     0.215 C
HETATM   30  C21 UNL     1      24.345  77.868  89.204  1.00  0.00     0.117 C
HETATM   31  O3  UNL     1      25.688  78.720  91.000  1.00  0.00    -0.274 OA
ENDBRANCH  15  27
TORSDOF 3
ENDMDL