MODEL 3
REMARK VINA RESULT: -8.910210569      1.631      3.169
REMARK  9 active torsions:
REMARK  status: ('A' for Active; 'I' for Inactive)
REMARK    1  A    between atoms: C2_2  and  C17_17
REMARK    2  A    between atoms: C3_3  and  C4_4
REMARK    3  A    between atoms: C4_4  and  C5_5
REMARK    4  A    between atoms: C5_5  and  C6_6
REMARK    5  A    between atoms: C6_6  and  C8_8
REMARK    6  A    between atoms: C17_17  and  O2_19
REMARK    7  A    between atoms: O2_19  and  C18_20
REMARK    8  A    between atoms: C18_20  and  C19_22
REMARK    9  A    between atoms: C19_22  and  O4_25
ROOT
HETATM    1  C1  UNL     1      39.929  31.892  30.096  1.00  0.00     0.054 C
HETATM    2  C2  UNL     1      41.205  31.123  30.387  1.00  0.00     0.010 C
HETATM    3  C3  UNL     1      42.325  31.710  30.173  1.00  0.00    -0.014 C
ENDROOT
BRANCH   3   4
HETATM    4  C4  UNL     1      43.701  31.250  30.349  1.00  0.00     0.028 C
BRANCH   4   5
HETATM    5  C5  UNL     1      44.265  32.049  31.542  1.00  0.00     0.008 C
BRANCH   5   6
HETATM    6  C6  UNL     1      44.709  33.363  30.994  1.00  0.00    -0.014 C
HETATM    7  C7  UNL     1      44.132  34.466  31.852  1.00  0.00     0.010 C
BRANCH   6   8
HETATM    8  C8  UNL     1      46.201  33.525  30.946  1.00  0.00    -0.006 C
HETATM    9  C9  UNL     1      46.907  32.677  31.987  1.00  0.00     0.032 C
HETATM   10  C10 UNL     1      48.313  33.153  32.024  1.00  0.00    -0.023 C
HETATM   11  C11 UNL     1      48.905  33.540  30.904  1.00  0.00    -0.080 C
HETATM   12  C12 UNL     1      50.344  34.030  30.926  1.00  0.00     0.044 C
HETATM   13  C13 UNL     1      48.242  33.531  29.577  1.00  0.00    -0.025 C
HETATM   14  C14 UNL     1      48.283  34.946  28.982  1.00  0.00     0.019 C
HETATM   15  C15 UNL     1      49.022  32.633  28.612  1.00  0.00     0.019 C
HETATM   16  C16 UNL     1      46.789  33.142  29.619  1.00  0.00     0.018 C
ENDBRANCH   6   8
ENDBRANCH   5   6
ENDBRANCH   4   5
ENDBRANCH   3   4
BRANCH   2  17
HETATM   17  C17 UNL     1      41.019  29.792  30.880  1.00  0.00     0.296 C
HETATM   18  O1  UNL     1      41.880  28.910  30.816  1.00  0.00    -0.259 OA
BRANCH  17  19
HETATM   19  O2  UNL     1      39.808  29.382  31.487  1.00  0.00    -0.239 OA
BRANCH  19  20
HETATM   20  C18 UNL     1      39.765  28.678  32.668  1.00  0.00     0.300 C
HETATM   21  O3  UNL     1      39.538  27.433  32.586  1.00  0.00    -0.261 OA
BRANCH  20  22
HETATM   22  C19 UNL     1      39.975  29.347  33.981  1.00  0.00     0.138 C
HETATM   23  C20 UNL     1      39.188  28.556  35.008  1.00  0.00     0.056 C
HETATM   24  C21 UNL     1      39.537  30.785  33.935  1.00  0.00     0.056 C
BRANCH  22  25
HETATM   25  O4  UNL     1      41.313  29.261  34.297  1.00  0.00    -0.380 OA
ATOM     26  H4  UNL     1      41.714  30.102  34.115  1.00  0.00     0.211 HD
ENDBRANCH  22  25
ENDBRANCH  20  22
ENDBRANCH  19  20
ENDBRANCH  17  19
ENDBRANCH   2  17
TORSDOF 9
ENDMDL