MODEL 5
REMARK VINA RESULT: -8.713094423      0.697      1.045
REMARK  7 active torsions:
REMARK  status: ('A' for Active; 'I' for Inactive)
REMARK    1  A    between atoms: C1_2  and  O2_3
REMARK    2  A    between atoms: C1_2  and  O3_20
REMARK    3  A    between atoms: O2_3  and  C2_4
REMARK    4  A    between atoms: C5_7  and  C6_8
REMARK    5  A    between atoms: C6_8  and  C7_9
REMARK    6  A    between atoms: C7_9  and  C8_10
REMARK    7  A    between atoms: O3_20  and  C15_21
ROOT
HETATM    1  C2  UNL     1      45.616  33.599  31.713  1.00  0.00     0.134 C
HETATM    2  C3  UNL     1      45.650  32.247  31.102  1.00  0.00     0.033 C
HETATM    3  C4  UNL     1      44.566  32.089  30.059  1.00  0.00     0.007 C
HETATM    4  C5  UNL     1      43.190  32.193  30.670  1.00  0.00    -0.014 C
HETATM    5  C13 UNL     1      43.209  32.910  31.994  1.00  0.00     0.007 C
HETATM    6  C14 UNL     1      44.233  33.989  32.080  1.00  0.00     0.033 C
ENDROOT
BRANCH   1   7
HETATM    7  O2  UNL     1      46.496  33.758  32.799  1.00  0.00    -0.293 OA
BRANCH   7   8
HETATM    8  C1  UNL     1      47.858  33.512  32.758  1.00  0.00     0.407 C
HETATM    9  O1  UNL     1      48.284  32.547  33.410  1.00  0.00    -0.229 OA
BRANCH   8  10
HETATM   10  O3  UNL     1      48.752  34.279  32.035  1.00  0.00    -0.292 OA
BRANCH  10  11
HETATM   11  C15 UNL     1      49.541  33.661  31.074  1.00  0.00     0.138 C
HETATM   12  C16 UNL     1      50.608  34.596  30.506  1.00  0.00     0.037 C
HETATM   13  C17 UNL     1      50.562  34.433  29.011  1.00  0.00    -0.012 C
HETATM   14  C18 UNL     1      49.384  35.204  28.496  1.00  0.00     0.005 C
HETATM   15  C21 UNL     1      50.012  33.000  28.910  1.00  0.00     0.012 C
HETATM   16  C19 UNL     1      48.202  34.453  29.112  1.00  0.00     0.007 C
HETATM   17  C20 UNL     1      48.803  33.258  29.830  1.00  0.00     0.016 C
ENDBRANCH  10  11
ENDBRANCH   8  10
ENDBRANCH   7   8
ENDBRANCH   1   7
BRANCH   4  18
HETATM   18  C6  UNL     1      42.585  30.827  30.906  1.00  0.00     0.007 C
BRANCH  18  19
HETATM   19  C7  UNL     1      41.185  30.687  30.396  1.00  0.00     0.033 C
BRANCH  19  20
HETATM   20  C8  UNL     1      40.177  31.064  31.470  1.00  0.00     0.185 C
HETATM   21  C9  UNL     1      38.817  30.494  31.127  1.00  0.00     0.033 C
HETATM   22  C10 UNL     1      38.578  29.174  31.848  1.00  0.00     0.004 C
HETATM   23  C11 UNL     1      38.575  29.366  33.349  1.00  0.00     0.027 C
HETATM   24  C12 UNL     1      39.414  30.595  33.631  1.00  0.00     0.232 C
HETATM   25  N1  UNL     1      40.556  30.556  32.761  1.00  0.00    -0.071 N
ATOM     26  H12 UNL     1      40.972  29.626  32.707  1.00  0.00     0.277 HD
ATOM     27  H11 UNL     1      41.359  31.049  33.152  1.00  0.00     0.277 HD
ENDBRANCH  19  20
ENDBRANCH  18  19
ENDBRANCH   4  18
TORSDOF 7
ENDMDL