MODEL 4
REMARK VINA RESULT: -8.676390664      2.975      9.791
REMARK  5 active torsions:
REMARK  status: ('A' for Active; 'I' for Inactive)
REMARK    1  A    between atoms: C2_3  and  C3_4
REMARK    2  A    between atoms: C4_5  and  C5_6
REMARK       I    between atoms: C5_6  and  N2_8
REMARK    3  A    between atoms: N2_8  and  C6_9
REMARK    4  A    between atoms: C14_19  and  S1_20
REMARK    5  A    between atoms: S1_20  and  C15_21
ROOT
HETATM    1  C1  UNL     1      47.391  33.648  29.011  1.00  0.00     0.158 C
HETATM    2  N1  UNL     1      47.284  33.300  30.410  1.00  0.00    -0.331 N
HETATM    3  C2  UNL     1      46.238  32.620  30.980  1.00  0.00     0.051 A
HETATM    4  C13 UNL     1      46.577  32.536  32.306  1.00  0.00     0.119 A
HETATM    5  N3  UNL     1      47.784  33.136  32.541  1.00  0.00    -0.344 N
ATOM      6  H3  UNL     1      48.276  33.220  33.431  1.00  0.00     0.167 HD
HETATM    7  C14 UNL     1      48.175  33.587  31.351  1.00  0.00     0.146 A
ENDROOT
BRANCH   3   8
HETATM    8  C3  UNL     1      45.075  32.247  30.215  1.00  0.00     0.038 C
HETATM    9  C4  UNL     1      43.808  32.311  30.369  1.00  0.00     0.092 C
BRANCH   9  10
HETATM   10  C5  UNL     1      42.983  32.815  31.465  1.00  0.00     0.310 C
HETATM   11  O1  UNL     1      43.348  33.847  32.022  1.00  0.00    -0.252 OA
HETATM   12  N2  UNL     1      41.857  32.108  31.801  1.00  0.00    -0.406 NA
BRANCH  12  13
HETATM   13  C6  UNL     1      40.720  31.397  32.139  1.00  0.00     0.167 C
HETATM   14  C7  UNL     1      40.068  30.941  30.823  1.00  0.00     0.039 C
HETATM   15  C8  UNL     1      38.685  30.425  31.044  1.00  0.00     0.003 C
HETATM   16  C9  UNL     1      38.580  29.438  32.180  1.00  0.00     0.000 C
HETATM   17  C10 UNL     1      38.742  30.078  33.533  1.00  0.00     0.000 C
HETATM   18  C11 UNL     1      40.134  29.889  34.014  1.00  0.00     0.003 C
HETATM   19  C12 UNL     1      41.125  30.171  32.951  1.00  0.00     0.039 C
ENDBRANCH  12  13
ENDBRANCH   9  10
ENDBRANCH   3   8
BRANCH   7  20
HETATM   20  S1  UNL     1      49.726  34.449  31.037  1.00  0.00    -0.089 SA
BRANCH  20  21
HETATM   21  C15 UNL     1      51.070  33.232  31.054  1.00  0.00     0.055 C
HETATM   22  C16 UNL     1      52.427  33.829  30.925  1.00  0.00     0.015 C
HETATM   23  C17 UNL     1      53.238  32.853  30.107  1.00  0.00     0.001 C
HETATM   24  C18 UNL     1      52.312  31.774  29.640  1.00  0.00     0.001 C
HETATM   25  C19 UNL     1      50.932  32.314  29.884  1.00  0.00     0.015 C
ENDBRANCH  20  21
ENDBRANCH   7  20
TORSDOF 5
ENDMDL