MODEL 3
REMARK VINA RESULT: -7.750150379      5.498      9.158
REMARK  4 active torsions:
REMARK  status: ('A' for Active; 'I' for Inactive)
REMARK    1  A    between atoms: C3_6  and  C4_7
REMARK    2  A    between atoms: C4_7  and  N2_8
REMARK    3  A    between atoms: N2_8  and  C6_10
REMARK    4  A    between atoms: C9_13  and  C10_14
ROOT
HETATM    1  C10 UNL     1      47.790  34.121  29.759  1.00  0.00     0.119 C
HETATM    2  N3  UNL     1      47.071  32.972  29.373  1.00  0.00    -0.408 N
ATOM      3  H3  UNL     1      47.572  32.163  29.005  1.00  0.00     0.154 HD
HETATM    4  C11 UNL     1      45.692  32.929  29.488  1.00  0.00     0.078 C
HETATM    5  C12 UNL     1      44.890  34.117  29.827  1.00  0.00     0.029 C
HETATM    6  C13 UNL     1      44.728  34.382  31.299  1.00  0.00    -0.012 C
HETATM    7  C14 UNL     1      44.270  33.181  32.064  1.00  0.00     0.009 C
HETATM    8  C15 UNL     1      45.338  32.121  31.845  1.00  0.00    -0.012 C
HETATM    9  C16 UNL     1      45.318  31.769  30.397  1.00  0.00     0.029 C
HETATM   10  C17 UNL     1      46.678  32.535  32.361  1.00  0.00     0.010 C
HETATM   11  C18 UNL     1      47.042  33.953  32.156  1.00  0.00    -0.008 C
HETATM   12  C19 UNL     1      45.961  34.931  31.948  1.00  0.00     0.010 C
HETATM   13  C20 UNL     1      48.231  34.136  31.155  1.00  0.00     0.013 C
HETATM   14  C21 UNL     1      49.215  33.024  31.495  1.00  0.00     0.012 C
ENDROOT
BRANCH   1  15
HETATM   15  C9  UNL     1      48.844  34.407  28.768  1.00  0.00     0.022 A
HETATM   16  C2  UNL     1      49.338  35.711  28.485  1.00  0.00     0.083 A
HETATM   17  C1  UNL     1      48.826  36.986  29.027  1.00  0.00     0.079 C
HETATM   18  O1  UNL     1      50.323  35.529  27.657  1.00  0.00    -0.242 OA
HETATM   19  N1  UNL     1      50.512  34.305  27.384  1.00  0.00    -0.263 N
HETATM   20  C3  UNL     1      49.613  33.520  28.050  1.00  0.00     0.060 A
ATOM     21  H1  UNL     1      51.235  33.955  26.755  1.00  0.00     0.194 HD
BRANCH  20  22
HETATM   22  C4  UNL     1      49.642  32.070  27.930  1.00  0.00     0.176 C
BRANCH  22  23
HETATM   23  N2  UNL     1      50.942  31.487  28.010  1.00  0.00    -0.407 N
HETATM   24  C5  UNL     1      51.136  30.455  27.044  1.00  0.00     0.144 C
BRANCH  23  25
HETATM   25  C6  UNL     1      51.547  31.250  29.246  1.00  0.00     0.079 A
HETATM   26  C7  UNL     1      52.924  30.763  29.351  1.00  0.00     0.027 A
HETATM   27  C8  UNL     1      52.634  32.165  29.756  1.00  0.00     0.027 A
ENDBRANCH  23  25
ENDBRANCH  22  23
ENDBRANCH  20  22
ENDBRANCH   1  15
TORSDOF 4
ENDMDL