MODEL 3
REMARK VINA RESULT: -7.708656589      2.143      9.277
REMARK  7 active torsions:
REMARK  status: ('A' for Active; 'I' for Inactive)
REMARK    1  A    between atoms: C2_2  and  C5_5
REMARK    2  A    between atoms: C5_5  and  N1_6
REMARK    3  A    between atoms: C9_12  and  N3_13
REMARK    4  A    between atoms: N3_13  and  C10_15
REMARK    5  A    between atoms: C10_15  and  C11_16
REMARK    6  A    between atoms: C11_16  and  C12_17
REMARK    7  A    between atoms: C12_17  and  C13_18
ROOT
HETATM    1  N1  UNL     1      46.138  32.966  30.658  1.00  0.00     0.094 N
HETATM    2  C6  UNL     1      45.134  33.981  30.368  1.00  0.00     0.279 C
HETATM    3  C7  UNL     1      44.451  34.358  31.656  1.00  0.00     0.088 C
HETATM    4  C8  UNL     1      43.502  33.174  31.877  1.00  0.00     0.028 A
HETATM    5  N2  UNL     1      42.225  33.121  32.108  1.00  0.00    -0.339 N
ATOM      6  H2  UNL     1      41.671  33.976  32.164  1.00  0.00     0.168 HD
HETATM    7  C9  UNL     1      41.651  31.934  32.270  1.00  0.00     0.145 A
HETATM    8  S2  UNL     1      42.957  30.843  32.090  1.00  0.00    -0.055 SA
HETATM    9  C17 UNL     1      44.190  31.985  31.814  1.00  0.00     0.037 A
HETATM   10  C18 UNL     1      45.691  31.983  31.575  1.00  0.00     0.320 C
ENDROOT
BRANCH   7  11
HETATM   11  N3  UNL     1      40.377  31.656  32.513  1.00  0.00    -0.370 N
ATOM     12  H3  UNL     1      39.859  32.126  33.254  1.00  0.00     0.161 HD
BRANCH  11  13
HETATM   13  C10 UNL     1      39.759  30.651  31.674  1.00  0.00     0.122 C
BRANCH  13  14
HETATM   14  C11 UNL     1      38.771  29.830  32.429  1.00  0.00     0.024 C
BRANCH  14  15
HETATM   15  C12 UNL     1      38.955  29.746  33.899  1.00  0.00     0.041 C
BRANCH  15  16
HETATM   16  C13 UNL     1      38.952  28.272  34.288  1.00  0.00    -0.051 A
HETATM   17  C14 UNL     1      38.648  27.872  35.532  1.00  0.00     0.014 A
HETATM   18  C15 UNL     1      38.685  26.527  35.784  1.00  0.00     0.050 A
HETATM   19  S1  UNL     1      39.143  25.867  34.284  1.00  0.00    -0.113 SA
HETATM   20  C16 UNL     1      39.274  27.302  33.378  1.00  0.00     0.056 A
ENDBRANCH  15  16
ENDBRANCH  14  15
ENDBRANCH  13  14
ENDBRANCH  11  13
ENDBRANCH   7  11
BRANCH   1  21
HETATM   21  C5  UNL     1      47.307  33.685  31.082  1.00  0.00     0.281 C
BRANCH  21  22
HETATM   22  C2  UNL     1      48.459  33.757  30.162  1.00  0.00    -0.025 C
HETATM   23  C1  UNL     1      48.811  35.189  29.784  1.00  0.00     0.016 C
HETATM   24  C3  UNL     1      48.382  32.930  28.928  1.00  0.00     0.016 C
HETATM   25  C4  UNL     1      49.690  33.230  30.948  1.00  0.00     0.016 C
ENDBRANCH  21  22
ENDBRANCH   1  21
TORSDOF 7
ENDMDL