MODEL 1
REMARK VINA RESULT: -5.484244741      0.000      0.000
REMARK  5 active torsions:
REMARK  status: ('A' for Active; 'I' for Inactive)
REMARK    1  A    between atoms: S1_2  and  C2_3
REMARK    2  A    between atoms: N1_6  and  C4_8
REMARK    3  A    between atoms: C4_8  and  C5_9
REMARK    4  A    between atoms: C5_9  and  C6_10
REMARK    5  A    between atoms: C6_10  and  N2_11
ROOT
HETATM    1  C2  UNL     1      41.696  21.320  27.810  1.00  0.00     0.051 A
HETATM    2  S2  UNL     1      41.478  20.951  29.458  1.00  0.00    -0.064 SA
HETATM    3  C3  UNL     1      39.823  20.937  29.909  1.00  0.00     0.084 A
HETATM    4  N1  UNL     1      39.472  20.675  31.125  1.00  0.00    -0.383 N
ATOM      5  H1  UNL     1      38.483  20.670  31.376  1.00  0.00     0.160 HD
HETATM    6  C9  UNL     1      38.935  21.219  28.893  1.00  0.00     0.033 A
HETATM    7  C10 UNL     1      37.540  21.268  29.007  1.00  0.00    -0.020 A
HETATM    8  C11 UNL     1      37.079  21.579  27.772  1.00  0.00     0.017 A
HETATM    9  N3  UNL     1      38.103  21.720  26.917  1.00  0.00    -0.358 N
ATOM     10  H3  UNL     1      38.024  21.953  25.927  1.00  0.00     0.166 HD
HETATM   11  C12 UNL     1      39.270  21.501  27.595  1.00  0.00     0.054 A
HETATM   12  C13 UNL     1      40.560  21.546  27.098  1.00  0.00    -0.011 A
HETATM   13  C14 UNL     1      40.766  21.873  25.636  1.00  0.00     0.052 C
HETATM   14  C15 UNL     1      35.628  21.731  27.451  1.00  0.00     0.057 C
HETATM   15  C16 UNL     1      34.772  21.810  28.661  1.00  0.00     0.006 C
HETATM   16  C17 UNL     1      35.207  20.875  29.765  1.00  0.00     0.005 C
HETATM   17  C18 UNL     1      36.633  21.054  30.148  1.00  0.00     0.042 C
ENDROOT
BRANCH   4  18
HETATM   18  C4  UNL     1      40.457  20.392  32.121  1.00  0.00     0.122 C
BRANCH  18  19
HETATM   19  C5  UNL     1      40.470  21.407  33.236  1.00  0.00     0.050 C
BRANCH  19  20
HETATM   20  C6  UNL     1      41.759  22.164  33.290  1.00  0.00     0.273 C
BRANCH  20  21
HETATM   21  N2  UNL     1      41.578  23.594  33.164  1.00  0.00     0.080 N
HETATM   22  C7  UNL     1      40.438  24.075  33.885  1.00  0.00     0.309 C
HETATM   23  C8  UNL     1      41.558  24.022  31.781  1.00  0.00     0.309 C
ENDBRANCH  20  21
ENDBRANCH  19  20
ENDBRANCH  18  19
ENDBRANCH   4  18
BRANCH   1  24
HETATM   24  S1  UNL     1      43.336  21.397  27.093  1.00  0.00    -0.126 SA
HETATM   25  C1  UNL     1      44.614  21.432  28.362  1.00  0.00     0.096 C
ENDBRANCH   1  24
TORSDOF 5
ENDMDL