MODEL 5
REMARK VINA RESULT: -5.478626009     10.589     13.340
REMARK  7 active torsions:
REMARK  status: ('A' for Active; 'I' for Inactive)
REMARK    1  A    between atoms: C2_2  and  C3_3
REMARK    2  A    between atoms: C15_16  and  O2_17
REMARK    3  A    between atoms: O2_17  and  C16_18
REMARK    4  A    between atoms: C16_18  and  C17_20
REMARK    5  A    between atoms: C17_20  and  C18_21
REMARK    6  A    between atoms: C20_23  and  C21_24
REMARK    7  A    between atoms: C21_24  and  O4_25
ROOT
HETATM    1  C3  UNL     1      48.590  33.232  28.762  1.00  0.00    -0.041 C
HETATM    2  C4  UNL     1      49.307  33.929  29.798  1.00  0.00     0.017 C
HETATM    3  C5  UNL     1      50.732  33.972  30.056  1.00  0.00     0.160 C
HETATM    4  O1  UNL     1      51.396  35.221  29.924  1.00  0.00    -0.370 OA
HETATM    5  C6  UNL     1      51.899  35.330  28.606  1.00  0.00     0.059 C
HETATM    6  C7  UNL     1      50.843  36.352  28.053  1.00  0.00     0.046 C
HETATM    7  C8  UNL     1      53.159  36.092  28.438  1.00  0.00     0.046 C
HETATM    8  C9  UNL     1      51.761  33.994  28.117  1.00  0.00     0.035 C
HETATM    9  C10 UNL     1      52.384  33.259  27.042  1.00  0.00     0.010 C
HETATM   10  C11 UNL     1      51.257  32.265  26.607  1.00  0.00     0.016 C
HETATM   11  C12 UNL     1      50.468  31.736  27.729  1.00  0.00     0.002 C
HETATM   12  C13 UNL     1      50.421  30.205  27.382  1.00  0.00     0.022 C
HETATM   13  C14 UNL     1      49.101  32.066  28.038  1.00  0.00    -0.004 C
HETATM   14  C15 UNL     1      51.222  31.713  29.049  1.00  0.00     0.157 C
HETATM   15  C20 UNL     1      51.685  33.114  29.312  1.00  0.00     0.045 C
ENDROOT
BRANCH  14  16
HETATM   16  O2  UNL     1      52.371  30.931  28.788  1.00  0.00    -0.314 OA
BRANCH  16  17
HETATM   17  C16 UNL     1      52.830  29.893  29.581  1.00  0.00     0.259 C
HETATM   18  O3  UNL     1      54.035  29.828  29.840  1.00  0.00    -0.265 OA
BRANCH  17  19
HETATM   19  C17 UNL     1      51.825  28.911  30.073  1.00  0.00     0.111 C
BRANCH  19  20
HETATM   20  C18 UNL     1      52.388  27.940  31.070  1.00  0.00     0.005 C
HETATM   21  C19 UNL     1      51.319  26.895  31.330  1.00  0.00     0.005 C
ENDBRANCH  19  20
ENDBRANCH  17  19
ENDBRANCH  16  17
ENDBRANCH  14  16
BRANCH  15  22
HETATM   22  C21 UNL     1      52.907  32.936  30.150  1.00  0.00     0.179 C
BRANCH  22  23
HETATM   23  O4  UNL     1      52.820  33.353  31.465  1.00  0.00    -0.400 OA
ATOM     24  H4  UNL     1      53.575  33.179  32.016  1.00  0.00     0.209 HD
ENDBRANCH  22  23
ENDBRANCH  15  22
BRANCH   1  25
HETATM   25  C2  UNL     1      47.170  32.930  29.094  1.00  0.00     0.001 C
HETATM   26  C1  UNL     1      46.556  32.967  30.231  1.00  0.00     0.012 C
ENDBRANCH   1  25
TORSDOF 7
ENDMDL