MODEL 2
REMARK VINA RESULT: -8.429055496      1.277      2.071
REMARK  6 active torsions:
REMARK  status: ('A' for Active; 'I' for Inactive)
REMARK    1  A    between atoms: C2_2  and  C3_3
REMARK    2  A    between atoms: C3_3  and  C4_4
REMARK    3  A    between atoms: C3_3  and  C6_6
REMARK    4  A    between atoms: C6_6  and  N1_8
REMARK    5  A    between atoms: N2_11  and  C10_12
REMARK    6  A    between atoms: C15_19  and  N4_20
ROOT
HETATM    1  N1  UNL     1      44.101  31.712  31.050  1.00  0.00     0.096 N
HETATM    2  C8  UNL     1      44.088  30.863  32.189  1.00  0.00     0.292 C
HETATM    3  C9  UNL     1      42.732  30.147  32.290  1.00  0.00     0.153 C
HETATM    4  N2  UNL     1      41.650  31.092  32.076  1.00  0.00    -0.376 N
HETATM    5  C18 UNL     1      41.968  32.500  32.042  1.00  0.00     0.153 C
HETATM    6  C19 UNL     1      43.104  32.695  31.011  1.00  0.00     0.292 C
ENDROOT
BRANCH   4   7
HETATM    7  C10 UNL     1      40.373  30.554  31.856  1.00  0.00     0.050 A
HETATM    8  C11 UNL     1      39.666  30.849  30.682  1.00  0.00     0.031 A
HETATM    9  C12 UNL     1      38.426  30.286  30.538  1.00  0.00     0.005 A
HETATM   10  C13 UNL     1      37.896  29.477  31.489  1.00  0.00     0.031 A
HETATM   11  C14 UNL     1      38.575  29.158  32.682  1.00  0.00     0.053 A
HETATM   12  N3  UNL     1      38.153  28.382  33.650  1.00  0.00    -0.336 N
HETATM   13  C17 UNL     1      39.822  29.724  32.823  1.00  0.00     0.061 A
HETATM   14  C15 UNL     1      38.933  28.178  34.708  1.00  0.00     0.145 A
ATOM     15  H3  UNL     1      37.236  27.939  33.593  1.00  0.00     0.168 HD
HETATM   16  S1  UNL     1      40.316  29.111  34.339  1.00  0.00    -0.050 SA
BRANCH  14  17
HETATM   17  N4  UNL     1      38.676  27.430  35.762  1.00  0.00    -0.375 N
HETATM   18  C16 UNL     1      37.425  26.701  35.788  1.00  0.00     0.148 C
ATOM     19  H4  UNL     1      39.338  27.367  36.536  1.00  0.00     0.161 HD
ENDBRANCH  14  17
ENDBRANCH   4   7
BRANCH   1  20
HETATM   20  C6  UNL     1      45.441  32.284  30.752  1.00  0.00     0.223 C
HETATM   21  C7  UNL     1      45.181  33.154  29.533  1.00  0.00     0.043 C
BRANCH  20  22
HETATM   22  C3  UNL     1      46.033  33.020  31.886  1.00  0.00     0.018 C
BRANCH  22  23
HETATM   23  C2  UNL     1      47.582  32.988  31.877  1.00  0.00     0.002 C
HETATM   24  C1  UNL     1      48.120  32.940  33.295  1.00  0.00     0.005 C
ENDBRANCH  22  23
BRANCH  22  25
HETATM   25  C4  UNL     1      45.714  34.429  32.165  1.00  0.00     0.002 C
HETATM   26  C5  UNL     1      44.847  34.798  33.304  1.00  0.00     0.005 C
ENDBRANCH  22  25
ENDBRANCH  20  22
ENDBRANCH   1  20
TORSDOF 6
ENDMDL