MODEL 1
REMARK VINA RESULT: -7.671718195      0.000      0.000
REMARK  7 active torsions:
REMARK  status: ('A' for Active; 'I' for Inactive)
REMARK    1  A    between atoms: C5_5  and  N1_6
REMARK    2  A    between atoms: N1_6  and  C6_8
REMARK    3  A    between atoms: C6_8  and  S2_10
REMARK    4  A    between atoms: S2_10  and  C7_11
REMARK    5  A    between atoms: C7_11  and  C8_12
REMARK    6  A    between atoms: C8_12  and  C9_13
REMARK    7  A    between atoms: C9_13  and  N2_14
ROOT
HETATM    1  N1  UNL     1      43.057  32.382  31.983  1.00  0.00    -0.366 N
ATOM      2  H1  UNL     1      42.733  32.872  32.817  1.00  0.00     0.161 HD
ENDROOT
BRANCH   1   3
HETATM    3  C5  UNL     1      44.339  32.775  31.451  1.00  0.00     0.032 C
HETATM    4  C4  UNL     1      44.348  32.655  29.943  1.00  0.00     0.032 C
HETATM    5  C3  UNL     1      45.703  33.005  29.379  1.00  0.00     0.012 C
HETATM    6  C2  UNL     1      46.758  33.322  30.361  1.00  0.00    -0.040 C
HETATM    7  C1  UNL     1      48.112  33.063  29.686  1.00  0.00     0.015 C
HETATM    8  C16 UNL     1      46.761  32.601  31.650  1.00  0.00    -0.004 C
HETATM    9  C18 UNL     1      46.637  34.816  30.687  1.00  0.00     0.014 C
HETATM   10  C15 UNL     1      46.821  33.697  32.715  1.00  0.00     0.010 C
HETATM   11  C17 UNL     1      45.426  31.884  31.944  1.00  0.00     0.036 C
HETATM   12  C14 UNL     1      45.898  34.711  32.029  1.00  0.00    -0.011 C
HETATM   13  C13 UNL     1      44.524  34.229  31.861  1.00  0.00     0.035 C
ENDBRANCH   1   3
BRANCH   1  14
HETATM   14  C6  UNL     1      42.225  31.397  31.466  1.00  0.00     0.135 C
HETATM   15  S1  UNL     1      42.397  29.793  31.665  1.00  0.00    -0.053 SA
BRANCH  14  16
HETATM   16  S2  UNL     1      40.779  31.871  30.472  1.00  0.00    -0.101 SA
BRANCH  16  17
HETATM   17  C7  UNL     1      39.757  30.400  30.225  1.00  0.00     0.083 C
BRANCH  17  18
HETATM   18  C8  UNL     1      38.436  30.608  30.904  1.00  0.00     0.031 C
BRANCH  18  19
HETATM   19  C9  UNL     1      37.905  29.368  31.553  1.00  0.00     0.130 C
BRANCH  19  20
HETATM   20  N2  UNL     1      38.712  29.035  32.705  1.00  0.00    -0.352 N
HETATM   21  C10 UNL     1      38.994  29.953  33.669  1.00  0.00     0.108 A
HETATM   22  C11 UNL     1      39.776  29.321  34.591  1.00  0.00     0.106 A
HETATM   23  N3  UNL     1      39.948  28.058  34.173  1.00  0.00    -0.361 N
HETATM   24  C12 UNL     1      39.302  27.869  33.021  1.00  0.00     0.182 A
ATOM     25  H3  UNL     1      40.492  27.347  34.663  1.00  0.00     0.166 HD
ENDBRANCH  19  20
ENDBRANCH  18  19
ENDBRANCH  17  18
ENDBRANCH  16  17
ENDBRANCH  14  16
ENDBRANCH   1  14
TORSDOF 7
ENDMDL