MODEL 1
REMARK VINA RESULT: -6.855681420      0.000      0.000
REMARK  5 active torsions:
REMARK  status: ('A' for Active; 'I' for Inactive)
REMARK    1  A    between atoms: C2_2  and  C4_4
REMARK    2  A    between atoms: C4_4  and  C5_5
REMARK    3  A    between atoms: N2_12  and  C9_13
REMARK    4  A    between atoms: C9_13  and  C10_14
REMARK    5  A    between atoms: C10_14  and  N3_15
ROOT
HETATM    1  C5  UNL     1      41.491  30.791  30.506  1.00  0.00     0.085 A
HETATM    2  N1  UNL     1      42.174  31.779  29.882  1.00  0.00    -0.348 N
ATOM      3  H1  UNL     1      41.750  32.257  29.086  1.00  0.00     0.167 HD
HETATM    4  C6  UNL     1      43.400  32.142  30.293  1.00  0.00     0.025 A
HETATM    5  C7  UNL     1      43.947  31.455  31.398  1.00  0.00     0.008 A
HETATM    6  C8  UNL     1      43.232  30.449  32.019  1.00  0.00     0.113 A
HETATM    7  S1  UNL     1      43.930  29.697  33.297  1.00  0.00    -0.059 SA
HETATM    8  N2  UNL     1      42.000  30.128  31.559  1.00  0.00    -0.325 N
HETATM    9  C15 UNL     1      45.257  32.118  31.538  1.00  0.00     0.033 C
HETATM   10  C16 UNL     1      45.702  32.182  30.070  1.00  0.00     0.022 C
HETATM   11  C17 UNL     1      44.467  33.092  29.963  1.00  0.00     0.045 C
HETATM   12  C18 UNL     1      44.878  33.579  31.339  1.00  0.00    -0.031 C
HETATM   13  C19 UNL     1      43.723  33.986  32.220  1.00  0.00     0.016 C
HETATM   14  C20 UNL     1      45.996  34.554  31.379  1.00  0.00     0.016 C
ENDROOT
BRANCH   8  15
HETATM   15  C9  UNL     1      41.286  29.062  32.238  1.00  0.00     0.161 C
BRANCH  15  16
HETATM   16  C10 UNL     1      40.689  29.494  33.555  1.00  0.00     0.292 C
BRANCH  16  17
HETATM   17  N3  UNL     1      39.458  28.808  33.763  1.00  0.00     0.090 N
HETATM   18  C11 UNL     1      39.297  27.586  33.051  1.00  0.00     0.272 C
HETATM   19  C12 UNL     1      39.314  26.526  34.124  1.00  0.00     0.032 C
HETATM   20  C13 UNL     1      38.579  27.217  35.266  1.00  0.00     0.032 C
HETATM   21  C14 UNL     1      39.189  28.612  35.150  1.00  0.00     0.272 C
ENDBRANCH  16  17
ENDBRANCH  15  16
ENDBRANCH   8  15
BRANCH   1  22
HETATM   22  C4  UNL     1      40.146  30.447  30.013  1.00  0.00     0.080 C
BRANCH  22  23
HETATM   23  C2  UNL     1      39.074  31.300  30.687  1.00  0.00    -0.016 C
HETATM   24  C1  UNL     1      38.634  32.428  29.801  1.00  0.00     0.010 C
HETATM   25  C3  UNL     1      37.898  30.414  30.985  1.00  0.00     0.010 C
ENDBRANCH  22  23
ENDBRANCH   1  22
TORSDOF 5
ENDMDL