MODEL 5
REMARK VINA RESULT: -7.151291793      2.172      3.129
REMARK  7 active torsions:
REMARK  status: ('A' for Active; 'I' for Inactive)
REMARK    1  A    between atoms: C4_4  and  C5_5
REMARK    2  A    between atoms: C6_6  and  C7_7
REMARK    3  A    between atoms: C7_7  and  N1_8
REMARK    4  A    between atoms: C9_12  and  N3_13
REMARK    5  A    between atoms: N3_13  and  C10_15
REMARK    6  A    between atoms: C10_15  and  C11_16
REMARK    7  A    between atoms: C11_16  and  N4_17
ROOT
HETATM    1  N1  UNL     1      18.212 -12.972  21.612  1.00  0.00    -0.343 N
HETATM    2  C8  UNL     1      17.539 -13.492  22.678  1.00  0.00     0.184 A
HETATM    3  N2  UNL     1      16.198 -13.418  22.732  1.00  0.00    -0.339 N
ATOM      4  H2  UNL     1      15.717 -13.816  23.539  1.00  0.00     0.168 HD
HETATM    5  C9  UNL     1      15.466 -12.841  21.763  1.00  0.00     0.103 A
HETATM    6  C14 UNL     1      16.153 -12.318  20.688  1.00  0.00     0.073 A
HETATM    7  C15 UNL     1      17.548 -12.380  20.606  1.00  0.00     0.012 A
HETATM    8  C16 UNL     1      18.256 -11.806  19.444  1.00  0.00     0.068 C
ENDROOT
BRANCH   1   9
HETATM    9  C7  UNL     1      19.657 -13.054  21.551  1.00  0.00     0.157 C
BRANCH   9  10
HETATM   10  C6  UNL     1      20.205 -13.885  22.652  1.00  0.00    -0.006 C
HETATM   11  C5  UNL     1      21.178 -13.485  23.438  1.00  0.00     0.012 C
BRANCH  11  12
HETATM   12  C4  UNL     1      21.671 -14.342  24.497  1.00  0.00    -0.001 A
HETATM   13  C3  UNL     1      22.350 -15.554  24.367  1.00  0.00     0.038 A
HETATM   14  C2  UNL     1      22.652 -16.068  25.608  1.00  0.00     0.007 A
HETATM   15  C1  UNL     1      23.376 -17.352  25.873  1.00  0.00     0.068 C
HETATM   16  N5  UNL     1      22.168 -15.189  26.505  1.00  0.00    -0.353 N
HETATM   17  C17 UNL     1      21.581 -14.157  25.869  1.00  0.00     0.090 A
ATOM     18  H5  UNL     1      22.236 -15.290  27.517  1.00  0.00     0.166 HD
HETATM   19 BR1  UNL     1      20.736 -12.636  26.687  1.00  0.00    -0.030 Br
ENDBRANCH  11  12
ENDBRANCH   9  10
ENDBRANCH   1   9
BRANCH   5  20
HETATM   20  N3  UNL     1      14.184 -12.755  21.783  1.00  0.00    -0.374 N
ATOM     21  H3  UNL     1      13.654 -13.605  21.976  1.00  0.00     0.161 HD
BRANCH  20  22
HETATM   22  C10 UNL     1      13.445 -11.549  21.554  1.00  0.00     0.151 C
BRANCH  22  23
HETATM   23  C11 UNL     1      12.077 -11.666  22.187  1.00  0.00     0.290 C
BRANCH  23  24
HETATM   24  N4  UNL     1      11.668 -10.320  22.593  1.00  0.00     0.081 N
HETATM   25  C12 UNL     1      11.183 -10.442  23.962  1.00  0.00     0.309 C
HETATM   26  C13 UNL     1      12.783  -9.403  22.534  1.00  0.00     0.309 C
ENDBRANCH  23  24
ENDBRANCH  22  23
ENDBRANCH  20  22
ENDBRANCH   5  20
TORSDOF 7
ENDMDL