MODEL 2
REMARK VINA RESULT: -6.138094477      2.596      3.818
REMARK  8 active torsions:
REMARK  status: ('A' for Active; 'I' for Inactive)
REMARK    1  A    between atoms: C2_2  and  C3_3
REMARK    2  A    between atoms: C3_3  and  C4_4
REMARK    3  A    between atoms: C4_4  and  C5_5
REMARK    4  A    between atoms: C6_6  and  C7_7
REMARK    5  A    between atoms: C7_7  and  C8_8
REMARK    6  A    between atoms: C8_8  and  C9_9
REMARK    7  A    between atoms: C11_12  and  S1_13
REMARK    8  A    between atoms: S1_13  and  N1_14
ROOT
HETATM    1  C5  UNL     1      17.925 -13.375  21.542  1.00  0.00    -0.002 A
HETATM    2  C6  UNL     1      17.681 -14.735  21.591  1.00  0.00    -0.026 A
HETATM    3  C10 UNL     1      16.417 -15.177  21.275  1.00  0.00     0.038 A
HETATM    4  C11 UNL     1      15.351 -14.378  20.906  1.00  0.00     0.093 A
HETATM    5  C12 UNL     1      15.604 -13.017  20.856  1.00  0.00     0.022 A
HETATM    6  C13 UNL     1      14.792 -11.964  20.525  1.00  0.00    -0.033 A
HETATM    7  C14 UNL     1      13.382 -11.961  20.111  1.00  0.00     0.050 C
HETATM    8  C15 UNL     1      15.599 -10.820  20.648  1.00  0.00     0.096 A
HETATM    9  N2  UNL     1      16.825 -11.189  21.031  1.00  0.00    -0.364 N
ATOM     10  H2  UNL     1      17.601 -10.548  21.193  1.00  0.00     0.165 HD
HETATM   11  C16 UNL     1      16.889 -12.529  21.176  1.00  0.00     0.055 A
ENDROOT
BRANCH   4  12
HETATM   12  S1  UNL     1      13.800 -15.025  20.558  1.00  0.00     0.257 S
HETATM   13  O1  UNL     1      13.389 -15.026  19.113  1.00  0.00    -0.201 OA
HETATM   14  O2  UNL     1      14.022 -16.568  20.702  1.00  0.00    -0.201 OA
BRANCH  12  15
HETATM   15  N1  UNL     1      12.565 -14.839  21.690  1.00  0.00    -0.324 N
ATOM     16  H12 UNL     1      12.693 -14.198  22.473  1.00  0.00     0.169 HD
ATOM     17  H11 UNL     1      11.703 -15.373  21.574  1.00  0.00     0.169 HD
ENDBRANCH  12  15
ENDBRANCH   4  12
BRANCH   2  18
HETATM   18  C7  UNL     1      18.558 -15.665  21.920  1.00  0.00    -0.014 C
BRANCH  18  19
HETATM   19  C8  UNL     1      18.394 -16.462  23.173  1.00  0.00     0.039 C
BRANCH  19  20
HETATM   20  C9  UNL     1      18.969 -15.738  24.364  1.00  0.00     0.089 C
HETATM   21 BR1  UNL     1      17.657 -14.731  25.327  1.00  0.00    -0.096 Br
ENDBRANCH  19  20
ENDBRANCH  18  19
ENDBRANCH   2  18
BRANCH   1  22
HETATM   22  C4  UNL     1      19.120 -12.946  21.842  1.00  0.00    -0.012 C
BRANCH  22  23
HETATM   23  C3  UNL     1      20.348 -12.856  21.053  1.00  0.00     0.028 C
BRANCH  23  24
HETATM   24  C2  UNL     1      20.381 -11.563  20.225  1.00  0.00    -0.001 C
HETATM   25  C1  UNL     1      20.017 -11.938  18.806  1.00  0.00     0.005 C
ENDBRANCH  23  24
ENDBRANCH  22  23
ENDBRANCH   1  22
TORSDOF 8
ENDMDL