MODEL 5
REMARK VINA RESULT: -7.103476485      3.613      7.102
REMARK  8 active torsions:
REMARK  status: ('A' for Active; 'I' for Inactive)
REMARK    1  A    between atoms: C3_5  and  N2_6
REMARK       I    between atoms: N2_6  and  C4_8
REMARK    2  A    between atoms: C4_8  and  C5_10
REMARK    3  A    between atoms: C5_10  and  C6_11
REMARK    4  A    between atoms: C6_11  and  C7_12
REMARK    5  A    between atoms: C7_12  and  N3_13
REMARK    6  A    between atoms: N3_13  and  C10_16
REMARK    7  A    between atoms: C10_16  and  C11_17
REMARK    8  A    between atoms: C11_17  and  C12_18
ROOT
HETATM    1  C12 UNL     1      17.295 -11.893  19.338  1.00  0.00    -0.092 C
HETATM    2  C13 UNL     1      16.419 -11.895  18.525  1.00  0.00    -0.024 C
HETATM    3 BR1  UNL     1      15.059 -11.898  17.221  1.00  0.00     0.010 Br
ENDROOT
BRANCH   1   4
HETATM    4  C11 UNL     1      18.385 -11.905  20.321  1.00  0.00     0.122 C
BRANCH   4   5
HETATM    5  C10 UNL     1      17.825 -12.424  21.621  1.00  0.00     0.248 C
BRANCH   5   6
HETATM    6  N3  UNL     1      18.305 -13.741  21.947  1.00  0.00    -0.074 N
HETATM    7  C8  UNL     1      19.617 -13.881  21.301  1.00  0.00     0.272 C
HETATM    8  C9  UNL     1      18.510 -13.948  23.351  1.00  0.00     0.272 C
BRANCH   6   9
HETATM    9  C7  UNL     1      17.420 -14.734  21.358  1.00  0.00     0.237 C
BRANCH   9  10
HETATM   10  C6  UNL     1      15.989 -14.440  21.648  1.00  0.00     0.037 C
BRANCH  10  11
HETATM   11  C5  UNL     1      15.034 -14.835  20.582  1.00  0.00     0.105 C
BRANCH  11  12
HETATM   12  C4  UNL     1      13.614 -14.712  20.909  1.00  0.00     0.235 C
HETATM   13  N2  UNL     1      12.877 -13.665  20.293  1.00  0.00    -0.159 N
ATOM     14  H2  UNL     1      12.427 -13.793  19.387  1.00  0.00     0.187 HD
HETATM   15  O1  UNL     1      12.985 -15.461  21.694  1.00  0.00    -0.273 OA
BRANCH  13  16
HETATM   16  C3  UNL     1      12.801 -12.531  20.936  1.00  0.00     0.688 A
HETATM   17  N1  UNL     1      12.017 -12.416  22.020  1.00  0.00    -0.195 N
HETATM   18  C2  UNL     1      11.893 -11.280  22.729  1.00  0.00     0.034 A
ATOM     19  H1  UNL     1      11.487 -13.233  22.323  1.00  0.00     0.184 HD
HETATM   20  C1  UNL     1      11.006 -11.252  23.906  1.00  0.00     0.069 C
HETATM   21  C15 UNL     1      12.588 -10.171  22.349  1.00  0.00     0.029 A
HETATM   22  C14 UNL     1      13.398 -10.268  21.238  1.00  0.00     0.267 A
HETATM   23  C16 UNL     1      12.488  -8.909  23.085  1.00  0.00     0.056 C
HETATM   24  N4  UNL     1      13.493 -11.442  20.552  1.00  0.00    -0.155 N
HETATM   25  O2  UNL     1      14.048  -9.263  20.870  1.00  0.00    -0.267 OA
ATOM     26  H4  UNL     1      14.098 -11.495  19.733  1.00  0.00     0.187 HD
ENDBRANCH  13  16
ENDBRANCH  11  12
ENDBRANCH  10  11
ENDBRANCH   9  10
ENDBRANCH   6   9
ENDBRANCH   5   6
ENDBRANCH   4   5
ENDBRANCH   1   4
TORSDOF 8
ENDMDL