MODEL 2
REMARK VINA RESULT: -6.884800453      2.867      4.919
REMARK  9 active torsions:
REMARK  status: ('A' for Active; 'I' for Inactive)
REMARK    1  A    between atoms: C2_2  and  C3_3
REMARK    2  A    between atoms: C3_3  and  C4_4
REMARK    3  A    between atoms: C5_5  and  C6_6
REMARK    4  A    between atoms: C6_6  and  C7_7
REMARK    5  A    between atoms: C7_7  and  C10_11
REMARK    6  A    between atoms: C8_8  and  C9_9
REMARK    7  A    between atoms: C10_11  and  N1_12
REMARK    8  A    between atoms: C12_15  and  C13_16
REMARK    9  A    between atoms: C17_23  and  O3_24
ROOT
HETATM    1  N1  UNL     1      14.517 -13.997  20.018  1.00  0.00    -0.312 N
HETATM    2  C11 UNL     1      13.273 -13.401  20.369  1.00  0.00     0.245 C
HETATM    3  O1  UNL     1      12.273 -13.457  19.617  1.00  0.00    -0.271 OA
HETATM    4  C12 UNL     1      13.128 -12.682  21.672  1.00  0.00     0.180 C
HETATM    5  N2  UNL     1      14.412 -12.222  22.154  1.00  0.00    -0.344 N
ATOM      6  H2  UNL     1      14.541 -11.282  22.529  1.00  0.00     0.163 HD
HETATM    7  C16 UNL     1      15.480 -13.148  22.077  1.00  0.00     0.267 C
HETATM    8  O2  UNL     1      16.526 -13.013  22.753  1.00  0.00    -0.269 OA
HETATM    9  C17 UNL     1      15.359 -14.312  21.173  1.00  0.00     0.317 C
ENDROOT
BRANCH   1  10
HETATM   10  C10 UNL     1      14.927 -14.255  18.687  1.00  0.00     0.163 C
BRANCH  10  11
HETATM   11  C7  UNL     1      15.296 -13.083  17.864  1.00  0.00    -0.054 C
HETATM   12  C8  UNL     1      15.292 -13.232  16.555  1.00  0.00    -0.011 C
BRANCH  11  13
HETATM   13  C6  UNL     1      15.658 -11.805  18.488  1.00  0.00     0.129 C
BRANCH  13  14
HETATM   14  C5  UNL     1      17.063 -11.853  18.984  1.00  0.00    -0.102 C
HETATM   15  C4  UNL     1      18.198 -11.885  19.389  1.00  0.00    -0.106 C
BRANCH  15  16
HETATM   16  C3  UNL     1      19.580 -11.944  19.861  1.00  0.00     0.093 C
BRANCH  16  17
HETATM   17  C2  UNL     1      19.841 -13.305  20.508  1.00  0.00     0.007 C
HETATM   18  C1  UNL     1      20.000 -13.103  22.002  1.00  0.00     0.006 C
ENDBRANCH  16  17
ENDBRANCH  15  16
ENDBRANCH  13  14
ENDBRANCH  11  13
BRANCH  12  19
HETATM   19  C9  UNL     1      15.633 -12.193  15.563  1.00  0.00     0.112 C
HETATM   20 BR1  UNL     1      15.936 -13.038  13.840  1.00  0.00    -0.092 Br
ENDBRANCH  12  19
ENDBRANCH  10  11
ENDBRANCH   1  10
BRANCH   9  21
HETATM   21  O3  UNL     1      16.607 -14.670  20.697  1.00  0.00    -0.368 OA
ATOM     22  H3  UNL     1      17.115 -14.989  21.432  1.00  0.00     0.212 HD
ENDBRANCH   9  21
BRANCH   4  23
HETATM   23  C13 UNL     1      12.185 -11.531  21.627  1.00  0.00     0.009 C
HETATM   24  C14 UNL     1      12.811 -10.214  21.275  1.00  0.00     0.012 C
HETATM   25  C15 UNL     1      11.420 -11.347  22.915  1.00  0.00     0.012 C
ENDBRANCH   4  23
TORSDOF 9
ENDMDL