MODEL 5
REMARK VINA RESULT: -7.605227489      1.423      1.730
REMARK  6 active torsions:
REMARK  status: ('A' for Active; 'I' for Inactive)
REMARK    1  A    between atoms: C2_2  and  C3_3
REMARK    2  A    between atoms: C3_3  and  C4_4
REMARK    3  A    between atoms: C4_4  and  C5_5
REMARK    4  A    between atoms: N3_11  and  C7_12
REMARK    5  A    between atoms: C7_12  and  C8_13
REMARK       I    between atoms: C8_13  and  N4_15
REMARK    6  A    between atoms: C9_17  and  C10_18
ROOT
HETATM    1  C8  UNL     1      13.330 -14.689  19.566  1.00  0.00     0.241 C
HETATM    2  O1  UNL     1      12.327 -15.061  18.916  1.00  0.00    -0.271 OA
HETATM    3  N4  UNL     1      13.208 -13.528  20.346  1.00  0.00    -0.335 N
ATOM      4  H4  UNL     1      12.792 -13.635  21.272  1.00  0.00     0.168 HD
HETATM    5  C9  UNL     1      13.566 -12.360  20.012  1.00  0.00     0.104 C
ENDROOT
BRANCH   1   6
HETATM    6  C7  UNL     1      14.582 -15.492  19.478  1.00  0.00     0.253 C
BRANCH   6   7
HETATM    7  N3  UNL     1      14.911 -15.975  20.800  1.00  0.00    -0.271 N
HETATM    8  C5  UNL     1      15.919 -15.618  21.596  1.00  0.00     0.099 A
HETATM    9  N1  UNL     1      15.827 -16.399  22.716  1.00  0.00    -0.340 N
HETATM   10  C6  UNL     1      14.777 -17.221  22.605  1.00  0.00     0.199 A
ATOM     11  H1  UNL     1      16.463 -16.361  23.514  1.00  0.00     0.168 HD
HETATM   12  N2  UNL     1      14.233 -16.938  21.418  1.00  0.00    -0.292 N
ATOM     13  H2  UNL     1      13.408 -17.399  21.037  1.00  0.00     0.188 HD
BRANCH   8  14
HETATM   14  C4  UNL     1      16.999 -14.646  21.425  1.00  0.00     0.078 C
BRANCH  14  15
HETATM   15  C3  UNL     1      16.932 -13.574  22.458  1.00  0.00     0.007 C
BRANCH  15  16
HETATM   16  C2  UNL     1      18.122 -13.571  23.358  1.00  0.00    -0.004 C
HETATM   17  C1  UNL     1      17.718 -14.148  24.710  1.00  0.00     0.005 C
ENDBRANCH  15  16
ENDBRANCH  14  15
ENDBRANCH   8  14
ENDBRANCH   6   7
ENDBRANCH   1   6
BRANCH   5  18
HETATM   18  C10 UNL     1      13.419 -11.194  20.856  1.00  0.00     0.009 A
HETATM   19  C11 UNL     1      14.124  -9.996  20.805  1.00  0.00     0.102 A
HETATM   20  N5  UNL     1      13.666  -9.185  21.771  1.00  0.00    -0.363 N
HETATM   21  C12 UNL     1      12.693  -9.786  22.460  1.00  0.00     0.063 A
ATOM     22  H5  UNL     1      14.013  -8.243  21.953  1.00  0.00     0.165 HD
HETATM   23  C13 UNL     1      12.526 -11.056  21.894  1.00  0.00     0.020 A
HETATM   24  C16 UNL     1      11.849  -9.427  23.576  1.00  0.00     0.053 A
HETATM   25  C14 UNL     1      11.497 -11.900  22.501  1.00  0.00     0.102 A
HETATM   26  N6  UNL     1      10.774 -11.519  23.499  1.00  0.00    -0.373 N
HETATM   27  C15 UNL     1      10.944 -10.236  24.071  1.00  0.00     0.109 A
ATOM     28  H6  UNL     1      10.070 -12.151  23.881  1.00  0.00     0.164 HD
HETATM   29 BR1  UNL     1      12.090  -7.688  24.339  1.00  0.00    -0.047 Br
ENDBRANCH   5  18
TORSDOF 6
ENDMDL