MODEL 5
REMARK VINA RESULT: -7.269275110      1.219      1.570
REMARK  9 active torsions:
REMARK  status: ('A' for Active; 'I' for Inactive)
REMARK    1  A    between atoms: C2_2  and  C3_3
REMARK    2  A    between atoms: C4_6  and  N2_7
REMARK    3  A    between atoms: N2_7  and  C5_9
REMARK    4  A    between atoms: C5_9  and  C6_10
REMARK    5  A    between atoms: C6_10  and  C7_11
REMARK    6  A    between atoms: C7_11  and  N3_12
REMARK    7  A    between atoms: N4_16  and  C12_18
REMARK    8  A    between atoms: C12_18  and  C15_21
REMARK    9  A    between atoms: C18_27  and  C19_28
ROOT
HETATM    1  C5  UNL     1      16.910 -11.556  19.182  1.00  0.00     0.140 C
ENDROOT
BRANCH   1   2
HETATM    2  N2  UNL     1      16.123 -10.731  20.015  1.00  0.00    -0.226 N
ATOM      3  H2  UNL     1      16.446  -9.794  20.258  1.00  0.00     0.177 HD
BRANCH   2   4
HETATM    4  C4  UNL     1      14.995 -11.164  20.466  1.00  0.00     0.679 A
HETATM    5  N1  UNL     1      14.356 -12.337  20.249  1.00  0.00    -0.190 N
HETATM    6  C3  UNL     1      13.198 -12.407  20.915  1.00  0.00     0.072 A
ATOM      7  H1  UNL     1      14.715 -13.080  19.650  1.00  0.00     0.184 HD
HETATM    8  C17 UNL     1      13.080 -11.221  21.601  1.00  0.00     0.072 A
HETATM    9  N5  UNL     1      14.162 -10.492  21.319  1.00  0.00    -0.190 N
HETATM   10  C18 UNL     1      12.048 -10.903  22.393  1.00  0.00     0.005 C
ATOM     11  H5  UNL     1      14.343  -9.559  21.689  1.00  0.00     0.184 HD
BRANCH   6  12
HETATM   12  C2  UNL     1      12.345 -13.423  20.903  1.00  0.00     0.001 C
HETATM   13  C1  UNL     1      12.791 -14.813  21.168  1.00  0.00     0.038 C
ENDBRANCH   6  12
BRANCH  10  14
HETATM   14  C19 UNL     1      12.088  -9.573  23.056  1.00  0.00     0.025 C
HETATM   15  C20 UNL     1      11.383  -9.555  24.373  1.00  0.00     0.009 C
ENDBRANCH  10  14
ENDBRANCH   2   4
ENDBRANCH   1   2
BRANCH   1  16
HETATM   16  C6  UNL     1      18.027 -12.302  19.854  1.00  0.00     0.050 C
BRANCH  16  17
HETATM   17  C7  UNL     1      18.402 -11.765  21.179  1.00  0.00     0.276 C
BRANCH  17  18
HETATM   18  N3  UNL     1      18.376 -12.672  22.272  1.00  0.00     0.114 N
HETATM   19  C8  UNL     1      17.070 -13.223  22.537  1.00  0.00     0.276 C
HETATM   20  C9  UNL     1      17.037 -14.712  22.475  1.00  0.00     0.058 C
HETATM   21  C10 UNL     1      18.126 -15.342  23.307  1.00  0.00     0.241 C
HETATM   22  N4  UNL     1      19.394 -14.687  23.189  1.00  0.00    -0.035 N
HETATM   23  C11 UNL     1      20.273 -15.693  22.539  1.00  0.00     0.275 C
HETATM   24  C16 UNL     1      19.419 -13.611  22.212  1.00  0.00     0.508 C
BRANCH  22  25
HETATM   25  C12 UNL     1      20.042 -14.404  24.425  1.00  0.00     0.136 C
HETATM   26  C13 UNL     1      19.128 -13.800  25.477  1.00  0.00     0.048 C
HETATM   27  C14 UNL     1      20.740 -15.568  25.087  1.00  0.00     0.048 C
BRANCH  25  28
HETATM   28  C15 UNL     1      21.182 -13.383  24.264  1.00  0.00     0.153 C
HETATM   29 CL1  UNL     1      20.869 -12.140  25.528  1.00  0.00    -0.128 Cl
ENDBRANCH  25  28
ENDBRANCH  22  25
ENDBRANCH  17  18
ENDBRANCH  16  17
ENDBRANCH   1  16
TORSDOF 9
ENDMDL