MODEL 3
REMARK VINA RESULT: -7.702570584      0.755      1.800
REMARK  8 active torsions:
REMARK  status: ('A' for Active; 'I' for Inactive)
REMARK    1  A    between atoms: C6_8  and  C7_9
REMARK    2  A    between atoms: C8_10  and  C9_11
REMARK    3  A    between atoms: C9_11  and  C10_12
REMARK    4  A    between atoms: C10_12  and  C11_13
REMARK    5  A    between atoms: C11_13  and  C12_14
REMARK    6  A    between atoms: C13_19  and  C14_20
REMARK    7  A    between atoms: C14_20  and  C15_21
REMARK    8  A    between atoms: C15_21  and  S1_22
ROOT
HETATM    1  C12 UNL     1      16.534 -11.475  20.089  1.00  0.00     0.067 A
HETATM    2  N2  UNL     1      15.988 -10.231  20.144  1.00  0.00    -0.299 N
ATOM      3  H2  UNL     1      16.391  -9.397  19.715  1.00  0.00     0.187 HD
HETATM    4  N3  UNL     1      14.876 -10.256  20.827  1.00  0.00    -0.303 N
ATOM      5  H3  UNL     1      14.282  -9.446  21.009  1.00  0.00     0.186 HD
HETATM    6  C13 UNL     1      14.630 -11.507  21.255  1.00  0.00     0.046 A
HETATM    7  C17 UNL     1      15.678 -12.271  20.788  1.00  0.00     0.063 A
HETATM    8 BR1  UNL     1      15.830 -14.130  21.108  1.00  0.00    -0.046 Br
ENDROOT
BRANCH   1   9
HETATM    9  C11 UNL     1      17.757 -11.889  19.437  1.00  0.00     0.032 C
BRANCH   9  10
HETATM   10  C10 UNL     1      18.908 -11.809  20.131  1.00  0.00     0.002 C
BRANCH  10  11
HETATM   11  C9  UNL     1      19.765 -12.965  20.277  1.00  0.00     0.000 C
BRANCH  11  12
HETATM   12  C8  UNL     1      19.997 -13.532  21.441  1.00  0.00     0.001 C
HETATM   13  C7  UNL     1      19.798 -12.893  22.716  1.00  0.00     0.014 C
BRANCH  13  14
HETATM   14  C6  UNL     1      19.994 -13.357  23.919  1.00  0.00    -0.003 A
HETATM   15  C2  UNL     1      18.957 -13.883  24.710  1.00  0.00     0.033 A
HETATM   16  C1  UNL     1      17.673 -14.017  24.448  1.00  0.00     0.044 C
HETATM   17  N1  UNL     1      19.507 -14.262  25.872  1.00  0.00    -0.365 N
HETATM   18  C3  UNL     1      20.804 -14.015  25.871  1.00  0.00     0.096 A
ATOM     19  H1  UNL     1      18.995 -14.682  26.648  1.00  0.00     0.165 HD
HETATM   20  C4  UNL     1      21.145 -13.440  24.645  1.00  0.00    -0.034 A
HETATM   21  C5  UNL     1      22.550 -13.040  24.320  1.00  0.00     0.050 C
ENDBRANCH  13  14
ENDBRANCH  11  12
ENDBRANCH  10  11
ENDBRANCH   9  10
ENDBRANCH   1   9
BRANCH   6  22
HETATM   22  C14 UNL     1      13.473 -11.891  22.046  1.00  0.00     0.072 C
BRANCH  22  23
HETATM   23  C15 UNL     1      12.174 -11.302  21.611  1.00  0.00     0.114 C
BRANCH  23  24
HETATM   24  S1  UNL     1      11.817  -9.928  22.682  1.00  0.00     0.011 S
HETATM   25  C16 UNL     1      11.180 -10.514  24.238  1.00  0.00     0.127 C
HETATM   26  O1  UNL     1      13.136  -8.960  22.949  1.00  0.00    -0.258 OA
ENDBRANCH  23  24
ENDBRANCH  22  23
ENDBRANCH   6  22
TORSDOF 8
ENDMDL