MODEL 2
REMARK VINA RESULT: -6.629867087      1.447      1.803
REMARK  7 active torsions:
REMARK  status: ('A' for Active; 'I' for Inactive)
REMARK    1  A    between atoms: N1_2  and  C4_5
REMARK    2  A    between atoms: C4_5  and  C5_6
REMARK       I    between atoms: C5_6  and  N2_8
REMARK    3  A    between atoms: C8_12  and  C9_13
REMARK    4  A    between atoms: C9_13  and  C10_14
REMARK    5  A    between atoms: C11_15  and  S1_16
REMARK    6  A    between atoms: S1_16  and  C12_17
REMARK    7  A    between atoms: C13_18  and  C14_19
ROOT
HETATM    1  C14 UNL     1      11.766 -10.248  23.203  1.00  0.00    -0.066 C
HETATM    2  C15 UNL     1      11.896  -9.171  23.742  1.00  0.00    -0.019 C
HETATM    3 BR1  UNL     1      12.072  -7.481  24.578  1.00  0.00     0.011 Br
ENDROOT
BRANCH   1   4
HETATM    4  C13 UNL     1      11.612 -11.529  22.578  1.00  0.00     0.072 C
HETATM    5  C12 UNL     1      12.452 -11.898  21.613  1.00  0.00     0.058 C
BRANCH   5   6
HETATM    6  S1  UNL     1      13.772 -10.818  21.086  1.00  0.00    -0.113 SA
BRANCH   6   7
HETATM    7  C11 UNL     1      15.045 -11.719  20.232  1.00  0.00     0.046 C
HETATM    8  C10 UNL     1      16.276 -11.259  20.214  1.00  0.00    -0.013 C
BRANCH   8   9
HETATM    9  C9  UNL     1      17.394 -11.958  19.519  1.00  0.00     0.086 C
BRANCH   9  10
HETATM   10  C8  UNL     1      18.426 -12.380  20.506  1.00  0.00     0.033 A
HETATM   11  C7  UNL     1      18.303 -12.490  21.887  1.00  0.00     0.076 A
HETATM   12  C6  UNL     1      19.499 -12.912  22.409  1.00  0.00     0.124 A
HETATM   13  N2  UNL     1      19.742 -13.119  23.644  1.00  0.00    -0.311 N
HETATM   14  N4  UNL     1      20.328 -13.054  21.370  1.00  0.00    -0.285 N
HETATM   15  C5  UNL     1      20.955 -13.548  24.185  1.00  0.00     0.249 C
ATOM     16  H2  UNL     1      18.977 -12.955  24.298  1.00  0.00     0.170 HD
HETATM   17  O1  UNL     1      21.640 -12.752  24.870  1.00  0.00    -0.271 OA
HETATM   18  N3  UNL     1      19.697 -12.740  20.239  1.00  0.00    -0.303 N
ATOM     19  H4  UNL     1      21.299 -13.358  21.433  1.00  0.00     0.188 HD
ATOM     20  H3  UNL     1      20.113 -12.767  19.309  1.00  0.00     0.186 HD
BRANCH  15  21
HETATM   21  C4  UNL     1      21.480 -14.919  23.985  1.00  0.00     0.338 C
BRANCH  21  22
HETATM   22  N1  UNL     1      21.089 -15.803  25.052  1.00  0.00    -0.070 N
HETATM   23  C1  UNL     1      21.827 -15.605  26.265  1.00  0.00     0.272 C
HETATM   24  C2  UNL     1      21.273 -17.170  24.546  1.00  0.00     0.272 C
HETATM   25  C3  UNL     1      19.673 -15.669  25.339  1.00  0.00     0.272 C
ENDBRANCH  21  22
ENDBRANCH  15  21
ENDBRANCH   9  10
ENDBRANCH   8   9
ENDBRANCH   6   7
ENDBRANCH   5   6
ENDBRANCH   1   4
TORSDOF 7
ENDMDL