MODEL 5
REMARK VINA RESULT: -6.321000841      5.087      7.161
REMARK  7 active torsions:
REMARK  status: ('A' for Active; 'I' for Inactive)
REMARK    1  A    between atoms: C2_2  and  C3_3
REMARK    2  A    between atoms: C3_3  and  N1_4
REMARK    3  A    between atoms: C6_10  and  C7_11
REMARK    4  A    between atoms: N4_21  and  C13_22
REMARK    5  A    between atoms: C13_22  and  C14_23
REMARK    6  A    between atoms: C14_23  and  C15_24
REMARK    7  A    between atoms: C15_24  and  C16_25
ROOT
HETATM    1  N1  UNL     1      20.619 -14.158  24.488  1.00  0.00    -0.223 N
ATOM      2  H1  UNL     1      20.800 -15.015  25.011  1.00  0.00     0.178 HD
HETATM    3  C4  UNL     1      19.571 -14.152  23.755  1.00  0.00     0.673 C
HETATM    4  N2  UNL     1      19.162 -13.042  22.959  1.00  0.00    -0.219 N
ATOM      5  H2  UNL     1      19.572 -12.115  23.075  1.00  0.00     0.178 HD
HETATM    6  C5  UNL     1      18.146 -13.301  21.987  1.00  0.00     0.138 C
HETATM    7  C6  UNL     1      17.403 -12.091  21.510  1.00  0.00     0.113 C
HETATM    8  C8  UNL     1      15.964 -12.521  21.544  1.00  0.00     0.225 C
HETATM    9  O1  UNL     1      14.961 -11.770  21.302  1.00  0.00    -0.273 OA
HETATM   10  N3  UNL     1      15.948 -13.921  21.899  1.00  0.00    -0.352 N
ATOM     11  H3  UNL     1      15.278 -14.631  21.605  1.00  0.00     0.163 HD
HETATM   12  C9  UNL     1      17.074 -14.086  22.746  1.00  0.00     0.136 C
HETATM   13  C10 UNL     1      17.619 -15.484  22.878  1.00  0.00     0.065 C
HETATM   14  C11 UNL     1      18.013 -15.982  21.506  1.00  0.00     0.041 C
HETATM   15  C12 UNL     1      16.561 -16.416  23.424  1.00  0.00     0.041 C
HETATM   16  N4  UNL     1      18.770 -15.357  23.745  1.00  0.00    -0.207 N
ENDROOT
BRANCH   1  17
HETATM   17  C3  UNL     1      21.564 -13.104  24.658  1.00  0.00     0.164 C
BRANCH  17  18
HETATM   18  C2  UNL     1      21.115 -12.144  25.694  1.00  0.00    -0.017 C
HETATM   19  C1  UNL     1      20.708 -12.564  26.862  1.00  0.00     0.008 C
ENDBRANCH  17  18
ENDBRANCH   1  17
BRANCH  16  20
HETATM   20  C13 UNL     1      19.142 -16.432  24.608  1.00  0.00     0.142 C
BRANCH  20  21
HETATM   21  C14 UNL     1      20.058 -17.457  23.983  1.00  0.00     0.020 C
BRANCH  21  22
HETATM   22  C15 UNL     1      21.195 -17.643  24.964  1.00  0.00     0.001 C
BRANCH  22  23
HETATM   23  C16 UNL     1      20.874 -17.193  26.351  1.00  0.00    -0.004 C
HETATM   24  C17 UNL     1      22.137 -16.495  26.874  1.00  0.00     0.005 C
ENDBRANCH  22  23
ENDBRANCH  21  22
ENDBRANCH  20  21
ENDBRANCH  16  20
BRANCH   7  25
HETATM   25  C7  UNL     1      17.734 -11.914  20.019  1.00  0.00     0.101 C
HETATM   26 BR1  UNL     1      19.634 -12.061  19.724  1.00  0.00    -0.096 Br
ENDBRANCH   7  25
TORSDOF 7
ENDMDL