MODEL 5
REMARK VINA RESULT: -6.339105807      2.552      6.410
REMARK  8 active torsions:
REMARK  status: ('A' for Active; 'I' for Inactive)
REMARK    1  A    between atoms: C3_3  and  C4_4
REMARK    2  A    between atoms: C7_9  and  N2_10
REMARK    3  A    between atoms: N2_10  and  C8_12
REMARK    4  A    between atoms: C8_12  and  C9_13
REMARK    5  A    between atoms: C9_13  and  C10_15
REMARK    6  A    between atoms: C10_15  and  N3_16
REMARK    7  A    between atoms: C14_22  and  N5_23
REMARK    8  A    between atoms: N5_23  and  C15_25
ROOT
HETATM    1  C1  UNL     1      21.523 -13.017  23.939  1.00  0.00     0.012 C
HETATM    2  C2  UNL     1      20.932 -13.421  22.967  1.00  0.00    -0.113 C
HETATM    3  C3  UNL     1      20.224 -13.938  21.773  1.00  0.00     0.137 C
ENDROOT
BRANCH   3   4
HETATM    4  C4  UNL     1      19.037 -13.136  21.484  1.00  0.00     0.020 A
HETATM    5  C5  UNL     1      19.060 -12.127  20.548  1.00  0.00     0.033 A
HETATM    6  C6  UNL     1      20.301 -11.795  19.776  1.00  0.00     0.069 C
HETATM    7  N1  UNL     1      17.923 -11.445  20.353  1.00  0.00    -0.195 N
HETATM    8  C7  UNL     1      16.786 -11.702  21.018  1.00  0.00     0.679 A
ATOM      9  H1  UNL     1      17.922 -10.693  19.664  1.00  0.00     0.184 HD
HETATM   10  N4  UNL     1      16.753 -12.686  21.933  1.00  0.00    -0.176 N
HETATM   11  C14 UNL     1      17.861 -13.406  22.176  1.00  0.00     0.126 A
ATOM     12  H4  UNL     1      15.892 -12.885  22.442  1.00  0.00     0.186 HD
BRANCH   8  13
HETATM   13  N2  UNL     1      15.709 -11.037  20.811  1.00  0.00    -0.225 N
ATOM     14  H2  UNL     1      15.633 -10.511  19.942  1.00  0.00     0.177 HD
BRANCH  13  15
HETATM   15  C8  UNL     1      14.596 -10.987  21.733  1.00  0.00     0.155 C
BRANCH  15  16
HETATM   16  C9  UNL     1      13.443 -11.693  21.010  1.00  0.00     0.102 C
HETATM   17 BR1  UNL     1      11.826 -11.036  21.864  1.00  0.00    -0.088 Br
BRANCH  16  18
HETATM   18  C10 UNL     1      13.596 -13.183  21.240  1.00  0.00     0.253 C
BRANCH  18  19
HETATM   19  N3  UNL     1      13.650 -13.911  19.994  1.00  0.00    -0.077 N
HETATM   20  C11 UNL     1      14.677 -14.955  20.039  1.00  0.00     0.271 C
HETATM   21  C12 UNL     1      12.406 -14.570  19.684  1.00  0.00     0.271 C
HETATM   22  C13 UNL     1      13.994 -13.051  18.878  1.00  0.00     0.271 C
ENDBRANCH  18  19
ENDBRANCH  16  18
ENDBRANCH  15  16
ENDBRANCH  13  15
ENDBRANCH   8  13
BRANCH  11  23
HETATM   23  N5  UNL     1      17.799 -14.344  23.061  1.00  0.00    -0.371 N
ATOM     24  H5  UNL     1      17.993 -15.310  22.796  1.00  0.00     0.161 HD
BRANCH  23  25
HETATM   25  C15 UNL     1      17.455 -14.022  24.425  1.00  0.00     0.083 A
HETATM   26  C16 UNL     1      18.546 -14.267  25.488  1.00  0.00     0.027 A
HETATM   27  C17 UNL     1      17.376 -15.212  25.408  1.00  0.00     0.027 A
ENDBRANCH  23  25
ENDBRANCH  11  23
ENDBRANCH   3   4
TORSDOF 8
ENDMDL