MODEL 1
REMARK VINA RESULT: -8.370708166      0.000      0.000
REMARK  12 active torsions:
REMARK  status: ('A' for Active; 'I' for Inactive)
REMARK    1  A    between atoms: C2_2  and  C3_3
REMARK    2  A    between atoms: N1_4  and  C4_6
REMARK    3  A    between atoms: C6_8  and  N2_9
REMARK    4  A    between atoms: N2_9  and  C7_11
REMARK    5  A    between atoms: C7_11  and  C8_12
REMARK    6  A    between atoms: C8_12  and  O1_13
REMARK    7  A    between atoms: C10_16  and  O2_17
REMARK    8  A    between atoms: N3_19  and  C11_20
REMARK    9  A    between atoms: C11_20  and  C12_21
REMARK   10  A    between atoms: C12_21  and  C13_22
REMARK   11  A    between atoms: C19_28  and  O3_29
REMARK   12  A    between atoms: C21_32  and  O4_33
ROOT
HETATM    1  C4  UNL     1      18.795  52.674  36.031  1.00  0.00     0.068 A
HETATM    2  C5  UNL     1      18.095  51.677  36.660  1.00  0.00     0.062 A
HETATM    3  C6  UNL     1      17.021  51.945  37.519  1.00  0.00     0.046 A
HETATM    4  C9  UNL     1      16.657  53.257  37.740  1.00  0.00     0.059 A
HETATM    5  C10 UNL     1      15.699  53.897  38.484  1.00  0.00     0.158 A
HETATM    6  N3  UNL     1      15.768  55.227  38.349  1.00  0.00    -0.307 N
HETATM    7  C19 UNL     1      16.784  55.470  37.508  1.00  0.00     0.158 A
HETATM    8  C20 UNL     1      17.354  54.282  37.112  1.00  0.00     0.067 A
HETATM    9  C21 UNL     1      18.413  53.972  36.266  1.00  0.00     0.108 A
ENDROOT
BRANCH   6  10
HETATM   10  C11 UNL     1      14.896  56.215  39.003  1.00  0.00     0.133 C
BRANCH  10  11
HETATM   11  C12 UNL     1      13.920  56.704  37.963  1.00  0.00     0.025 C
BRANCH  11  12
HETATM   12  C13 UNL     1      14.035  58.159  37.673  1.00  0.00    -0.013 C
HETATM   13  C14 UNL     1      14.262  58.906  38.947  1.00  0.00     0.005 C
HETATM   14  C15 UNL     1      13.007  59.102  39.760  1.00  0.00     0.000 C
HETATM   15  C16 UNL     1      12.063  59.956  38.900  1.00  0.00     0.000 C
HETATM   16  C17 UNL     1      11.688  59.054  37.719  1.00  0.00     0.000 C
HETATM   17  C18 UNL     1      12.900  58.736  36.905  1.00  0.00     0.005 C
ENDBRANCH  11  12
ENDBRANCH  10  11
ENDBRANCH   6  10
BRANCH   5  18
HETATM   18  O2  UNL     1      14.765  53.266  39.282  1.00  0.00    -0.345 OA
ATOM     19  H2  UNL     1      13.879  53.576  39.432  1.00  0.00     0.219 HD
ENDBRANCH   5  18
BRANCH   7  20
HETATM   20  O3  UNL     1      17.218  56.715  37.081  1.00  0.00    -0.345 OA
ATOM     21  H3  UNL     1      17.539  56.934  36.214  1.00  0.00     0.219 HD
ENDBRANCH   7  20
BRANCH   3  22
HETATM   22  N2  UNL     1      16.337  50.885  38.138  1.00  0.00    -0.387 N
ATOM     23  H2  UNL     1      15.386  50.669  37.839  1.00  0.00     0.159 HD
BRANCH  22  24
HETATM   24  C7  UNL     1      16.944  50.086  39.195  1.00  0.00     0.146 C
BRANCH  24  25
HETATM   25  C8  UNL     1      17.108  50.894  40.444  1.00  0.00     0.183 C
BRANCH  25  26
HETATM   26  O1  UNL     1      15.849  50.926  41.078  1.00  0.00    -0.399 OA
ATOM     27  H1  UNL     1      15.195  50.957  40.390  1.00  0.00     0.209 HD
ENDBRANCH  25  26
ENDBRANCH  24  25
ENDBRANCH  22  24
ENDBRANCH   3  22
BRANCH   9  28
HETATM   28  O4  UNL     1      19.111  54.986  35.638  1.00  0.00    -0.357 OA
ATOM     29  H4  UNL     1      18.930  55.883  35.893  1.00  0.00     0.217 HD
ENDBRANCH   9  28
BRANCH   1  30
HETATM   30  N1  UNL     1      19.856  52.379  35.184  1.00  0.00    -0.367 N
HETATM   31  C3  UNL     1      20.290  51.210  34.890  1.00  0.00     0.061 C
ATOM     32  H1  UNL     1      20.335  53.170  34.754  1.00  0.00     0.165 HD
BRANCH  31  33
HETATM   33  C2  UNL     1      21.458  51.145  33.944  1.00  0.00     0.040 C
HETATM   34  C1  UNL     1      21.555  49.777  33.304  1.00  0.00     0.010 C
ENDBRANCH  31  33
ENDBRANCH   1  30
TORSDOF 12
ENDMDL