MODEL 5
REMARK VINA RESULT: -8.632851874      2.563      4.133
REMARK  14 active torsions:
REMARK  status: ('A' for Active; 'I' for Inactive)
REMARK    1  A    between atoms: C2_2  and  C9_17
REMARK    2  A    between atoms: C3_3  and  C4_4
REMARK    3  A    between atoms: C4_4  and  O1_5
REMARK    4  A    between atoms: C5_7  and  C6_8
REMARK    5  A    between atoms: C6_8  and  C7_9
REMARK    6  A    between atoms: C7_9  and  N1_10
REMARK    7  A    between atoms: C7_9  and  C8_13
REMARK    8  A    between atoms: C9_17  and  C10_18
REMARK    9  A    between atoms: C10_18  and  C11_19
REMARK   10  A    between atoms: C12_20  and  C14_22
REMARK   11  A    between atoms: C16_24  and  O2_25
REMARK   12  A    between atoms: C17_27  and  O3_28
REMARK   13  A    between atoms: C18_30  and  C19_31
REMARK   14  A    between atoms: C20_34  and  O6_35
ROOT
HETATM    1  C10 UNL     1      14.785  54.182  40.164  1.00  0.00     0.032 C
ENDROOT
BRANCH   1   2
HETATM    2  C9  UNL     1      15.405  55.415  40.710  1.00  0.00     0.037 C
BRANCH   2   3
HETATM    3  C2  UNL     1      14.523  56.619  40.539  1.00  0.00    -0.081 C
HETATM    4  C1  UNL     1      13.754  56.935  41.798  1.00  0.00     0.043 C
HETATM    5  C3  UNL     1      14.486  57.262  39.433  1.00  0.00     0.038 C
BRANCH   5   6
HETATM    6  C4  UNL     1      13.801  58.430  38.920  1.00  0.00     0.066 C
HETATM    7  C5  UNL     1      12.987  58.486  37.772  1.00  0.00     0.039 C
BRANCH   6   8
HETATM    8  O1  UNL     1      13.961  59.528  39.600  1.00  0.00    -0.361 OA
ATOM      9  H1  UNL     1      13.190  59.856  40.047  1.00  0.00     0.217 HD
ENDBRANCH   6   8
BRANCH   7  10
HETATM   10  C6  UNL     1      12.336  59.468  37.232  1.00  0.00     0.033 C
BRANCH  10  11
HETATM   11  C7  UNL     1      11.032  60.014  37.411  1.00  0.00     0.040 C
BRANCH  11  12
HETATM   12  N1  UNL     1      10.157  60.262  36.533  1.00  0.00    -0.398 N
ATOM     13  H12 UNL     1      10.138  59.585  35.771  1.00  0.00     0.156 HD
ATOM     14  H11 UNL     1       9.492  61.034  36.501  1.00  0.00     0.156 HD
ENDBRANCH  11  12
BRANCH  11  15
HETATM   15  C8  UNL     1      10.600  60.354  38.804  1.00  0.00     0.109 C
HETATM   16  N2  UNL     1      11.257  61.135  39.532  1.00  0.00    -0.406 N
ATOM     17  H22 UNL     1      12.110  61.543  39.148  1.00  0.00     0.155 HD
ATOM     18  H21 UNL     1      10.963  61.366  40.480  1.00  0.00     0.155 HD
ENDBRANCH  11  15
ENDBRANCH  10  11
ENDBRANCH   7  10
ENDBRANCH   5   6
ENDBRANCH   2   3
ENDBRANCH   1   2
BRANCH   1  19
HETATM   19  C11 UNL     1      15.642  53.552  39.119  1.00  0.00    -0.019 C
HETATM   20  C12 UNL     1      16.214  52.390  39.280  1.00  0.00    -0.053 C
HETATM   21  C13 UNL     1      16.022  51.636  40.539  1.00  0.00     0.049 C
BRANCH  20  22
HETATM   22  C14 UNL     1      17.042  51.806  38.204  1.00  0.00     0.007 A
HETATM   23  C15 UNL     1      16.451  50.978  37.289  1.00  0.00     0.054 A
HETATM   24  C16 UNL     1      17.152  50.426  36.240  1.00  0.00     0.100 A
HETATM   25  C17 UNL     1      18.527  50.725  36.107  1.00  0.00     0.118 A
HETATM   26  C18 UNL     1      19.159  51.551  37.003  1.00  0.00     0.110 A
HETATM   27  C20 UNL     1      18.391  52.092  38.061  1.00  0.00     0.096 A
BRANCH  24  28
HETATM   28  O2  UNL     1      16.589  49.591  35.303  1.00  0.00    -0.358 OA
ATOM     29  H2  UNL     1      16.959  48.752  35.056  1.00  0.00     0.217 HD
ENDBRANCH  24  28
BRANCH  25  30
HETATM   30  O3  UNL     1      19.158  50.140  35.042  1.00  0.00    -0.357 OA
ATOM     31  H3  UNL     1      19.585  50.739  34.440  1.00  0.00     0.218 HD
ENDBRANCH  25  30
BRANCH  26  32
HETATM   32  C19 UNL     1      20.567  51.888  36.910  1.00  0.00     0.215 C
HETATM   33  O4  UNL     1      20.975  52.396  35.813  1.00  0.00    -0.644 OA
HETATM   34  O5  UNL     1      21.468  51.694  37.912  1.00  0.00    -0.644 OA
ENDBRANCH  26  32
BRANCH  27  35
HETATM   35  O6  UNL     1      18.997  52.882  38.912  1.00  0.00    -0.359 OA
ATOM     36  H6  UNL     1      18.901  53.826  38.848  1.00  0.00     0.217 HD
ENDBRANCH  27  35
ENDBRANCH  20  22
ENDBRANCH   1  19
TORSDOF 14
ENDMDL