MODEL 4
REMARK VINA RESULT: -7.969216795      1.265      1.622
REMARK  10 active torsions:
REMARK  status: ('A' for Active; 'I' for Inactive)
REMARK    1  A    between atoms: C2_2  and  C3_3
REMARK    2  A    between atoms: C3_3  and  C4_4
REMARK    3  A    between atoms: C5_5  and  C6_6
REMARK    4  A    between atoms: C6_6  and  N1_7
REMARK    5  A    between atoms: C7_8  and  O1_9
REMARK    6  A    between atoms: C8_11  and  N2_12
REMARK    7  A    between atoms: N2_12  and  C9_14
REMARK    8  A    between atoms: C9_14  and  C11_16
REMARK    9  A    between atoms: C16_21  and  N3_22
REMARK   10  A    between atoms: C17_27  and  N5_28
ROOT
HETATM    1  N1  UNL     1      14.973  56.865  37.588  1.00  0.00    -0.316 N
HETATM    2  C7  UNL     1      14.561  56.676  38.815  1.00  0.00     0.171 A
HETATM    3  C8  UNL     1      15.194  55.514  39.289  1.00  0.00     0.094 A
HETATM    4  C14 UNL     1      16.026  54.984  38.300  1.00  0.00     0.046 A
HETATM    5  C15 UNL     1      16.887  53.960  38.071  1.00  0.00     0.058 A
HETATM    6  C16 UNL     1      17.306  52.913  38.911  1.00  0.00     0.128 A
HETATM    7  N4  UNL     1      18.193  51.996  38.481  1.00  0.00    -0.176 N
ATOM      8  H4  UNL     1      18.466  51.255  39.126  1.00  0.00     0.186 HD
HETATM    9  C17 UNL     1      18.728  51.998  37.278  1.00  0.00     0.678 A
HETATM   10  N6  UNL     1      18.369  52.968  36.437  1.00  0.00    -0.185 N
ATOM     11  H6  UNL     1      18.762  53.005  35.496  1.00  0.00     0.185 HD
HETATM   12  C18 UNL     1      17.481  53.900  36.842  1.00  0.00     0.107 A
HETATM   13  S1  UNL     1      16.845  55.260  36.031  1.00  0.00    -0.052 SA
HETATM   14  C19 UNL     1      15.847  55.865  37.263  1.00  0.00     0.094 A
ENDROOT
BRANCH   3  15
HETATM   15  N2  UNL     1      14.917  55.087  40.615  1.00  0.00    -0.381 N
ATOM     16  H2  UNL     1      15.633  55.135  41.339  1.00  0.00     0.160 HD
BRANCH  15  17
HETATM   17  C9  UNL     1      13.596  54.581  40.912  1.00  0.00     0.081 C
HETATM   18  C10 UNL     1      13.552  53.105  40.770  1.00  0.00     0.032 C
BRANCH  17  19
HETATM   19  C11 UNL     1      13.266  54.946  42.358  1.00  0.00    -0.000 C
HETATM   20  C12 UNL     1      13.569  56.401  42.613  1.00  0.00     0.011 C
HETATM   21  C13 UNL     1      11.789  54.713  42.543  1.00  0.00     0.011 C
ENDBRANCH  17  19
ENDBRANCH  15  17
ENDBRANCH   3  15
BRANCH   2  22
HETATM   22  O1  UNL     1      13.670  57.407  39.609  1.00  0.00    -0.344 OA
ATOM     23  H1  UNL     1      12.981  58.016  39.374  1.00  0.00     0.219 HD
ENDBRANCH   2  22
BRANCH   1  24
HETATM   24  C6  UNL     1      14.594  57.966  36.699  1.00  0.00     0.159 C
BRANCH  24  25
HETATM   25  C5  UNL     1      13.162  58.213  36.590  1.00  0.00    -0.007 C
HETATM   26  C4  UNL     1      12.484  59.461  36.858  1.00  0.00    -0.006 C
BRANCH  26  27
HETATM   27  C3  UNL     1      12.218  60.049  38.163  1.00  0.00    -0.027 C
BRANCH  27  28
HETATM   28  C2  UNL     1      10.941  60.410  38.753  1.00  0.00     0.022 C
HETATM   29  C1  UNL     1       9.698  60.340  37.961  1.00  0.00     0.009 C
ENDBRANCH  27  28
ENDBRANCH  26  27
ENDBRANCH  24  25
ENDBRANCH   1  24
BRANCH   6  30
HETATM   30  N3  UNL     1      16.904  52.787  40.114  1.00  0.00    -0.384 N
ATOM     31  H32 UNL     1      17.535  53.127  40.840  1.00  0.00     0.157 HD
ATOM     32  H31 UNL     1      15.995  52.392  40.356  1.00  0.00     0.157 HD
ENDBRANCH   6  30
BRANCH   9  33
HETATM   33  N5  UNL     1      19.572  51.074  36.954  1.00  0.00    -0.234 N
ATOM     34  H52 UNL     1      19.920  50.390  37.625  1.00  0.00     0.174 HD
ATOM     35  H51 UNL     1      19.910  51.016  35.993  1.00  0.00     0.174 HD
ENDBRANCH   9  33
TORSDOF 10
ENDMDL