MODEL 3
REMARK VINA RESULT: -8.389864271      4.185      8.300
REMARK  12 active torsions:
REMARK  status: ('A' for Active; 'I' for Inactive)
REMARK    1  A    between atoms: C2_2  and  C3_3
REMARK    2  A    between atoms: C3_3  and  C4_4
REMARK    3  A    between atoms: C4_4  and  C5_5
REMARK    4  A    between atoms: C5_5  and  C6_6
REMARK    5  A    between atoms: C6_6  and  N1_7
REMARK    6  A    between atoms: N1_7  and  C7_9
REMARK    7  A    between atoms: C8_10  and  N2_11
REMARK    8  A    between atoms: C9_13  and  C10_14
REMARK    9  A    between atoms: C12_16  and  O2_17
REMARK   10  A    between atoms: C13_19  and  O3_20
REMARK   11  A    between atoms: C14_22  and  O4_23
REMARK   12  A    between atoms: C15_25  and  O5_26
ROOT
HETATM    1  C7  UNL     1      17.582  53.439  37.976  1.00  0.00     0.091 A
HETATM    2  C8  UNL     1      18.061  52.194  38.328  1.00  0.00     0.125 A
HETATM    3  C14 UNL     1      17.404  51.405  39.295  1.00  0.00     0.131 A
HETATM    4  C15 UNL     1      16.267  51.860  39.911  1.00  0.00     0.114 A
HETATM    5  C16 UNL     1      15.780  53.093  39.571  1.00  0.00     0.036 A
HETATM    6  C17 UNL     1      14.686  53.759  40.035  1.00  0.00    -0.031 A
HETATM    7  C18 UNL     1      13.714  53.292  41.059  1.00  0.00     0.050 C
HETATM    8  C19 UNL     1      14.642  54.948  39.382  1.00  0.00     0.096 A
HETATM    9  N3  UNL     1      15.698  54.977  38.545  1.00  0.00    -0.363 N
ATOM     10  H3  UNL     1      15.908  55.762  37.929  1.00  0.00     0.165 HD
HETATM   11  C20 UNL     1      16.438  53.873  38.609  1.00  0.00     0.075 A
ENDROOT
BRANCH   2  12
HETATM   12  N2  UNL     1      19.204  51.658  37.721  1.00  0.00    -0.221 N
HETATM   13  O1  UNL     1      20.534  51.844  37.948  1.00  0.00    -0.267 OA
HETATM   14  C9  UNL     1      21.128  51.977  36.700  1.00  0.00     0.185 C
HETATM   15  C12 UNL     1      20.329  51.143  35.728  1.00  0.00     0.200 C
HETATM   16  C13 UNL     1      19.167  50.714  36.594  1.00  0.00     0.279 C
BRANCH  14  17
HETATM   17  C10 UNL     1      22.583  51.605  36.709  1.00  0.00     0.033 C
HETATM   18  C11 UNL     1      23.165  52.042  38.034  1.00  0.00     0.007 C
ENDBRANCH  14  17
BRANCH  15  19
HETATM   19  O2  UNL     1      21.076  50.051  35.273  1.00  0.00    -0.388 OA
ATOM     20  H2  UNL     1      22.007  50.208  35.383  1.00  0.00     0.210 HD
ENDBRANCH  15  19
BRANCH  16  21
HETATM   21  O3  UNL     1      17.967  50.629  35.961  1.00  0.00    -0.372 OA
ATOM     22  H3  UNL     1      17.960  50.066  35.195  1.00  0.00     0.212 HD
ENDBRANCH  16  21
ENDBRANCH   2  12
BRANCH   1  23
HETATM   23  N1  UNL     1      18.279  54.200  37.034  1.00  0.00    -0.366 N
ATOM     24  H1  UNL     1      18.250  53.820  36.087  1.00  0.00     0.165 HD
BRANCH  23  25
HETATM   25  C6  UNL     1      19.016  55.396  37.150  1.00  0.00     0.061 C
BRANCH  25  26
HETATM   26  C5  UNL     1      18.849  56.449  36.116  1.00  0.00     0.044 C
BRANCH  26  27
HETATM   27  C4  UNL     1      17.443  56.545  35.555  1.00  0.00     0.005 C
BRANCH  27  28
HETATM   28  C3  UNL     1      16.543  57.355  36.472  1.00  0.00     0.000 C
BRANCH  28  29
HETATM   29  C2  UNL     1      15.140  57.283  35.896  1.00  0.00    -0.005 C
HETATM   30  C1  UNL     1      14.102  57.792  36.850  1.00  0.00     0.005 C
ENDBRANCH  28  29
ENDBRANCH  27  28
ENDBRANCH  26  27
ENDBRANCH  25  26
ENDBRANCH  23  25
ENDBRANCH   1  23
BRANCH   3  31
HETATM   31  O4  UNL     1      17.917  50.159  39.624  1.00  0.00    -0.356 OA
ATOM     32  H4  UNL     1      18.857  50.047  39.712  1.00  0.00     0.218 HD
ENDBRANCH   3  31
BRANCH   4  33
HETATM   33  O5  UNL     1      15.612  51.100  40.859  1.00  0.00    -0.357 OA
ATOM     34  H5  UNL     1      14.899  50.519  40.619  1.00  0.00     0.217 HD
ENDBRANCH   4  33
TORSDOF 12
ENDMDL