MODEL 5
REMARK VINA RESULT: -7.389785759      1.122      2.477
REMARK  15 active torsions:
REMARK  status: ('A' for Active; 'I' for Inactive)
REMARK    1  A    between atoms: C2_2  and  C5_5
REMARK    2  A    between atoms: C6_6  and  O1_7
REMARK    3  A    between atoms: C7_9  and  O2_10
REMARK    4  A    between atoms: C8_12  and  C9_13
REMARK    5  A    between atoms: C10_14  and  C11_15
REMARK    6  A    between atoms: C11_15  and  C12_16
REMARK    7  A    between atoms: C12_16  and  C13_17
REMARK    8  A    between atoms: C13_17  and  C14_18
REMARK    9  A    between atoms: C14_18  and  C15_19
REMARK   10  A    between atoms: C15_19  and  C16_20
REMARK   11  A    between atoms: C16_20  and  O3_26
REMARK   12  A    between atoms: N1_21  and  N2_23
REMARK   13  A    between atoms: O3_26  and  C17_27
REMARK   14  A    between atoms: C20_31  and  O4_32
REMARK   15  A    between atoms: C21_34  and  O5_35
ROOT
HETATM    1  C17 UNL     1      19.451  54.281  37.424  1.00  0.00     0.154 C
HETATM    2  C18 UNL     1      18.772  55.409  37.542  1.00  0.00     0.118 C
HETATM    3  C19 UNL     1      18.249  56.019  36.357  1.00  0.00     0.089 C
HETATM    4  N3  UNL     1      17.828  56.533  35.385  1.00  0.00    -0.192 NA
ENDROOT
BRANCH   1   5
HETATM    5  O3  UNL     1      19.668  53.680  36.219  1.00  0.00    -0.308 OA
BRANCH   5   6
HETATM    6  C16 UNL     1      19.053  52.568  35.757  1.00  0.00     0.137 C
HETATM    7  N1  UNL     1      19.715  51.760  34.968  1.00  0.00    -0.290 N
ATOM      8  H1  UNL     1      19.221  50.931  34.639  1.00  0.00     0.188 HD
BRANCH   6   9
HETATM    9  C15 UNL     1      17.630  52.188  36.098  1.00  0.00     0.086 C
BRANCH   9  10
HETATM   10  C14 UNL     1      17.575  50.914  36.839  1.00  0.00     0.008 C
BRANCH  10  11
HETATM   11  C13 UNL     1      18.054  50.817  38.227  1.00  0.00     0.001 C
BRANCH  11  12
HETATM   12  C12 UNL     1      17.618  51.762  39.273  1.00  0.00     0.004 C
BRANCH  12  13
HETATM   13  C11 UNL     1      16.380  51.517  40.039  1.00  0.00     0.027 C
BRANCH  13  14
HETATM   14  C10 UNL     1      15.399  52.611  39.555  1.00  0.00    -0.026 C
HETATM   15  C9  UNL     1      15.882  53.778  39.358  1.00  0.00     0.013 C
BRANCH  15  16
HETATM   16  C8  UNL     1      15.185  54.958  38.913  1.00  0.00     0.035 A
HETATM   17  C7  UNL     1      14.854  55.946  39.884  1.00  0.00     0.112 A
HETATM   18  C6  UNL     1      14.181  57.079  39.515  1.00  0.00     0.109 A
HETATM   19  C5  UNL     1      13.798  57.309  38.202  1.00  0.00     0.021 A
HETATM   20  C21 UNL     1      14.122  56.350  37.278  1.00  0.00     0.109 A
HETATM   21  C20 UNL     1      14.804  55.188  37.610  1.00  0.00     0.112 A
BRANCH  17  22
HETATM   22  O2  UNL     1      15.238  55.705  41.172  1.00  0.00    -0.357 OA
ATOM     23  H2  UNL     1      16.039  55.244  41.390  1.00  0.00     0.217 HD
ENDBRANCH  17  22
BRANCH  18  24
HETATM   24  O1  UNL     1      13.877  58.025  40.502  1.00  0.00    -0.357 OA
ATOM     25  H1  UNL     1      14.565  58.582  40.848  1.00  0.00     0.217 HD
ENDBRANCH  18  24
BRANCH  19  26
HETATM   26  C2  UNL     1      13.080  58.523  37.899  1.00  0.00    -0.018 C
HETATM   27  C1  UNL     1      13.404  59.621  38.934  1.00  0.00     0.019 C
HETATM   28  C3  UNL     1      13.603  59.060  36.558  1.00  0.00     0.019 C
HETATM   29  C4  UNL     1      11.605  58.480  37.790  1.00  0.00     0.019 C
ENDBRANCH  19  26
BRANCH  20  30
HETATM   30  O5  UNL     1      13.737  56.595  35.995  1.00  0.00    -0.357 OA
ATOM     31  H5  UNL     1      13.943  55.921  35.358  1.00  0.00     0.217 HD
ENDBRANCH  20  30
BRANCH  21  32
HETATM   32  O4  UNL     1      15.095  54.270  36.632  1.00  0.00    -0.357 OA
ATOM     33  H4  UNL     1      15.859  53.711  36.712  1.00  0.00     0.217 HD
ENDBRANCH  21  32
ENDBRANCH  15  16
ENDBRANCH  13  14
ENDBRANCH  12  13
ENDBRANCH  11  12
ENDBRANCH  10  11
ENDBRANCH   9  10
ENDBRANCH   6   9
BRANCH   7  34
HETATM   34  N2  UNL     1      21.009  51.920  34.539  1.00  0.00    -0.343 N
ATOM     35  H22 UNL     1      21.504  52.727  34.919  1.00  0.00     0.176 HD
ATOM     36  H21 UNL     1      21.509  51.315  33.888  1.00  0.00     0.176 HD
ENDBRANCH   7  34
ENDBRANCH   5   6
ENDBRANCH   1   5
TORSDOF 15
ENDMDL