MODEL 1
REMARK VINA RESULT: -8.627191945      0.000      0.000
REMARK  12 active torsions:
REMARK  status: ('A' for Active; 'I' for Inactive)
REMARK    1  A    between atoms: C3_3  and  O1_4
REMARK    2  A    between atoms: C6_8  and  O2_9
REMARK    3  A    between atoms: C7_11  and  S1_12
REMARK    4  A    between atoms: S1_12  and  C8_13
REMARK    5  A    between atoms: C8_13  and  C9_14
REMARK    6  A    between atoms: C10_15  and  C11_16
REMARK    7  A    between atoms: C11_16  and  C12_17
REMARK    8  A    between atoms: C12_17  and  C13_18
REMARK    9  A    between atoms: C13_18  and  C14_19
REMARK   10  A    between atoms: C14_19  and  C15_20
REMARK   11  A    between atoms: C15_20  and  N2_24
REMARK   12  A    between atoms: N2_24  and  N3_26
ROOT
HETATM    1  C1  UNL     1      19.830  53.992  38.437  1.00  0.00     0.052 C
HETATM    2  C2  UNL     1      18.396  54.385  38.188  1.00  0.00    -0.009 A
HETATM    3  C3  UNL     1      18.121  55.476  37.392  1.00  0.00     0.081 A
HETATM    4  C4  UNL     1      16.832  55.910  37.123  1.00  0.00     0.005 A
HETATM    5  C5  UNL     1      15.762  55.230  37.668  1.00  0.00     0.072 A
HETATM    6  C6  UNL     1      16.032  54.149  38.456  1.00  0.00     0.110 A
HETATM    7  C7  UNL     1      17.332  53.702  38.733  1.00  0.00     0.045 A
HETATM    8  N4  UNL     1      14.430  55.678  37.394  1.00  0.00    -0.379 N
ATOM      9  H4  UNL     1      13.639  55.035  37.395  1.00  0.00     0.160 HD
HETATM   10  C16 UNL     1      14.258  57.109  37.112  1.00  0.00     0.023 C
HETATM   11  C17 UNL     1      12.859  57.400  36.660  1.00  0.00     0.038 C
HETATM   12  C18 UNL     1      14.502  57.920  38.375  1.00  0.00     0.038 C
HETATM   13  C19 UNL     1      15.218  57.463  36.030  1.00  0.00     0.035 C
HETATM   14  C20 UNL     1      16.638  57.091  36.260  1.00  0.00     0.046 C
ENDROOT
BRANCH   7  15
HETATM   15  S1  UNL     1      17.610  52.294  39.754  1.00  0.00    -0.123 SA
BRANCH  15  16
HETATM   16  C8  UNL     1      17.271  50.784  38.859  1.00  0.00     0.106 C
BRANCH  16  17
HETATM   17  C9  UNL     1      17.542  50.844  37.416  1.00  0.00    -0.020 C
HETATM   18  C10 UNL     1      18.783  50.942  36.984  1.00  0.00    -0.030 C
BRANCH  18  19
HETATM   19  C11 UNL     1      19.173  51.009  35.556  1.00  0.00     0.027 C
BRANCH  19  20
HETATM   20  C12 UNL     1      20.474  51.752  35.363  1.00  0.00     0.004 C
BRANCH  20  21
HETATM   21  C13 UNL     1      21.630  50.860  35.063  1.00  0.00     0.008 C
BRANCH  21  22
HETATM   22  C14 UNL     1      21.945  50.702  33.608  1.00  0.00     0.077 C
BRANCH  22  23
HETATM   23  C15 UNL     1      21.517  49.395  33.072  1.00  0.00     0.088 C
HETATM   24  N1  UNL     1      22.311  48.723  32.319  1.00  0.00    -0.388 N
ATOM     25  H12 UNL     1      23.232  49.104  32.100  1.00  0.00     0.157 HD
ATOM     26  H11 UNL     1      22.016  47.819  31.949  1.00  0.00     0.157 HD
BRANCH  23  27
HETATM   27  N2  UNL     1      20.239  48.865  33.375  1.00  0.00    -0.296 N
ATOM     28  H2  UNL     1      19.573  49.430  33.901  1.00  0.00     0.187 HD
BRANCH  27  29
HETATM   29  N3  UNL     1      19.877  47.581  32.965  1.00  0.00    -0.344 N
ATOM     30  H32 UNL     1      19.230  47.485  32.183  1.00  0.00     0.176 HD
ATOM     31  H31 UNL     1      20.248  46.755  33.435  1.00  0.00     0.176 HD
ENDBRANCH  27  29
ENDBRANCH  23  27
ENDBRANCH  22  23
ENDBRANCH  21  22
ENDBRANCH  20  21
ENDBRANCH  19  20
ENDBRANCH  18  19
ENDBRANCH  16  17
ENDBRANCH  15  16
ENDBRANCH   7  15
BRANCH   6  32
HETATM   32  O2  UNL     1      14.931  53.472  39.000  1.00  0.00    -0.357 OA
ATOM     33  H2  UNL     1      15.017  52.532  39.110  1.00  0.00     0.217 HD
ENDBRANCH   6  32
BRANCH   3  34
HETATM   34  O1  UNL     1      19.208  56.172  36.834  1.00  0.00    -0.359 OA
ATOM     35  H1  UNL     1      19.021  56.833  36.177  1.00  0.00     0.217 HD
ENDBRANCH   3  34
TORSDOF 12
ENDMDL