MODEL 3
REMARK VINA RESULT: -8.785887031      2.044      2.586
REMARK  11 active torsions:
REMARK  status: ('A' for Active; 'I' for Inactive)
REMARK    1  A    between atoms: C2_2  and  C3_3
REMARK    2  A    between atoms: C4_4  and  N1_5
REMARK    3  A    between atoms: C5_10  and  O3_11
REMARK    4  A    between atoms: C6_13  and  N3_14
REMARK    5  A    between atoms: N3_14  and  C7_16
REMARK    6  A    between atoms: C7_16  and  C8_17
REMARK    7  A    between atoms: C9_18  and  O4_19
REMARK    8  A    between atoms: C10_21  and  O5_22
REMARK    9  A    between atoms: C13_26  and  O6_27
REMARK   10  A    between atoms: C14_29  and  C15_30
REMARK   11  A    between atoms: C15_30  and  C16_31
ROOT
HETATM    1  C8  UNL     1      15.129  54.695  38.431  1.00  0.00     0.005 A
HETATM    2  C9  UNL     1      15.056  55.027  37.079  1.00  0.00     0.108 A
HETATM    3  C10 UNL     1      14.719  56.294  36.658  1.00  0.00     0.108 A
HETATM    4  C11 UNL     1      14.450  57.286  37.564  1.00  0.00     0.008 A
HETATM    5  C12 UNL     1      14.140  58.665  37.083  1.00  0.00     0.054 C
HETATM    6  C13 UNL     1      14.517  56.972  38.909  1.00  0.00     0.081 A
HETATM    7  C14 UNL     1      14.856  55.664  39.343  1.00  0.00    -0.010 A
ENDROOT
BRANCH   1   8
HETATM    8  C7  UNL     1      15.299  53.262  38.665  1.00  0.00     0.162 C
BRANCH   8   9
HETATM    9  N3  UNL     1      16.408  52.822  39.489  1.00  0.00    -0.381 N
ATOM     10  H3  UNL     1      16.444  52.937  40.502  1.00  0.00     0.160 HD
BRANCH   9  11
HETATM   11  C6  UNL     1      17.476  52.190  38.699  1.00  0.00     0.093 A
HETATM   12  C3  UNL     1      18.665  52.797  38.245  1.00  0.00     0.041 A
HETATM   13  C4  UNL     1      19.361  51.802  37.663  1.00  0.00     0.188 A
HETATM   14  N2  UNL     1      18.649  50.604  37.740  1.00  0.00    -0.316 N
HETATM   15  C5  UNL     1      17.502  50.877  38.381  1.00  0.00     0.170 A
ATOM     16  H2  UNL     1      18.944  49.697  37.379  1.00  0.00     0.169 HD
BRANCH  12  17
HETATM   17  C2  UNL     1      18.837  54.209  38.560  1.00  0.00    -0.013 C
HETATM   18  C1  UNL     1      18.804  55.263  37.545  1.00  0.00     0.037 C
ENDBRANCH  12  17
BRANCH  13  19
HETATM   19  N1  UNL     1      20.597  51.832  37.000  1.00  0.00    -0.097 N
HETATM   20  O1  UNL     1      21.583  51.281  37.572  1.00  0.00    -0.530 OA
HETATM   21  O2  UNL     1      20.864  52.380  35.813  1.00  0.00    -0.530 OA
ENDBRANCH  13  19
BRANCH  15  22
HETATM   22  O3  UNL     1      16.517  49.896  38.661  1.00  0.00    -0.344 OA
ATOM     23  H3  UNL     1      15.762  49.744  38.106  1.00  0.00     0.219 HD
ENDBRANCH  15  22
ENDBRANCH   9  11
ENDBRANCH   8   9
ENDBRANCH   1   8
BRANCH   2  24
HETATM   24  O4  UNL     1      15.341  54.085  36.082  1.00  0.00    -0.357 OA
ATOM     25  H4  UNL     1      15.417  54.339  35.170  1.00  0.00     0.217 HD
ENDBRANCH   2  24
BRANCH   7  26
HETATM   26  C15 UNL     1      14.876  55.412  40.814  1.00  0.00     0.069 C
BRANCH  26  27
HETATM   27  C16 UNL     1      13.625  54.823  41.343  1.00  0.00    -0.020 C
HETATM   28  C17 UNL     1      12.862  55.363  42.243  1.00  0.00    -0.091 C
HETATM   29  C18 UNL     1      11.637  54.662  42.678  1.00  0.00     0.042 C
HETATM   30  C19 UNL     1      13.110  56.717  42.794  1.00  0.00     0.042 C
ENDBRANCH  26  27
ENDBRANCH   7  26
BRANCH   3  31
HETATM   31  O5  UNL     1      14.650  56.574  35.299  1.00  0.00    -0.357 OA
ATOM     32  H5  UNL     1      14.322  57.416  35.007  1.00  0.00     0.217 HD
ENDBRANCH   3  31
BRANCH   6  33
HETATM   33  O6  UNL     1      14.269  57.896  39.820  1.00  0.00    -0.359 OA
ATOM     34  H6  UNL     1      14.598  57.795  40.704  1.00  0.00     0.217 HD
ENDBRANCH   6  33
TORSDOF 11
ENDMDL