MODEL 3
REMARK VINA RESULT: -9.152732810      2.461      3.159
REMARK  12 active torsions:
REMARK  status: ('A' for Active; 'I' for Inactive)
REMARK    1  A    between atoms: C3_4  and  O2_5
REMARK    2  A    between atoms: C6_9  and  N1_10
REMARK    3  A    between atoms: N1_10  and  C7_12
REMARK    4  A    between atoms: C8_13  and  O3_14
REMARK    5  A    between atoms: C10_17  and  C11_18
REMARK    6  A    between atoms: C12_19  and  C13_20
REMARK    7  A    between atoms: C14_21  and  C15_22
REMARK    8  A    between atoms: C16_23  and  C17_24
REMARK    9  A    between atoms: C17_24  and  C18_25
REMARK   10  A    between atoms: C18_25  and  C19_26
REMARK   11  A    between atoms: C20_29  and  O6_30
REMARK   12  A    between atoms: C21_32  and  O7_33
ROOT
HETATM    1  C7  UNL     1      19.431  51.669  36.931  1.00  0.00     0.102 A
HETATM    2  C8  UNL     1      19.941  52.797  37.585  1.00  0.00     0.096 A
HETATM    3  C9  UNL     1      19.040  53.779  37.936  1.00  0.00     0.053 A
HETATM    4  C10 UNL     1      17.684  53.688  37.667  1.00  0.00     0.003 A
HETATM    5  C20 UNL     1      17.185  52.579  37.022  1.00  0.00     0.111 A
HETATM    6  C21 UNL     1      18.088  51.581  36.664  1.00  0.00     0.129 A
ENDROOT
BRANCH   1   7
HETATM    7  N1  UNL     1      20.378  50.658  36.619  1.00  0.00    -0.349 N
ATOM      8  H1  UNL     1      20.395  49.861  37.255  1.00  0.00     0.166 HD
BRANCH   7   9
HETATM    9  C6  UNL     1      21.290  50.605  35.562  1.00  0.00     0.073 A
HETATM   10  C2  UNL     1      22.655  50.817  35.513  1.00  0.00     0.079 A
HETATM   11  C1  UNL     1      23.574  51.116  36.642  1.00  0.00     0.079 C
HETATM   12  O1  UNL     1      23.071  50.715  34.270  1.00  0.00    -0.290 OA
HETATM   13  C3  UNL     1      22.108  50.451  33.445  1.00  0.00     0.191 A
HETATM   14  C4  UNL     1      20.964  50.373  34.215  1.00  0.00     0.025 A
HETATM   15  C5  UNL     1      19.647  50.109  33.602  1.00  0.00     0.056 C
BRANCH  13  16
HETATM   16  O2  UNL     1      22.217  50.281  32.051  1.00  0.00    -0.340 OA
ATOM     17  H2  UNL     1      22.330  50.966  31.402  1.00  0.00     0.220 HD
ENDBRANCH  13  16
ENDBRANCH   7   9
ENDBRANCH   1   7
BRANCH   2  18
HETATM   18  O3  UNL     1      21.300  52.939  37.870  1.00  0.00    -0.358 OA
ATOM     19  H3  UNL     1      21.778  53.736  37.671  1.00  0.00     0.217 HD
ENDBRANCH   2  18
BRANCH   6  20
HETATM   20  O7  UNL     1      17.556  50.490  36.025  1.00  0.00    -0.356 OA
ATOM     21  H7  UNL     1      16.911  50.587  35.335  1.00  0.00     0.218 HD
ENDBRANCH   6  20
BRANCH   5  22
HETATM   22  O6  UNL     1      15.849  52.399  36.709  1.00  0.00    -0.357 OA
ATOM     23  H6  UNL     1      15.483  51.585  36.385  1.00  0.00     0.217 HD
ENDBRANCH   5  22
BRANCH   4  24
HETATM   24  C11 UNL     1      16.778  54.747  38.060  1.00  0.00     0.014 C
HETATM   25  C12 UNL     1      16.408  55.751  37.253  1.00  0.00     0.001 C
BRANCH  25  26
HETATM   26  C13 UNL     1      15.495  56.747  37.778  1.00  0.00     0.000 C
HETATM   27  C14 UNL     1      15.117  56.663  39.054  1.00  0.00    -0.000 C
BRANCH  27  28
HETATM   28  C15 UNL     1      14.216  57.636  39.593  1.00  0.00    -0.004 C
HETATM   29  C16 UNL     1      13.874  57.676  40.843  1.00  0.00    -0.026 C
BRANCH  29  30
HETATM   30  C17 UNL     1      14.347  56.753  41.869  1.00  0.00     0.037 C
BRANCH  30  31
HETATM   31  C18 UNL     1      13.132  56.236  42.659  1.00  0.00     0.117 C
BRANCH  31  32
HETATM   32  C19 UNL     1      12.746  54.937  42.090  1.00  0.00     0.172 C
HETATM   33  O4  UNL     1      13.461  54.371  41.226  1.00  0.00    -0.648 OA
HETATM   34  O5  UNL     1      11.549  54.348  42.544  1.00  0.00    -0.648 OA
ENDBRANCH  31  32
ENDBRANCH  30  31
ENDBRANCH  29  30
ENDBRANCH  27  28
ENDBRANCH  25  26
ENDBRANCH   4  24
TORSDOF 12
ENDMDL