MODEL 3
REMARK VINA RESULT: -8.220625879      2.688      6.228
REMARK  9 active torsions:
REMARK  status: ('A' for Active; 'I' for Inactive)
REMARK    1  A    between atoms: O1_2  and  C2_3
REMARK    2  A    between atoms: C5_6  and  N1_7
REMARK    3  A    between atoms: N1_7  and  C6_9
REMARK    4  A    between atoms: C6_9  and  C7_10
REMARK       I    between atoms: N2_11  and  C8_13
REMARK    5  A    between atoms: C10_19  and  O2_20
REMARK    6  A    between atoms: C11_22  and  N5_23
REMARK    7  A    between atoms: C12_25  and  C13_26
REMARK    8  A    between atoms: C13_26  and  C14_27
REMARK    9  A    between atoms: C18_31  and  O3_32
ROOT
HETATM    1  C2  UNL     1      26.874  50.606  38.778  1.00  0.00     0.081 A
HETATM    2  C3  UNL     1      27.664  49.596  38.301  1.00  0.00     0.040 A
HETATM    3  C4  UNL     1      27.337  48.882  37.174  1.00  0.00     0.033 A
HETATM    4  C5  UNL     1      26.152  49.205  36.493  1.00  0.00     0.042 A
HETATM    5  C9  UNL     1      25.323  50.229  36.953  1.00  0.00     0.041 A
HETATM    6  C10 UNL     1      24.143  50.580  36.313  1.00  0.00     0.108 A
HETATM    7  C11 UNL     1      23.335  51.609  36.802  1.00  0.00     0.101 A
HETATM    8  C18 UNL     1      23.718  52.283  37.936  1.00  0.00     0.120 A
HETATM    9  C19 UNL     1      24.886  51.936  38.568  1.00  0.00     0.095 A
HETATM   10  N6  UNL     1      25.300  52.621  39.744  1.00  0.00    -0.098 NA
HETATM   11  C20 UNL     1      25.706  50.915  38.099  1.00  0.00     0.040 A
ENDROOT
BRANCH   4  12
HETATM   12  N1  UNL     1      25.841  48.459  35.349  1.00  0.00    -0.384 N
ATOM     13  H1  UNL     1      24.885  48.397  35.000  1.00  0.00     0.160 HD
BRANCH  12  14
HETATM   14  C6  UNL     1      26.954  47.765  34.670  1.00  0.00     0.164 C
BRANCH  14  15
HETATM   15  C7  UNL     1      26.530  46.388  34.385  1.00  0.00     0.083 C
HETATM   16  N2  UNL     1      26.058  46.091  33.239  1.00  0.00    -0.343 N
HETATM   17  C8  UNL     1      25.651  44.772  32.967  1.00  0.00     0.185 C
ATOM     18  H2  UNL     1      25.974  46.809  32.520  1.00  0.00     0.167 HD
HETATM   19  N3  UNL     1      26.288  43.782  33.465  1.00  0.00    -0.374 N
HETATM   20  N4  UNL     1      24.533  44.545  32.138  1.00  0.00    -0.064 NA
ATOM     21  H32 UNL     1      27.097  43.947  34.065  1.00  0.00     0.158 HD
ATOM     22  H31 UNL     1      25.993  42.826  33.267  1.00  0.00     0.158 HD
ENDBRANCH  14  15
ENDBRANCH  12  14
ENDBRANCH   4  12
BRANCH   6  23
HETATM   23  O2  UNL     1      23.726  49.939  35.188  1.00  0.00    -0.357 OA
ATOM     24  H2  UNL     1      22.981  50.249  34.686  1.00  0.00     0.217 HD
ENDBRANCH   6  23
BRANCH   1  25
HETATM   25  O1  UNL     1      27.188  51.325  39.901  1.00  0.00    -0.355 OA
HETATM   26  C1  UNL     1      28.052  50.841  40.880  1.00  0.00     0.210 C
ENDBRANCH   1  25
BRANCH   7  27
HETATM   27  N5  UNL     1      22.120  51.979  36.151  1.00  0.00    -0.365 N
HETATM   28  C12 UNL     1      20.970  51.530  36.497  1.00  0.00     0.065 C
ATOM     29  H5  UNL     1      22.169  52.633  35.371  1.00  0.00     0.165 HD
BRANCH  28  30
HETATM   30  C13 UNL     1      19.773  51.981  35.751  1.00  0.00     0.072 C
BRANCH  30  31
HETATM   31  C14 UNL     1      18.820  50.843  35.672  1.00  0.00    -0.020 C
HETATM   32  C15 UNL     1      17.644  50.907  36.272  1.00  0.00    -0.091 C
HETATM   33  C16 UNL     1      16.692  49.760  36.189  1.00  0.00     0.042 C
HETATM   34  C17 UNL     1      17.298  52.147  37.030  1.00  0.00     0.042 C
ENDBRANCH  30  31
ENDBRANCH  28  30
ENDBRANCH   7  27
BRANCH   8  35
HETATM   35  O3  UNL     1      22.983  53.327  38.511  1.00  0.00    -0.357 OA
ATOM     36  H3  UNL     1      22.041  53.424  38.424  1.00  0.00     0.218 HD
ENDBRANCH   8  35
TORSDOF 9
ENDMDL