MODEL 1
REMARK VINA RESULT: -8.452505918      0.000      0.000
REMARK  10 active torsions:
REMARK  status: ('A' for Active; 'I' for Inactive)
REMARK    1  A    between atoms: C2_2  and  C3_3
REMARK    2  A    between atoms: C4_4  and  C5_5
REMARK    3  A    between atoms: C5_5  and  C7_7
REMARK    4  A    between atoms: C7_7  and  N1_8
REMARK    5  A    between atoms: C7_7  and  C18_30
REMARK    6  A    between atoms: N1_8  and  C8_10
REMARK    7  A    between atoms: C9_11  and  O1_12
REMARK    8  A    between atoms: C12_16  and  O2_17
REMARK    9  A    between atoms: C13_19  and  N2_20
REMARK       I    between atoms: N2_20  and  C14_22
REMARK   10  A    between atoms: C17_27  and  O4_28
ROOT
HETATM    1  C8  UNL     1      15.044  56.308  37.622  1.00  0.00     0.097 A
HETATM    2  C9  UNL     1      15.745  56.621  36.491  1.00  0.00     0.095 A
HETATM    3  C10 UNL     1      16.945  56.070  36.133  1.00  0.00     0.054 A
HETATM    4  C11 UNL     1      17.551  55.098  36.964  1.00  0.00     0.023 A
HETATM    5  C12 UNL     1      18.733  54.468  36.737  1.00  0.00     0.111 A
HETATM    6  C13 UNL     1      19.169  53.553  37.651  1.00  0.00     0.111 A
HETATM    7  S1  UNL     1      17.873  53.607  38.828  1.00  0.00    -0.066 SA
HETATM    8  C16 UNL     1      16.877  54.766  38.101  1.00  0.00     0.055 A
HETATM    9  C17 UNL     1      15.645  55.350  38.440  1.00  0.00     0.113 A
ENDROOT
BRANCH   1  10
HETATM   10  N1  UNL     1      13.781  56.804  37.976  1.00  0.00    -0.370 N
ATOM     11  H1  UNL     1      13.054  56.135  38.226  1.00  0.00     0.160 HD
BRANCH  10  12
HETATM   12  C7  UNL     1      13.452  58.226  38.007  1.00  0.00     0.190 C
BRANCH  12  13
HETATM   13  C5  UNL     1      13.071  58.781  39.328  1.00  0.00     0.037 C
HETATM   14  C6  UNL     1      13.968  59.974  39.710  1.00  0.00     0.017 C
BRANCH  13  15
HETATM   15  C4  UNL     1      13.244  57.838  40.473  1.00  0.00    -0.024 C
HETATM   16  C3  UNL     1      14.307  57.780  41.241  1.00  0.00    -0.031 C
BRANCH  16  17
HETATM   17  C2  UNL     1      14.412  56.802  42.384  1.00  0.00     0.022 C
HETATM   18  C1  UNL     1      13.165  55.996  42.562  1.00  0.00     0.009 C
ENDBRANCH  16  17
ENDBRANCH  13  15
ENDBRANCH  12  13
BRANCH  12  19
HETATM   19  C18 UNL     1      12.243  58.333  37.087  1.00  0.00     0.197 C
HETATM   20  O5  UNL     1      12.071  57.477  36.179  1.00  0.00    -0.646 OA
HETATM   21  O6  UNL     1      11.324  59.327  37.210  1.00  0.00    -0.646 OA
ENDBRANCH  12  19
ENDBRANCH  10  12
ENDBRANCH   1  10
BRANCH   2  22
HETATM   22  O1  UNL     1      15.250  57.586  35.591  1.00  0.00    -0.358 OA
ATOM     23  H1  UNL     1      15.789  57.892  34.871  1.00  0.00     0.217 HD
ENDBRANCH   2  22
BRANCH   9  24
HETATM   24  O4  UNL     1      15.107  54.898  39.627  1.00  0.00    -0.357 OA
ATOM     25  H4  UNL     1      15.442  55.127  40.486  1.00  0.00     0.217 HD
ENDBRANCH   9  24
BRANCH   5  26
HETATM   26  O2  UNL     1      19.551  54.712  35.589  1.00  0.00    -0.357 OA
ATOM     27  H2  UNL     1      20.327  54.206  35.381  1.00  0.00     0.217 HD
ENDBRANCH   5  26
BRANCH   6  28
HETATM   28  N2  UNL     1      20.313  52.729  37.745  1.00  0.00    -0.319 N
HETATM   29  C14 UNL     1      21.016  52.029  36.784  1.00  0.00     0.218 C
HETATM   30  C15 UNL     1      22.245  51.203  37.193  1.00  0.00     0.117 C
HETATM   31  O3  UNL     1      20.791  51.961  35.557  1.00  0.00    -0.274 OA
ATOM     32  H2  UNL     1      20.687  52.636  38.689  1.00  0.00     0.169 HD
ENDBRANCH   6  28
TORSDOF 10
ENDMDL