MODEL 1
REMARK VINA RESULT: -10.789141524      0.000      0.000
REMARK  10 active torsions:
REMARK  status: ('A' for Active; 'I' for Inactive)
REMARK    1  A    between atoms: C3_3  and  C4_4
REMARK    2  A    between atoms: C6_6  and  C7_7
REMARK    3  A    between atoms: C8_8  and  C9_9
REMARK    4  A    between atoms: C10_10  and  C11_11
REMARK    5  A    between atoms: C12_12  and  C13_13
REMARK    6  A    between atoms: C14_14  and  C15_15
REMARK    7  A    between atoms: C16_16  and  C17_17
REMARK    8  A    between atoms: C18_18  and  O1_19
REMARK    9  A    between atoms: C21_23  and  N1_24
REMARK   10  A    between atoms: N1_24  and  N2_26
REMARK       I    between atoms: N2_26  and  C22_28
ROOT
HETATM    1  C17 UNL     1      20.292  52.469  36.775  1.00  0.00     0.073 A
HETATM    2  C18 UNL     1      21.624  52.397  37.066  1.00  0.00     0.092 A
HETATM    3  C19 UNL     1      22.423  51.275  36.805  1.00  0.00     0.025 A
HETATM    4  C20 UNL     1      23.860  51.297  37.109  1.00  0.00     0.056 C
HETATM    5  C21 UNL     1      21.812  50.190  36.230  1.00  0.00     0.174 A
HETATM    6  O2  UNL     1      20.492  50.225  35.936  1.00  0.00    -0.255 OA
HETATM    7  C23 UNL     1      19.800  51.258  36.180  1.00  0.00     0.302 A
HETATM    8  O3  UNL     1      18.570  51.220  35.865  1.00  0.00    -0.259 OA
ENDROOT
BRANCH   1   9
HETATM    9  C16 UNL     1      19.371  53.506  36.935  1.00  0.00     0.020 C
HETATM   10  C15 UNL     1      19.002  54.625  36.452  1.00  0.00     0.002 C
BRANCH  10  11
HETATM   11  C14 UNL     1      17.831  55.176  37.206  1.00  0.00     0.009 C
HETATM   12  C13 UNL     1      16.912  55.997  36.922  1.00  0.00     0.065 C
BRANCH  12  13
HETATM   13  C12 UNL     1      15.983  56.149  38.017  1.00  0.00    -0.074 C
HETATM   14  C11 UNL     1      15.205  56.309  38.906  1.00  0.00    -0.074 C
BRANCH  14  15
HETATM   15  C10 UNL     1      14.340  56.370  39.987  1.00  0.00     0.065 C
HETATM   16  C9  UNL     1      13.909  57.631  40.391  1.00  0.00     0.009 C
BRANCH  16  17
HETATM   17  C8  UNL     1      14.484  58.718  39.588  1.00  0.00     0.002 C
HETATM   18  C7  UNL     1      13.962  59.508  38.769  1.00  0.00     0.013 C
BRANCH  18  19
HETATM   19  C6  UNL     1      12.734  59.825  38.163  1.00  0.00    -0.019 A
HETATM   20  C5  UNL     1      11.601  60.438  38.753  1.00  0.00     0.042 A
HETATM   21  C4  UNL     1      10.572  60.442  37.750  1.00  0.00     0.032 A
HETATM   22  N5  UNL     1      11.108  59.891  36.674  1.00  0.00    -0.365 N
HETATM   23  C24 UNL     1      12.357  59.521  36.873  1.00  0.00     0.100 A
ATOM     24  H5  UNL     1      10.612  59.767  35.791  1.00  0.00     0.165 HD
BRANCH  21  25
HETATM   25  C3  UNL     1       9.201  60.788  38.051  1.00  0.00     0.025 C
HETATM   26  C2  UNL     1       8.317  59.907  38.439  1.00  0.00    -0.029 C
HETATM   27  C1  UNL     1       6.899  60.209  38.725  1.00  0.00     0.036 C
ENDBRANCH  21  25
ENDBRANCH  18  19
ENDBRANCH  16  17
ENDBRANCH  14  15
ENDBRANCH  12  13
ENDBRANCH  10  11
ENDBRANCH   1   9
BRANCH   2  28
HETATM   28  O1  UNL     1      22.300  53.509  37.667  1.00  0.00    -0.359 OA
ATOM     29  H1  UNL     1      22.666  53.437  38.542  1.00  0.00     0.217 HD
ENDBRANCH   2  28
BRANCH   5  30
HETATM   30  N1  UNL     1      22.511  49.004  35.929  1.00  0.00    -0.277 N
ATOM     31  H1  UNL     1      23.098  48.543  36.623  1.00  0.00     0.189 HD
BRANCH  30  32
HETATM   32  N2  UNL     1      22.362  48.477  34.614  1.00  0.00    -0.272 N
HETATM   33  C22 UNL     1      22.922  49.182  33.509  1.00  0.00     0.200 C
HETATM   34  N3  UNL     1      22.285  49.243  32.396  1.00  0.00    -0.372 N
HETATM   35  N4  UNL     1      24.191  49.764  33.704  1.00  0.00    -0.062 NA
ATOM     36  H32 UNL     1      21.367  48.821  32.255  1.00  0.00     0.158 HD
ATOM     37  H31 UNL     1      22.686  49.747  31.606  1.00  0.00     0.158 HD
ATOM     38  H2  UNL     1      21.859  47.602  34.464  1.00  0.00     0.189 HD
ENDBRANCH  30  32
ENDBRANCH   5  30
TORSDOF 10
ENDMDL