MODEL 4
REMARK VINA RESULT: -10.397777015      0.759      1.132
REMARK  14 active torsions:
REMARK  status: ('A' for Active; 'I' for Inactive)
REMARK    1  A    between atoms: C2_2  and  C13_15
REMARK    2  A    between atoms: C3_3  and  C4_4
REMARK    3  A    between atoms: C4_4  and  C5_5
REMARK    4  A    between atoms: C5_5  and  C6_6
REMARK    5  A    between atoms: C8_8  and  C9_9
REMARK    6  A    between atoms: C9_9  and  O1_10
REMARK    7  A    between atoms: C9_9  and  C10_12
REMARK    8  A    between atoms: C13_15  and  C14_16
REMARK    9  A    between atoms: C15_17  and  C17_19
REMARK   10  A    between atoms: C19_21  and  C20_22
REMARK   11  A    between atoms: C22_24  and  C23_25
REMARK   12  A    between atoms: C23_25  and  O2_26
REMARK   13  A    between atoms: N1_28  and  O3_30
REMARK   14  A    between atoms: C25_36  and  O4_37
ROOT
HETATM    1  C17 UNL     1      19.087  52.702  36.718  1.00  0.00    -0.056 C
HETATM    2  C18 UNL     1      20.084  53.783  36.479  1.00  0.00     0.049 C
HETATM    3  C19 UNL     1      19.353  51.434  36.516  1.00  0.00     0.021 C
ENDROOT
BRANCH   1   4
HETATM    4  C15 UNL     1      17.715  53.096  37.148  1.00  0.00    -0.059 C
HETATM    5  C14 UNL     1      17.545  54.232  37.703  1.00  0.00    -0.015 C
HETATM    6  C16 UNL     1      16.628  52.145  36.899  1.00  0.00     0.048 C
BRANCH   5   7
HETATM    7  C13 UNL     1      16.260  54.769  38.178  1.00  0.00     0.061 C
BRANCH   7   8
HETATM    8  C2  UNL     1      16.100  56.092  37.479  1.00  0.00    -0.084 C
HETATM    9  C1  UNL     1      16.615  56.127  36.059  1.00  0.00     0.043 C
HETATM   10  C3  UNL     1      15.572  57.112  38.052  1.00  0.00    -0.024 C
BRANCH  10  11
HETATM   11  C4  UNL     1      15.044  57.207  39.399  1.00  0.00     0.031 C
BRANCH  11  12
HETATM   12  C5  UNL     1      14.170  58.456  39.497  1.00  0.00     0.037 C
BRANCH  12  13
HETATM   13  C6  UNL     1      13.000  58.374  38.582  1.00  0.00    -0.085 C
HETATM   14  C7  UNL     1      12.528  57.081  38.010  1.00  0.00     0.043 C
HETATM   15  C8  UNL     1      12.360  59.493  38.273  1.00  0.00     0.007 C
BRANCH  15  16
HETATM   16  C9  UNL     1      11.182  59.452  37.360  1.00  0.00     0.144 C
BRANCH  16  17
HETATM   17  O1  UNL     1      11.630  59.815  36.083  1.00  0.00    -0.391 OA
ATOM     18  H1  UNL     1      10.865  60.045  35.568  1.00  0.00     0.210 HD
ENDBRANCH  16  17
BRANCH  16  19
HETATM   19  C10 UNL     1      10.095  60.385  37.831  1.00  0.00     0.010 C
HETATM   20  C11 UNL     1       8.954  59.542  38.367  1.00  0.00     0.012 C
HETATM   21  C12 UNL     1      10.654  61.298  38.889  1.00  0.00     0.012 C
ENDBRANCH  16  19
ENDBRANCH  15  16
ENDBRANCH  12  13
ENDBRANCH  11  12
ENDBRANCH  10  11
ENDBRANCH   7   8
ENDBRANCH   5   7
ENDBRANCH   1   4
BRANCH   3  22
HETATM   22  C20 UNL     1      20.633  50.906  36.106  1.00  0.00     0.003 A
HETATM   23  C21 UNL     1      21.699  50.883  37.021  1.00  0.00     0.048 A
HETATM   24  C22 UNL     1      22.948  50.442  36.716  1.00  0.00     0.087 A
HETATM   25  N2  UNL     1      23.142  50.006  35.449  1.00  0.00    -0.339 N
HETATM   26  C24 UNL     1      22.178  49.998  34.522  1.00  0.00     0.151 A
ATOM     27  H2  UNL     1      24.068  49.668  35.189  1.00  0.00     0.167 HD
HETATM   28  N3  UNL     1      22.505  49.510  33.204  1.00  0.00    -0.080 NA
HETATM   29  C25 UNL     1      20.929  50.444  34.836  1.00  0.00     0.117 A
BRANCH  24  30
HETATM   30  C23 UNL     1      24.027  50.434  37.703  1.00  0.00     0.187 C
HETATM   31  N1  UNL     1      25.051  51.198  37.604  1.00  0.00    -0.246 N
ATOM     32  H1  UNL     1      25.789  51.171  38.308  1.00  0.00     0.196 HD
BRANCH  30  33
HETATM   33  O2  UNL     1      23.932  49.576  38.769  1.00  0.00    -0.343 OA
ATOM     34  H2  UNL     1      24.733  49.292  39.194  1.00  0.00     0.219 HD
ENDBRANCH  30  33
BRANCH  31  35
HETATM   35  O3  UNL     1      25.138  52.052  36.537  1.00  0.00    -0.288 OA
ATOM     36  H3  UNL     1      25.354  52.964  36.696  1.00  0.00     0.244 HD
ENDBRANCH  31  35
ENDBRANCH  24  30
BRANCH  29  37
HETATM   37  O4  UNL     1      19.953  50.430  33.864  1.00  0.00    -0.357 OA
ATOM     38  H4  UNL     1      19.439  49.645  33.718  1.00  0.00     0.218 HD
ENDBRANCH  29  37
ENDBRANCH   3  22
TORSDOF 14
ENDMDL