MODEL 2
REMARK VINA RESULT: -10.170951676      0.861      1.087
REMARK  15 active torsions:
REMARK  status: ('A' for Active; 'I' for Inactive)
REMARK    1  A    between atoms: C3_3  and  C4_4
REMARK    2  A    between atoms: C4_4  and  C5_5
REMARK    3  A    between atoms: C6_6  and  C7_7
REMARK    4  A    between atoms: C7_7  and  C8_8
REMARK    5  A    between atoms: C9_9  and  C10_10
REMARK    6  A    between atoms: C11_11  and  C12_12
REMARK    7  A    between atoms: C13_13  and  C14_14
REMARK    8  A    between atoms: C14_14  and  C21_28
REMARK    9  A    between atoms: C15_15  and  C16_16
REMARK   10  A    between atoms: N1_18  and  C18_20
REMARK   11  A    between atoms: C18_20  and  C19_21
REMARK   12  A    between atoms: C19_21  and  N3_25
REMARK   13  A    between atoms: C23_30  and  O1_31
REMARK   14  A    between atoms: C25_34  and  O2_35
REMARK   15  A    between atoms: C26_37  and  O3_38
ROOT
HETATM    1  C14 UNL     1      17.093  54.354  36.665  1.00  0.00    -0.021 C
HETATM    2  C15 UNL     1      18.362  54.753  36.553  1.00  0.00     0.036 C
ENDROOT
BRANCH   1   3
HETATM    3  C13 UNL     1      16.102  55.295  36.204  1.00  0.00     0.012 C
HETATM    4  C12 UNL     1      15.534  56.286  36.773  1.00  0.00     0.001 C
BRANCH   4   5
HETATM    5  C11 UNL     1      15.617  56.904  38.066  1.00  0.00     0.000 C
HETATM    6  C10 UNL     1      14.574  57.143  38.813  1.00  0.00    -0.000 C
BRANCH   6   7
HETATM    7  C9  UNL     1      13.232  56.831  38.460  1.00  0.00    -0.004 C
HETATM    8  C8  UNL     1      12.496  57.619  37.711  1.00  0.00    -0.023 C
BRANCH   8   9
HETATM    9  C7  UNL     1      12.918  58.885  37.143  1.00  0.00     0.054 C
BRANCH   9  10
HETATM   10  C6  UNL     1      11.867  59.901  37.559  1.00  0.00    -0.027 C
HETATM   11  C5  UNL     1      11.772  60.227  38.820  1.00  0.00    -0.027 C
BRANCH  11  12
HETATM   12  C4  UNL     1      10.772  61.213  39.321  1.00  0.00     0.053 C
BRANCH  12  13
HETATM   13  C3  UNL     1       9.889  61.689  38.238  1.00  0.00    -0.027 C
HETATM   14  C2  UNL     1       8.790  61.023  37.952  1.00  0.00    -0.035 C
HETATM   15  C1  UNL     1       8.416  59.781  38.710  1.00  0.00     0.036 C
ENDBRANCH  12  13
ENDBRANCH  11  12
ENDBRANCH   9  10
ENDBRANCH   8   9
ENDBRANCH   6   7
ENDBRANCH   4   5
ENDBRANCH   1   3
BRANCH   1  16
HETATM   16  C21 UNL     1      16.726  53.078  37.222  1.00  0.00     0.013 A
HETATM   17  C22 UNL     1      16.231  52.931  38.515  1.00  0.00     0.051 A
HETATM   18  C23 UNL     1      15.970  51.708  39.057  1.00  0.00     0.069 A
HETATM   19  C24 UNL     1      16.203  50.585  38.306  1.00  0.00     0.076 A
HETATM   20  C25 UNL     1      16.700  50.698  37.008  1.00  0.00     0.102 A
HETATM   21  C26 UNL     1      16.966  51.932  36.454  1.00  0.00     0.110 A
BRANCH  18  22
HETATM   22  O1  UNL     1      15.476  51.655  40.356  1.00  0.00    -0.361 OA
ATOM     23  H1  UNL     1      14.536  51.591  40.477  1.00  0.00     0.217 HD
ENDBRANCH  18  22
BRANCH  20  24
HETATM   24  O2  UNL     1      16.915  49.525  36.299  1.00  0.00    -0.358 OA
ATOM     25  H2  UNL     1      16.711  48.705  36.734  1.00  0.00     0.217 HD
ENDBRANCH  20  24
BRANCH  21  26
HETATM   26  O3  UNL     1      17.460  52.039  35.166  1.00  0.00    -0.357 OA
ATOM     27  H3  UNL     1      18.052  51.382  34.820  1.00  0.00     0.217 HD
ENDBRANCH  21  26
ENDBRANCH   1  16
BRANCH   2  28
HETATM   28  C16 UNL     1      19.591  54.134  36.882  1.00  0.00     0.002 C
HETATM   29  C17 UNL     1      20.447  54.228  38.065  1.00  0.00     0.068 C
HETATM   30  N1  UNL     1      20.052  53.299  35.949  1.00  0.00    -0.386 N
ATOM     31  H1  UNL     1      19.507  53.169  35.097  1.00  0.00     0.159 HD
BRANCH  30  32
HETATM   32  C18 UNL     1      21.265  52.586  36.094  1.00  0.00     0.195 C
BRANCH  32  33
HETATM   33  C19 UNL     1      21.292  51.377  35.235  1.00  0.00     0.088 C
HETATM   34  N2  UNL     1      22.388  51.017  34.681  1.00  0.00    -0.388 N
ATOM     35  H22 UNL     1      23.232  51.568  34.840  1.00  0.00     0.157 HD
ATOM     36  H21 UNL     1      22.406  50.186  34.091  1.00  0.00     0.157 HD
BRANCH  33  37
HETATM   37  N3  UNL     1      20.121  50.612  35.014  1.00  0.00    -0.383 N
HETATM   38  C20 UNL     1      20.033  49.738  33.862  1.00  0.00     0.147 C
ATOM     39  H3  UNL     1      19.340  50.675  35.667  1.00  0.00     0.160 HD
ENDBRANCH  33  37
ENDBRANCH  32  33
ENDBRANCH  30  32
ENDBRANCH   2  28
TORSDOF 15
ENDMDL