MODEL 4
REMARK VINA RESULT: -9.859813174      0.770      1.238
REMARK  13 active torsions:
REMARK  status: ('A' for Active; 'I' for Inactive)
REMARK    1  A    between atoms: C3_6  and  O1_7
REMARK    2  A    between atoms: C4_9  and  N3_10
REMARK    3  A    between atoms: N3_10  and  C5_12
REMARK    4  A    between atoms: C5_12  and  C6_16
REMARK    5  A    between atoms: C6_16  and  C7_17
REMARK    6  A    between atoms: C7_17  and  C8_18
REMARK    7  A    between atoms: C8_18  and  C9_19
REMARK    8  A    between atoms: C9_19  and  C10_20
REMARK    9  A    between atoms: C10_20  and  C11_21
REMARK   10  A    between atoms: C11_21  and  C12_22
REMARK   11  A    between atoms: C12_22  and  C13_23
REMARK   12  A    between atoms: C19_29  and  N5_30
REMARK   13  A    between atoms: N5_30  and  C20_32
ROOT
HETATM    1  N1  UNL     1      15.733  49.048  37.303  1.00  0.00    -0.190 NA
HETATM    2  C1  UNL     1      16.309  50.052  37.373  1.00  0.00     0.120 C
HETATM    3  C2  UNL     1      17.035  51.277  37.463  1.00  0.00     0.145 A
HETATM    4  N2  UNL     1      17.001  52.106  38.541  1.00  0.00    -0.325 N
ATOM      5  H2  UNL     1      16.467  51.951  39.396  1.00  0.00     0.169 HD
HETATM    6  C3  UNL     1      17.789  53.159  38.288  1.00  0.00     0.171 A
HETATM    7  C4  UNL     1      18.332  52.997  37.030  1.00  0.00     0.115 A
HETATM    8  C19 UNL     1      17.859  51.812  36.508  1.00  0.00     0.117 A
ENDROOT
BRANCH   8   9
HETATM    9  N5  UNL     1      18.179  51.272  35.240  1.00  0.00    -0.187 N
ATOM     10  H5  UNL     1      17.554  51.498  34.466  1.00  0.00     0.184 HD
BRANCH   9  11
HETATM   11  C20 UNL     1      19.294  50.444  34.955  1.00  0.00     0.674 C
HETATM   12  N6  UNL     1      19.392  49.858  33.797  1.00  0.00    -0.226 N
HETATM   13  C21 UNL     1      20.548  49.028  33.559  1.00  0.00     0.139 C
ATOM     14  H6  UNL     1      18.676  49.982  33.081  1.00  0.00     0.177 HD
HETATM   15  C22 UNL     1      21.826  49.701  34.016  1.00  0.00     0.040 C
HETATM   16  C23 UNL     1      21.741  50.073  35.489  1.00  0.00     0.139 C
HETATM   17  N7  UNL     1      20.338  50.217  35.889  1.00  0.00    -0.226 N
ATOM     18  H7  UNL     1      20.102  50.151  36.879  1.00  0.00     0.177 HD
ENDBRANCH   9  11
ENDBRANCH   8   9
BRANCH   6  19
HETATM   19  O1  UNL     1      18.023  54.230  39.138  1.00  0.00    -0.344 OA
ATOM     20  H1  UNL     1      17.657  55.102  39.055  1.00  0.00     0.219 HD
ENDBRANCH   6  19
BRANCH   7  21
HETATM   21  N3  UNL     1      19.229  53.857  36.334  1.00  0.00    -0.341 N
ATOM     22  H3  UNL     1      20.158  53.522  36.078  1.00  0.00     0.167 HD
BRANCH  21  23
HETATM   23  C5  UNL     1      18.831  55.203  35.991  1.00  0.00     0.075 C
HETATM   24  N4  UNL     1      19.760  56.086  35.892  1.00  0.00    -0.389 N
ATOM     25  H42 UNL     1      20.750  55.909  36.057  1.00  0.00     0.157 HD
ATOM     26  H41 UNL     1      19.479  57.036  35.649  1.00  0.00     0.157 HD
BRANCH  23  27
HETATM   27  C6  UNL     1      17.397  55.459  35.752  1.00  0.00     0.076 C
BRANCH  27  28
HETATM   28  C7  UNL     1      16.752  56.426  36.680  1.00  0.00     0.007 C
BRANCH  28  29
HETATM   29  C8  UNL     1      15.474  55.915  37.252  1.00  0.00     0.000 C
BRANCH  29  30
HETATM   30  C9  UNL     1      15.237  56.294  38.697  1.00  0.00     0.000 C
BRANCH  30  31
HETATM   31  C10 UNL     1      14.209  57.400  38.745  1.00  0.00     0.000 C
BRANCH  31  32
HETATM   32  C11 UNL     1      13.228  57.272  37.580  1.00  0.00     0.000 C
BRANCH  32  33
HETATM   33  C12 UNL     1      12.626  58.606  37.320  1.00  0.00     0.004 C
BRANCH  33  34
HETATM   34  C13 UNL     1      11.680  59.096  38.394  1.00  0.00    -0.014 C
HETATM   35  C14 UNL     1      12.175  60.446  38.800  1.00  0.00     0.004 C
HETATM   36  C15 UNL     1      11.148  61.443  39.171  1.00  0.00     0.000 C
HETATM   37  C16 UNL     1       9.961  61.423  38.238  1.00  0.00     0.000 C
HETATM   38  C17 UNL     1       9.340  60.041  38.405  1.00  0.00     0.000 C
HETATM   39  C18 UNL     1      10.300  59.050  37.852  1.00  0.00     0.004 C
ENDBRANCH  33  34
ENDBRANCH  32  33
ENDBRANCH  31  32
ENDBRANCH  30  31
ENDBRANCH  29  30
ENDBRANCH  28  29
ENDBRANCH  27  28
ENDBRANCH  23  27
ENDBRANCH  21  23
ENDBRANCH   7  21
TORSDOF 13
ENDMDL