MODEL 2
REMARK VINA RESULT: -9.007603901      1.914      3.612
REMARK  19 active torsions:
REMARK  status: ('A' for Active; 'I' for Inactive)
REMARK    1  A    between atoms: C2_2  and  O1_3
REMARK    2  A    between atoms: C2_2  and  C3_5
REMARK    3  A    between atoms: C4_6  and  O2_7
REMARK    4  A    between atoms: C5_9  and  O3_10
REMARK    5  A    between atoms: C6_12  and  O4_13
REMARK    6  A    between atoms: C7_15  and  C8_16
REMARK    7  A    between atoms: C9_17  and  C10_18
REMARK    8  A    between atoms: C10_18  and  C11_19
REMARK    9  A    between atoms: C11_19  and  C12_20
REMARK   10  A    between atoms: C12_20  and  C13_21
REMARK   11  A    between atoms: C13_21  and  C14_22
REMARK   12  A    between atoms: C14_22  and  C15_23
REMARK   13  A    between atoms: C15_23  and  C16_24
REMARK   14  A    between atoms: C16_24  and  C17_25
REMARK   15  A    between atoms: C18_26  and  C19_27
REMARK   16  A    between atoms: C20_28  and  C21_29
REMARK   17  A    between atoms: C22_30  and  C23_31
REMARK   18  A    between atoms: C23_31  and  C24_32
REMARK   19  A    between atoms: C25_35  and  O7_36
ROOT
HETATM    1  C8  UNL     1      20.380  53.631  37.151  1.00  0.00     0.014 C
HETATM    2  C9  UNL     1      20.596  54.739  36.569  1.00  0.00    -0.014 C
ENDROOT
BRANCH   1   3
HETATM    3  C7  UNL     1      19.255  52.718  37.241  1.00  0.00     0.034 A
HETATM    4  C6  UNL     1      19.105  51.763  36.246  1.00  0.00     0.114 A
HETATM    5  C5  UNL     1      17.994  50.984  36.144  1.00  0.00     0.134 A
HETATM    6  C4  UNL     1      16.932  51.111  37.054  1.00  0.00     0.117 A
HETATM    7  C3  UNL     1      17.056  52.040  38.040  1.00  0.00     0.063 A
HETATM    8  C25 UNL     1      18.232  52.870  38.152  1.00  0.00     0.094 A
BRANCH   4   9
HETATM    9  O4  UNL     1      20.166  51.621  35.322  1.00  0.00    -0.357 OA
ATOM     10  H4  UNL     1      20.522  52.380  34.876  1.00  0.00     0.217 HD
ENDBRANCH   4   9
BRANCH   5  11
HETATM   11  O3  UNL     1      17.877  50.044  35.140  1.00  0.00    -0.356 OA
ATOM     12  H3  UNL     1      18.304  49.205  35.264  1.00  0.00     0.218 HD
ENDBRANCH   5  11
BRANCH   6  13
HETATM   13  O2  UNL     1      15.859  50.292  36.899  1.00  0.00    -0.357 OA
ATOM     14  H2  UNL     1      15.035  50.392  37.362  1.00  0.00     0.217 HD
ENDBRANCH   6  13
BRANCH   7  15
HETATM   15  C2  UNL     1      16.038  52.307  39.020  1.00  0.00     0.055 C
HETATM   16  C1  UNL     1      15.543  51.416  40.062  1.00  0.00     0.077 C
BRANCH  15  17
HETATM   17  O1  UNL     1      15.453  53.471  39.030  1.00  0.00    -0.364 OA
ATOM     18  H1  UNL     1      16.042  54.181  38.806  1.00  0.00     0.217 HD
ENDBRANCH  15  17
ENDBRANCH   7  15
BRANCH   8  19
HETATM   19  O7  UNL     1      18.289  53.761  39.126  1.00  0.00    -0.359 OA
ATOM     20  H7  UNL     1      18.228  54.682  38.904  1.00  0.00     0.217 HD
ENDBRANCH   8  19
ENDBRANCH   1   3
BRANCH   2  21
HETATM   21  C10 UNL     1      19.818  55.649  35.728  1.00  0.00     0.112 C
BRANCH  21  22
HETATM   22  C11 UNL     1      18.401  55.409  35.620  1.00  0.00    -0.152 C
BRANCH  22  23
HETATM   23  C12 UNL     1      17.154  55.224  35.547  1.00  0.00     0.051 C
BRANCH  23  24
HETATM   24  C13 UNL     1      16.036  56.168  35.702  1.00  0.00     0.008 C
BRANCH  24  25
HETATM   25  C14 UNL     1      15.288  56.151  36.758  1.00  0.00     0.009 C
BRANCH  25  26
HETATM   26  C15 UNL     1      15.800  56.521  38.051  1.00  0.00     0.055 C
BRANCH  26  27
HETATM   27  C16 UNL     1      15.129  57.040  39.017  1.00  0.00    -0.128 C
BRANCH  27  28
HETATM   28  C17 UNL     1      14.416  57.570  40.020  1.00  0.00     0.055 C
HETATM   29  C18 UNL     1      13.439  58.472  39.762  1.00  0.00     0.008 C
BRANCH  29  30
HETATM   30  C19 UNL     1      13.156  58.893  38.423  1.00  0.00     0.001 C
HETATM   31  C20 UNL     1      12.486  59.959  38.073  1.00  0.00    -0.000 C
BRANCH  31  32
HETATM   32  C21 UNL     1      11.912  60.875  39.015  1.00  0.00    -0.004 C
HETATM   33  C22 UNL     1      10.700  61.356  38.931  1.00  0.00    -0.016 C
BRANCH  33  34
HETATM   34  C23 UNL     1       9.752  61.058  37.871  1.00  0.00     0.140 C
BRANCH  34  35
HETATM   35  C24 UNL     1       8.924  59.899  38.320  1.00  0.00     0.176 C
HETATM   36  O5  UNL     1       9.312  58.748  38.497  1.00  0.00    -0.648 OA
HETATM   37  O6  UNL     1       7.544  60.113  38.584  1.00  0.00    -0.648 OA
ENDBRANCH  34  35
ENDBRANCH  33  34
ENDBRANCH  31  32
ENDBRANCH  29  30
ENDBRANCH  27  28
ENDBRANCH  26  27
ENDBRANCH  25  26
ENDBRANCH  24  25
ENDBRANCH  23  24
ENDBRANCH  22  23
ENDBRANCH  21  22
ENDBRANCH   2  21
TORSDOF 19
ENDMDL