MODEL 1
REMARK VINA RESULT: -9.933687858      0.000      0.000
REMARK  17 active torsions:
REMARK  status: ('A' for Active; 'I' for Inactive)
REMARK    1  A    between atoms: C4_4  and  C5_5
REMARK    2  A    between atoms: C5_5  and  C6_6
REMARK    3  A    between atoms: C6_6  and  C7_7
REMARK    4  A    between atoms: C9_9  and  C10_10
REMARK    5  A    between atoms: C11_11  and  C12_12
REMARK    6  A    between atoms: C12_12  and  O1_13
REMARK    7  A    between atoms: C13_15  and  C14_16
REMARK    8  A    between atoms: C14_16  and  C15_17
REMARK    9  A    between atoms: C17_19  and  O2_20
REMARK   10  A    between atoms: C18_22  and  O3_23
REMARK   11  A    between atoms: C19_25  and  N1_26
REMARK   12  A    between atoms: N1_26  and  C20_28
REMARK   13  A    between atoms: C20_28  and  O4_29
REMARK   14  A    between atoms: C20_28  and  C21_31
REMARK   15  A    between atoms: C21_31  and  C22_32
REMARK   16  A    between atoms: C22_32  and  O5_34
REMARK   17  A    between atoms: C24_36  and  O6_37
ROOT
HETATM    1  C15 UNL     1      16.836  54.094  37.658  1.00  0.00    -0.016 A
HETATM    2  C16 UNL     1      16.306  53.464  38.760  1.00  0.00     0.049 A
HETATM    3  C17 UNL     1      16.247  52.086  38.750  1.00  0.00     0.101 A
HETATM    4  C18 UNL     1      16.707  51.372  37.666  1.00  0.00     0.128 A
HETATM    5  C19 UNL     1      17.241  51.983  36.557  1.00  0.00     0.104 A
HETATM    6  C24 UNL     1      17.291  53.390  36.588  1.00  0.00     0.102 A
ENDROOT
BRANCH   1   7
HETATM    7  C14 UNL     1      16.904  55.593  37.630  1.00  0.00     0.071 C
BRANCH   7   8
HETATM    8  C13 UNL     1      15.669  56.060  36.987  1.00  0.00     0.014 C
HETATM    9  C12 UNL     1      14.548  56.456  37.602  1.00  0.00     0.062 C
BRANCH   9  10
HETATM   10  C11 UNL     1      14.448  56.459  39.004  1.00  0.00     0.036 C
HETATM   11  C10 UNL     1      14.469  57.465  39.833  1.00  0.00     0.003 C
BRANCH  11  12
HETATM   12  C9  UNL     1      14.606  58.841  39.461  1.00  0.00     0.002 C
HETATM   13  C7  UNL     1      13.546  59.590  39.166  1.00  0.00    -0.084 C
HETATM   14  C8  UNL     1      13.902  61.028  38.839  1.00  0.00     0.043 C
BRANCH  13  15
HETATM   15  C6  UNL     1      12.191  59.110  39.195  1.00  0.00     0.037 C
BRANCH  15  16
HETATM   16  C5  UNL     1      11.317  59.423  38.028  1.00  0.00     0.031 C
BRANCH  16  17
HETATM   17  C4  UNL     1       9.907  59.177  38.250  1.00  0.00    -0.024 C
HETATM   18  C2  UNL     1       9.028  60.171  38.352  1.00  0.00    -0.091 C
HETATM   19  C1  UNL     1       9.517  61.566  38.233  1.00  0.00     0.042 C
HETATM   20  C3  UNL     1       7.574  59.872  38.581  1.00  0.00     0.042 C
ENDBRANCH  16  17
ENDBRANCH  15  16
ENDBRANCH  13  15
ENDBRANCH  11  12
ENDBRANCH   9  10
BRANCH   9  21
HETATM   21  O1  UNL     1      13.478  56.866  36.787  1.00  0.00    -0.361 OA
ATOM     22  H1  UNL     1      12.805  56.257  36.507  1.00  0.00     0.217 HD
ENDBRANCH   9  21
ENDBRANCH   7   8
ENDBRANCH   1   7
BRANCH   6  23
HETATM   23  O6  UNL     1      17.838  53.948  35.447  1.00  0.00    -0.358 OA
ATOM     24  H6  UNL     1      17.803  53.561  34.581  1.00  0.00     0.217 HD
ENDBRANCH   6  23
BRANCH   3  25
HETATM   25  O2  UNL     1      15.716  51.416  39.850  1.00  0.00    -0.358 OA
ATOM     26  H2  UNL     1      14.865  51.000  39.777  1.00  0.00     0.217 HD
ENDBRANCH   3  25
BRANCH   5  27
HETATM   27  N1  UNL     1      17.713  51.239  35.443  1.00  0.00    -0.332 N
ATOM     28  H1  UNL     1      17.137  51.195  34.603  1.00  0.00     0.168 HD
BRANCH  27  29
HETATM   29  C20 UNL     1      18.943  50.562  35.453  1.00  0.00     0.142 C
BRANCH  29  30
HETATM   30  O4  UNL     1      18.875  49.421  34.833  1.00  0.00    -0.346 OA
ATOM     31  H4  UNL     1      18.145  49.390  34.226  1.00  0.00     0.219 HD
ENDBRANCH  29  30
BRANCH  29  32
HETATM   32  C21 UNL     1      20.192  50.953  36.031  1.00  0.00     0.087 C
BRANCH  32  33
HETATM   33  C22 UNL     1      20.889  52.028  35.921  1.00  0.00     0.043 C
HETATM   34  C23 UNL     1      21.036  53.102  36.908  1.00  0.00     0.076 C
BRANCH  33  35
HETATM   35  O5  UNL     1      21.615  52.227  34.711  1.00  0.00    -0.365 OA
ATOM     36  H5  UNL     1      21.175  52.680  34.002  1.00  0.00     0.217 HD
ENDBRANCH  33  35
ENDBRANCH  32  33
ENDBRANCH  29  32
ENDBRANCH  27  29
ENDBRANCH   5  27
BRANCH   4  37
HETATM   37  O3  UNL     1      16.637  49.977  37.681  1.00  0.00    -0.356 OA
ATOM     38  H3  UNL     1      17.235  49.484  38.230  1.00  0.00     0.218 HD
ENDBRANCH   4  37
TORSDOF 17
ENDMDL