MODEL 3
REMARK VINA RESULT: -7.645574233      2.546      3.891
REMARK  14 active torsions:
REMARK  status: ('A' for Active; 'I' for Inactive)
REMARK    1  A    between atoms: C2_2  and  C3_3
REMARK    2  A    between atoms: C4_4  and  C6_6
REMARK    3  A    between atoms: C6_6  and  O1_7
REMARK    4  A    between atoms: C6_6  and  C7_9
REMARK    5  A    between atoms: C8_10  and  C9_11
REMARK    6  A    between atoms: C9_11  and  C11_13
REMARK    7  A    between atoms: C11_13  and  C12_14
REMARK    8  A    between atoms: C15_19  and  O2_20
REMARK    9  A    between atoms: C16_22  and  O3_23
REMARK   10  A    between atoms: C17_25  and  C18_26
REMARK   11  A    between atoms: C19_27  and  C21_29
REMARK   12  A    between atoms: C22_30  and  C23_31
REMARK   13  A    between atoms: C23_31  and  N2_32
REMARK   14  A    between atoms: N2_32  and  N3_33
ROOT
HETATM    1  C12 UNL     1      19.570  53.328  37.256  1.00  0.00     0.040 C
HETATM    2  C13 UNL     1      20.387  54.554  37.367  1.00  0.00     0.129 C
HETATM    3  N1  UNL     1      21.632  54.013  37.956  1.00  0.00    -0.386 N
ATOM      4  H1  UNL     1      22.238  54.439  38.658  1.00  0.00     0.159 HD
HETATM    5  C14 UNL     1      21.778  52.757  37.305  1.00  0.00     0.071 A
HETATM    6  C15 UNL     1      22.962  52.016  37.103  1.00  0.00     0.127 A
HETATM    7  C16 UNL     1      22.898  50.827  36.439  1.00  0.00     0.112 A
HETATM    8  C17 UNL     1      21.675  50.394  35.990  1.00  0.00     0.007 A
HETATM    9  C24 UNL     1      20.479  51.100  36.174  1.00  0.00    -0.040 A
HETATM   10  C25 UNL     1      19.205  50.536  35.648  1.00  0.00     0.050 C
HETATM   11  C26 UNL     1      20.569  52.303  36.849  1.00  0.00    -0.016 A
ENDROOT
BRANCH   1  12
HETATM   12  C11 UNL     1      18.340  53.337  36.476  1.00  0.00     0.019 C
BRANCH  12  13
HETATM   13  C9  UNL     1      17.034  53.481  37.183  1.00  0.00     0.004 C
HETATM   14  C10 UNL     1      16.211  52.189  37.083  1.00  0.00     0.014 C
BRANCH  13  15
HETATM   15  C8  UNL     1      16.996  53.946  38.549  1.00  0.00    -0.024 C
HETATM   16  C7  UNL     1      16.328  55.004  38.990  1.00  0.00     0.005 C
BRANCH  16  17
HETATM   17  C6  UNL     1      15.530  55.822  38.046  1.00  0.00     0.169 C
BRANCH  17  18
HETATM   18  C4  UNL     1      14.683  56.725  38.840  1.00  0.00    -0.056 C
HETATM   19  C3  UNL     1      13.617  57.305  38.397  1.00  0.00    -0.022 C
HETATM   20  C5  UNL     1      15.120  56.967  40.266  1.00  0.00     0.046 C
BRANCH  19  21
HETATM   21  C2  UNL     1      13.080  57.164  37.048  1.00  0.00     0.023 C
HETATM   22  C1  UNL     1      12.307  58.458  36.731  1.00  0.00     0.009 C
ENDBRANCH  19  21
ENDBRANCH  17  18
BRANCH  17  23
HETATM   23  O1  UNL     1      16.503  56.587  37.330  1.00  0.00    -0.387 OA
ATOM     24  H1  UNL     1      16.361  56.488  36.396  1.00  0.00     0.210 HD
ENDBRANCH  17  23
ENDBRANCH  16  17
ENDBRANCH  13  15
ENDBRANCH  12  13
ENDBRANCH   1  12
BRANCH   6  25
HETATM   25  O2  UNL     1      24.142  52.546  37.596  1.00  0.00    -0.356 OA
ATOM     26  H2  UNL     1      24.633  53.130  37.030  1.00  0.00     0.218 HD
ENDBRANCH   6  25
BRANCH   8  27
HETATM   27  C18 UNL     1      21.579  49.159  35.251  1.00  0.00     0.021 C
HETATM   28  C19 UNL     1      21.872  48.946  33.983  1.00  0.00    -0.061 C
HETATM   29  C20 UNL     1      21.698  47.573  33.449  1.00  0.00     0.048 C
BRANCH  28  30
HETATM   30  C21 UNL     1      22.253  50.030  33.126  1.00  0.00     0.004 C
HETATM   31  C22 UNL     1      23.362  50.335  32.534  1.00  0.00    -0.009 C
BRANCH  31  32
HETATM   32  C23 UNL     1      24.667  49.724  32.488  1.00  0.00     0.161 C
BRANCH  32  33
HETATM   33  N2  UNL     1      25.372  49.794  33.772  1.00  0.00    -0.145 NA
BRANCH  33  34
HETATM   34  N3  UNL     1      25.873  48.565  34.149  1.00  0.00    -0.348 N
ATOM     35  H32 UNL     1      25.296  47.729  34.240  1.00  0.00     0.172 HD
ATOM     36  H31 UNL     1      26.878  48.602  34.322  1.00  0.00     0.172 HD
ENDBRANCH  33  34
ENDBRANCH  32  33
ENDBRANCH  31  32
ENDBRANCH  28  30
ENDBRANCH   8  27
BRANCH   7  37
HETATM   37  O3  UNL     1      24.030  50.078  36.228  1.00  0.00    -0.357 OA
ATOM     38  H3  UNL     1      24.256  49.774  35.357  1.00  0.00     0.217 HD
ENDBRANCH   7  37
TORSDOF 14
ENDMDL