MODEL 4
REMARK VINA RESULT: -9.182155338      1.126      1.940
REMARK  15 active torsions:
REMARK  status: ('A' for Active; 'I' for Inactive)
REMARK    1  A    between atoms: O1_2  and  C2_3
REMARK    2  A    between atoms: C3_4  and  O2_5
REMARK    3  A    between atoms: C4_7  and  O3_8
REMARK    4  A    between atoms: N1_10  and  C5_11
REMARK    5  A    between atoms: C5_11  and  C6_12
REMARK    6  A    between atoms: C7_13  and  C8_14
REMARK    7  A    between atoms: C9_15  and  C10_16
REMARK    8  A    between atoms: C11_17  and  C12_18
REMARK    9  A    between atoms: C13_19  and  C14_20
REMARK   10  A    between atoms: C15_21  and  C16_22
REMARK   11  A    between atoms: C17_23  and  C18_24
REMARK   12  A    between atoms: C18_24  and  C19_25
REMARK   13  A    between atoms: C20_26  and  O4_27
REMARK   14  A    between atoms: C23_33  and  O5_34
REMARK   15  A    between atoms: C24_36  and  O6_37
ROOT
HETATM    1  C10 UNL     1      17.892  55.384  35.448  1.00  0.00     0.000 C
HETATM    2  C11 UNL     1      16.650  55.588  35.832  1.00  0.00     0.000 C
ENDROOT
BRANCH   1   3
HETATM    3  C9  UNL     1      18.977  56.102  36.068  1.00  0.00     0.000 C
HETATM    4  C8  UNL     1      19.860  55.493  36.826  1.00  0.00    -0.000 C
BRANCH   4   5
HETATM    5  C7  UNL     1      19.811  54.077  37.094  1.00  0.00    -0.002 C
HETATM    6  C6  UNL     1      20.688  53.250  36.511  1.00  0.00    -0.007 C
BRANCH   6   7
HETATM    7  C5  UNL     1      20.652  51.799  36.773  1.00  0.00     0.160 C
BRANCH   7   8
HETATM    8  N1  UNL     1      21.798  51.196  36.107  1.00  0.00    -0.300 N
HETATM    9  C4  UNL     1      23.017  51.109  36.658  1.00  0.00     0.181 A
HETATM   10  C3  UNL     1      23.867  50.480  35.748  1.00  0.00     0.155 A
HETATM   11  C2  UNL     1      23.129  50.185  34.621  1.00  0.00     0.157 A
HETATM   12  C24 UNL     1      21.854  50.643  34.881  1.00  0.00     0.181 A
BRANCH   9  13
HETATM   13  O3  UNL     1      23.460  51.536  37.905  1.00  0.00    -0.344 OA
ATOM     14  H3  UNL     1      23.554  50.938  38.637  1.00  0.00     0.219 HD
ENDBRANCH   9  13
BRANCH  10  15
HETATM   15  O2  UNL     1      25.206  50.185  35.900  1.00  0.00    -0.354 OA
ATOM     16  H2  UNL     1      25.787  49.950  35.186  1.00  0.00     0.218 HD
ENDBRANCH  10  15
BRANCH  11  17
HETATM   17  O1  UNL     1      23.591  49.549  33.454  1.00  0.00    -0.349 OA
HETATM   18  C1  UNL     1      23.873  50.380  32.322  1.00  0.00     0.210 C
ENDBRANCH  11  17
BRANCH  12  19
HETATM   19  O6  UNL     1      20.787  50.544  33.997  1.00  0.00    -0.344 OA
ATOM     20  H6  UNL     1      20.519  49.740  33.567  1.00  0.00     0.219 HD
ENDBRANCH  12  19
ENDBRANCH   7   8
ENDBRANCH   6   7
ENDBRANCH   4   5
ENDBRANCH   1   3
BRANCH   2  21
HETATM   21  C12 UNL     1      16.305  56.524  36.873  1.00  0.00     0.000 C
HETATM   22  C13 UNL     1      15.882  55.997  38.053  1.00  0.00     0.000 C
BRANCH  22  23
HETATM   23  C14 UNL     1      15.536  56.922  39.097  1.00  0.00     0.000 C
HETATM   24  C15 UNL     1      14.309  57.295  39.326  1.00  0.00    -0.000 C
BRANCH  24  25
HETATM   25  C16 UNL     1      13.205  56.805  38.545  1.00  0.00    -0.004 C
HETATM   26  C17 UNL     1      12.714  57.480  37.542  1.00  0.00    -0.022 C
BRANCH  26  27
HETATM   27  C18 UNL     1      13.212  58.781  37.102  1.00  0.00     0.073 C
BRANCH  27  28
HETATM   28  C19 UNL     1      12.410  59.824  37.827  1.00  0.00     0.031 A
HETATM   29  C20 UNL     1      12.849  60.679  38.810  1.00  0.00     0.149 A
HETATM   30  N2  UNL     1      11.792  61.425  39.159  1.00  0.00    -0.338 N
HETATM   31  C21 UNL     1      10.715  61.080  38.446  1.00  0.00     0.041 A
ATOM     32  H2  UNL     1      11.807  62.155  39.871  1.00  0.00     0.168 HD
HETATM   33  C22 UNL     1       9.333  61.649  38.511  1.00  0.00     0.071 C
HETATM   34  C23 UNL     1      11.072  60.055  37.579  1.00  0.00     0.098 A
BRANCH  29  35
HETATM   35  O4  UNL     1      14.141  60.718  39.302  1.00  0.00    -0.346 OA
ATOM     36  H4  UNL     1      14.371  60.873  40.211  1.00  0.00     0.219 HD
ENDBRANCH  29  35
BRANCH  34  37
HETATM   37  O5  UNL     1      10.233  59.426  36.674  1.00  0.00    -0.358 OA
ATOM     38  H5  UNL     1       9.318  59.598  36.490  1.00  0.00     0.217 HD
ENDBRANCH  34  37
ENDBRANCH  27  28
ENDBRANCH  26  27
ENDBRANCH  24  25
ENDBRANCH  22  23
ENDBRANCH   2  21
TORSDOF 15
ENDMDL