MODEL 4
REMARK VINA RESULT: -8.967005384      1.034      1.351
REMARK  15 active torsions:
REMARK  status: ('A' for Active; 'I' for Inactive)
REMARK    1  A    between atoms: C2_2  and  C5_9
REMARK    2  A    between atoms: C3_3  and  C4_4
REMARK    3  A    between atoms: N1_5  and  O1_7
REMARK    4  A    between atoms: C5_9  and  C7_11
REMARK    5  A    between atoms: C5_9  and  C11_17
REMARK    6  A    between atoms: C8_12  and  C9_13
REMARK    7  A    between atoms: C9_13  and  C10_14
REMARK    8  A    between atoms: C11_17  and  C12_18
REMARK    9  A    between atoms: C13_19  and  C14_20
REMARK   10  A    between atoms: C14_20  and  C17_23
REMARK   11  A    between atoms: C17_23  and  C18_24
REMARK   12  A    between atoms: C19_25  and  C20_26
REMARK   13  A    between atoms: C22_28  and  O4_29
REMARK   14  A    between atoms: C23_31  and  O5_32
REMARK   15  A    between atoms: C25_35  and  O6_36
ROOT
HETATM    1  C12 UNL     1      19.236  53.888  37.888  1.00  0.00    -0.029 C
HETATM    2  C13 UNL     1      18.157  54.579  37.972  1.00  0.00    -0.022 C
ENDROOT
BRANCH   2   3
HETATM    3  C14 UNL     1      16.728  54.292  37.984  1.00  0.00    -0.027 C
HETATM    4  C15 UNL     1      16.126  54.512  36.625  1.00  0.00     0.019 C
HETATM    5  C16 UNL     1      16.336  52.942  38.506  1.00  0.00     0.019 C
BRANCH   3   6
HETATM    6  C17 UNL     1      16.110  55.321  38.976  1.00  0.00     0.039 C
BRANCH   6   7
HETATM    7  C18 UNL     1      15.219  56.281  38.326  1.00  0.00    -0.025 C
HETATM    8  C19 UNL     1      14.237  56.910  38.985  1.00  0.00     0.010 C
BRANCH   8   9
HETATM    9  C20 UNL     1      13.332  57.865  38.385  1.00  0.00    -0.001 A
HETATM   10  C21 UNL     1      12.974  59.057  38.985  1.00  0.00     0.053 A
HETATM   11  C22 UNL     1      12.100  59.968  38.418  1.00  0.00     0.099 A
HETATM   12  C23 UNL     1      11.558  59.669  37.192  1.00  0.00     0.101 A
HETATM   13  C24 UNL     1      11.888  58.487  36.556  1.00  0.00     0.076 A
HETATM   14  C25 UNL     1      12.780  57.581  37.158  1.00  0.00     0.078 A
BRANCH  11  15
HETATM   15  O4  UNL     1      11.756  61.162  39.041  1.00  0.00    -0.358 OA
ATOM     16  H4  UNL     1      10.943  61.618  38.859  1.00  0.00     0.217 HD
ENDBRANCH  11  15
BRANCH  12  17
HETATM   17  O5  UNL     1      10.673  60.558  36.585  1.00  0.00    -0.358 OA
ATOM     18  H5  UNL     1      10.692  61.479  36.815  1.00  0.00     0.217 HD
ENDBRANCH  12  17
BRANCH  14  19
HETATM   19  O6  UNL     1      13.049  56.448  36.467  1.00  0.00    -0.360 OA
ATOM     20  H6  UNL     1      13.640  56.418  35.724  1.00  0.00     0.217 HD
ENDBRANCH  14  19
ENDBRANCH   8   9
ENDBRANCH   6   7
ENDBRANCH   3   6
ENDBRANCH   2   3
BRANCH   1  21
HETATM   21  C11 UNL     1      19.436  52.449  37.772  1.00  0.00     0.044 C
BRANCH  21  22
HETATM   22  C5  UNL     1      20.436  52.087  36.663  1.00  0.00    -0.000 C
HETATM   23  C6  UNL     1      20.797  53.290  35.847  1.00  0.00     0.025 C
BRANCH  22  24
HETATM   24  C2  UNL     1      19.778  51.081  35.794  1.00  0.00    -0.070 C
HETATM   25  C1  UNL     1      20.532  50.383  34.724  1.00  0.00     0.044 C
HETATM   26  C3  UNL     1      18.515  50.788  35.973  1.00  0.00     0.022 C
BRANCH  26  27
HETATM   27  C4  UNL     1      17.862  49.805  35.148  1.00  0.00     0.114 C
HETATM   28  N1  UNL     1      16.968  49.035  35.634  1.00  0.00    -0.281 N
ATOM     29  H1  UNL     1      16.740  49.144  36.622  1.00  0.00     0.193 HD
BRANCH  28  30
HETATM   30  O1  UNL     1      16.298  48.082  34.937  1.00  0.00    -0.290 OA
ATOM     31  H1  UNL     1      16.387  47.145  35.071  1.00  0.00     0.244 HD
ENDBRANCH  28  30
ENDBRANCH  26  27
ENDBRANCH  22  24
BRANCH  22  32
HETATM   32  C7  UNL     1      21.593  51.455  37.309  1.00  0.00    -0.016 C
HETATM   33  C8  UNL     1      22.845  51.492  36.919  1.00  0.00    -0.019 C
BRANCH  33  34
HETATM   34  C9  UNL     1      23.897  50.800  37.686  1.00  0.00     0.140 C
BRANCH  34  35
HETATM   35  C10 UNL     1      25.137  51.568  37.839  1.00  0.00     0.176 C
HETATM   36  O2  UNL     1      25.391  52.245  38.859  1.00  0.00    -0.648 OA
HETATM   37  O3  UNL     1      26.066  51.546  36.813  1.00  0.00    -0.648 OA
ENDBRANCH  34  35
ENDBRANCH  33  34
ENDBRANCH  22  32
ENDBRANCH  21  22
ENDBRANCH   1  21
TORSDOF 15
ENDMDL