MODEL 4
REMARK VINA RESULT: -9.010089150      1.786      3.062
REMARK  11 active torsions:
REMARK  status: ('A' for Active; 'I' for Inactive)
REMARK    1  A    between atoms: C3_3  and  C4_4
REMARK    2  A    between atoms: C3_3  and  N3_22
REMARK    3  A    between atoms: C4_4  and  C5_5
REMARK    4  A    between atoms: C5_5  and  C6_6
REMARK    5  A    between atoms: C6_6  and  C7_7
REMARK    6  A    between atoms: C7_7  and  N1_8
REMARK    7  A    between atoms: N1_8  and  C8_10
REMARK    8  A    between atoms: N2_12  and  O1_14
REMARK    9  A    between atoms: O1_14  and  S2_15
REMARK   10  A    between atoms: S2_15  and  C9_16
REMARK   11  A    between atoms: N3_22  and  C15_24
ROOT
HETATM    1  C5  UNL     1      17.072  53.132  37.789  1.00  0.00     0.007 C
ENDROOT
BRANCH   1   2
HETATM    2  C4  UNL     1      18.512  53.149  38.147  1.00  0.00     0.057 C
BRANCH   2   3
HETATM    3  C3  UNL     1      19.420  53.897  37.288  1.00  0.00     0.005 C
HETATM    4  C2  UNL     1      19.028  54.880  36.525  1.00  0.00    -0.006 C
HETATM    5  C1  UNL     1      19.975  55.637  35.644  1.00  0.00     0.038 C
BRANCH   3   6
HETATM    6  N3  UNL     1      20.792  53.540  37.273  1.00  0.00    -0.358 N
ATOM      7  H3  UNL     1      21.445  54.132  37.788  1.00  0.00     0.166 HD
BRANCH   6   8
HETATM    8  C15 UNL     1      21.311  52.424  36.595  1.00  0.00     0.058 A
HETATM    9  C16 UNL     1      20.643  51.793  35.585  1.00  0.00     0.060 A
HETATM   10  C17 UNL     1      21.190  50.688  34.937  1.00  0.00     0.072 A
HETATM   11  N4  UNL     1      20.490  50.037  33.886  1.00  0.00    -0.100 NA
HETATM   12  C18 UNL     1      22.444  50.229  35.338  1.00  0.00     0.072 A
HETATM   13  N5  UNL     1      22.970  49.107  34.662  1.00  0.00    -0.100 NA
HETATM   14  C19 UNL     1      23.138  50.851  36.358  1.00  0.00     0.057 A
HETATM   15  C20 UNL     1      22.558  51.944  36.974  1.00  0.00     0.074 A
HETATM   16  N6  UNL     1      23.248  52.604  38.026  1.00  0.00    -0.100 NA
ENDBRANCH   6   8
ENDBRANCH   3   6
ENDBRANCH   2   3
ENDBRANCH   1   2
BRANCH   1  17
HETATM   17  C6  UNL     1      16.127  53.703  38.782  1.00  0.00     0.020 C
BRANCH  17  18
HETATM   18  C7  UNL     1      16.253  55.219  38.866  1.00  0.00     0.121 C
BRANCH  18  19
HETATM   19  N1  UNL     1      14.964  55.791  38.529  1.00  0.00    -0.369 N
ATOM     20  H1  UNL     1      14.230  55.780  39.237  1.00  0.00     0.161 HD
BRANCH  19  21
HETATM   21  C8  UNL     1      14.674  56.361  37.272  1.00  0.00     0.172 C
HETATM   22  S1  UNL     1      15.736  56.081  35.871  1.00  0.00    -0.012 SA
HETATM   23  N2  UNL     1      13.638  57.091  37.127  1.00  0.00    -0.231 N
ATOM     24  H2  UNL     1      13.476  57.478  36.197  1.00  0.00     0.198 HD
BRANCH  23  25
HETATM   25  O1  UNL     1      12.726  57.405  38.087  1.00  0.00    -0.202 OA
BRANCH  25  26
HETATM   26  S2  UNL     1      12.837  58.886  38.937  1.00  0.00     0.025 SA
BRANCH  26  27
HETATM   27  C9  UNL     1      11.276  59.667  39.318  1.00  0.00     0.078 C
HETATM   28  C10 UNL     1      11.364  61.154  39.236  1.00  0.00     0.017 C
HETATM   29  C11 UNL     1      10.095  61.734  38.642  1.00  0.00     0.001 C
HETATM   30  C12 UNL     1       9.910  61.250  37.231  1.00  0.00     0.000 C
HETATM   31  C13 UNL     1       9.938  59.759  37.183  1.00  0.00     0.001 C
HETATM   32  C14 UNL     1      10.104  59.118  38.540  1.00  0.00     0.017 C
ENDBRANCH  26  27
ENDBRANCH  25  26
ENDBRANCH  23  25
ENDBRANCH  19  21
ENDBRANCH  18  19
ENDBRANCH  17  18
ENDBRANCH   1  17
TORSDOF 11
ENDMDL