MODEL 4
REMARK VINA RESULT: -7.804021860      1.066      1.453
REMARK  10 active torsions:
REMARK  status: ('A' for Active; 'I' for Inactive)
REMARK    1  A    between atoms: C4_4  and  C5_5
REMARK    2  A    between atoms: C5_5  and  C7_7
REMARK    3  A    between atoms: C7_7  and  C8_9
REMARK    4  A    between atoms: C9_10  and  C10_11
REMARK    5  A    between atoms: C11_12  and  C12_13
REMARK    6  A    between atoms: C14_15  and  C15_16
REMARK    7  A    between atoms: C15_16  and  O2_17
REMARK    8  A    between atoms: C15_16  and  O3_19
REMARK    9  A    between atoms: C16_21  and  N1_22
REMARK   10  A    between atoms: C21_33  and  O4_34
ROOT
HETATM    1  C8  UNL     1      53.963   8.066  50.889  1.00  0.00     0.057 A
HETATM    2  C9  UNL     1      55.301   7.719  51.225  1.00  0.00     0.011 A
HETATM    3  C16 UNL     1      56.160   8.705  51.710  1.00  0.00     0.086 A
HETATM    4  C17 UNL     1      55.714  10.028  51.875  1.00  0.00     0.074 A
HETATM    5  N3  UNL     1      56.350  11.151  52.319  1.00  0.00    -0.363 N
ATOM      6  H3  UNL     1      57.320  11.204  52.630  1.00  0.00     0.165 HD
HETATM    7  C18 UNL     1      55.482  12.177  52.279  1.00  0.00     0.089 A
HETATM    8  C19 UNL     1      54.269  11.695  51.797  1.00  0.00     0.034 A
HETATM    9  C20 UNL     1      54.434  10.323  51.546  1.00  0.00     0.028 A
HETATM   10  C21 UNL     1      53.558   9.373  51.055  1.00  0.00     0.093 A
ENDROOT
BRANCH   2  11
HETATM   11  C10 UNL     1      55.731   6.390  50.923  1.00  0.00     0.015 C
HETATM   12  C11 UNL     1      55.851   5.210  51.289  1.00  0.00     0.007 C
BRANCH  12  13
HETATM   13  C12 UNL     1      55.594   4.333  52.359  1.00  0.00    -0.061 C
HETATM   14  C13 UNL     1      56.496   3.839  53.417  1.00  0.00     0.048 C
HETATM   15  C14 UNL     1      54.287   3.942  52.524  1.00  0.00     0.039 C
BRANCH  15  16
HETATM   16  C15 UNL     1      53.875   3.029  53.599  1.00  0.00     0.278 C
BRANCH  16  17
HETATM   17  O2  UNL     1      53.715   1.756  53.065  1.00  0.00    -0.368 OA
ATOM     18  H2  UNL     1      52.787   1.583  52.961  1.00  0.00     0.213 HD
ENDBRANCH  16  17
BRANCH  16  19
HETATM   19  O3  UNL     1      52.627   3.463  54.107  1.00  0.00    -0.368 OA
ATOM     20  H3  UNL     1      52.282   2.789  54.681  1.00  0.00     0.213 HD
ENDBRANCH  16  19
ENDBRANCH  15  16
ENDBRANCH  12  13
ENDBRANCH   2  11
BRANCH   1  21
HETATM   21  C7  UNL     1      53.038   7.062  50.466  1.00  0.00     0.170 C
HETATM   22  O1  UNL     1      52.388   6.360  51.276  1.00  0.00    -0.291 OA
BRANCH  21  23
HETATM   23  C5  UNL     1      52.690   6.700  49.048  1.00  0.00     0.079 C
HETATM   24  C6  UNL     1      51.183   6.909  48.977  1.00  0.00     0.022 C
BRANCH  23  25
HETATM   25  C4  UNL     1      52.966   5.253  48.873  1.00  0.00    -0.013 C
HETATM   26  C2  UNL     1      53.805   4.525  48.249  1.00  0.00    -0.091 C
HETATM   27  C1  UNL     1      54.943   4.843  47.367  1.00  0.00     0.042 C
HETATM   28  C3  UNL     1      53.613   3.008  48.455  1.00  0.00     0.042 C
ENDBRANCH  23  25
ENDBRANCH  21  23
ENDBRANCH   1  21
BRANCH   3  29
HETATM   29  N1  UNL     1      57.489   8.502  51.977  1.00  0.00    -0.304 N
HETATM   30  N2  UNL     1      58.110   8.145  52.959  1.00  0.00    -0.345 N
ATOM     31  H22 UNL     1      57.491   7.961  53.749  1.00  0.00     0.176 HD
ATOM     32  H21 UNL     1      59.100   7.994  53.158  1.00  0.00     0.176 HD
ATOM     33  H1  UNL     1      58.090   8.693  51.175  1.00  0.00     0.186 HD
ENDBRANCH   3  29
BRANCH  10  34
HETATM   34  O4  UNL     1      52.302   9.765  50.723  1.00  0.00    -0.359 OA
ATOM     35  H4  UNL     1      52.091  10.683  50.600  1.00  0.00     0.217 HD
ENDBRANCH  10  34
TORSDOF 10
ENDMDL