MODEL 2
REMARK VINA RESULT: -7.921099885      2.625      3.973
REMARK  10 active torsions:
REMARK  status: ('A' for Active; 'I' for Inactive)
REMARK    1  A    between atoms: C2_2  and  C4_4
REMARK    2  A    between atoms: C4_4  and  C5_5
REMARK    3  A    between atoms: C6_6  and  O1_7
REMARK    4  A    between atoms: C7_9  and  O2_10
REMARK    5  A    between atoms: C10_14  and  C11_15
REMARK    6  A    between atoms: C11_15  and  O3_16
REMARK    7  A    between atoms: C12_19  and  C14_21
REMARK    8  A    between atoms: C14_21  and  C15_22
REMARK    9  A    between atoms: C16_23  and  C18_25
REMARK   10  A    between atoms: C18_25  and  C19_26
ROOT
HETATM    1  C5  UNL     1      54.288   7.577  50.319  1.00  0.00    -0.007 A
HETATM    2  C6  UNL     1      55.344   6.916  50.916  1.00  0.00     0.108 A
HETATM    3  C7  UNL     1      56.104   7.521  51.933  1.00  0.00     0.129 A
HETATM    4  C8  UNL     1      55.812   8.802  52.361  1.00  0.00     0.099 A
HETATM    5  C9  UNL     1      54.770   9.466  51.776  1.00  0.00     0.108 A
HETATM    6  C10 UNL     1      54.041   8.852  50.785  1.00  0.00     0.010 A
HETATM    7  O4  UNL     1      54.471  10.737  52.191  1.00  0.00    -0.336 OA
HETATM    8  C12 UNL     1      55.016  11.429  53.273  1.00  0.00     0.083 C
HETATM    9  C13 UNL     1      53.925  11.504  54.344  1.00  0.00     0.049 C
HETATM   10  C20 UNL     1      56.205  10.790  53.891  1.00  0.00     0.158 C
HETATM   11  N1  UNL     1      56.523   9.484  53.374  1.00  0.00    -0.382 N
ATOM     12  H1  UNL     1      57.332   9.009  53.775  1.00  0.00     0.160 HD
ENDROOT
BRANCH   8  13
HETATM   13  C14 UNL     1      55.279  12.879  52.844  1.00  0.00     0.067 C
BRANCH  13  14
HETATM   14  C15 UNL     1      55.814  13.682  53.951  1.00  0.00    -0.021 C
HETATM   15  C16 UNL     1      56.518  14.780  53.834  1.00  0.00    -0.087 C
HETATM   16  C17 UNL     1      56.996  15.490  55.079  1.00  0.00     0.043 C
BRANCH  15  17
HETATM   17  C18 UNL     1      56.907  15.413  52.558  1.00  0.00     0.044 C
BRANCH  17  18
HETATM   18  C19 UNL     1      55.929  16.547  52.221  1.00  0.00     0.090 C
HETATM   19  S1  UNL     1      56.814  18.133  52.368  1.00  0.00    -0.097 SA
ENDBRANCH  17  18
ENDBRANCH  15  17
ENDBRANCH  13  14
ENDBRANCH   8  13
BRANCH   6  20
HETATM   20  C11 UNL     1      52.926   9.619  50.185  1.00  0.00     0.206 C
BRANCH  20  21
HETATM   21  O3  UNL     1      52.052  10.103  51.169  1.00  0.00    -0.396 OA
ATOM     22  H3  UNL     1      52.360   9.889  52.041  1.00  0.00     0.209 HD
ENDBRANCH  20  21
ENDBRANCH   6  20
BRANCH   3  23
HETATM   23  O2  UNL     1      57.154   6.824  52.507  1.00  0.00    -0.356 OA
ATOM     24  H2  UNL     1      58.031   6.922  52.155  1.00  0.00     0.218 HD
ENDBRANCH   3  23
BRANCH   1  25
HETATM   25  C4  UNL     1      53.445   6.949  49.290  1.00  0.00     0.075 C
BRANCH  25  26
HETATM   26  C2  UNL     1      52.177   6.378  49.719  1.00  0.00    -0.089 C
HETATM   27  C1  UNL     1      51.061   6.678  49.047  1.00  0.00     0.014 C
HETATM   28  C3  UNL     1      52.043   5.485  50.881  1.00  0.00     0.043 C
ENDBRANCH  25  26
ENDBRANCH   1  25
BRANCH   2  29
HETATM   29  O1  UNL     1      55.753   5.646  50.583  1.00  0.00    -0.357 OA
ATOM     30  H1  UNL     1      56.636   5.419  50.316  1.00  0.00     0.217 HD
ENDBRANCH   2  29
TORSDOF 10
ENDMDL