MODEL 2
REMARK VINA RESULT: -8.637595806      1.164      1.933
REMARK  11 active torsions:
REMARK  status: ('A' for Active; 'I' for Inactive)
REMARK    1  A    between atoms: C2_2  and  C3_3
REMARK    2  A    between atoms: C3_3  and  C4_4
REMARK    3  A    between atoms: C4_4  and  C5_5
REMARK    4  A    between atoms: C5_5  and  C6_6
REMARK    5  A    between atoms: C6_6  and  C7_7
REMARK    6  A    between atoms: C7_7  and  O1_8
REMARK    7  A    between atoms: O1_8  and  C8_9
REMARK       I    between atoms: C8_9  and  N1_11
REMARK    8  A    between atoms: N1_11  and  C9_13
REMARK    9  A    between atoms: C13_19  and  O3_20
REMARK   10  A    between atoms: C14_24  and  N4_25
REMARK   11  A    between atoms: C18_33  and  O4_34
ROOT
HETATM    1  C9  UNL     1      54.726   8.666  51.642  1.00  0.00     0.072 A
HETATM    2  C10 UNL     1      55.470   7.510  51.825  1.00  0.00     0.064 A
HETATM    3  C11 UNL     1      55.346   6.390  51.027  1.00  0.00     0.062 A
HETATM    4  N2  UNL     1      56.108   5.281  51.259  1.00  0.00    -0.349 N
ATOM      5  H2  UNL     1      56.775   5.284  52.031  1.00  0.00     0.166 HD
HETATM    6  C12 UNL     1      55.993   4.187  50.487  1.00  0.00     0.115 A
HETATM    7  C13 UNL     1      56.583   2.936  50.439  1.00  0.00     0.171 A
HETATM    8  N3  UNL     1      56.042   2.240  49.407  1.00  0.00    -0.320 N
ATOM      9  H3  UNL     1      56.295   1.288  49.141  1.00  0.00     0.169 HD
HETATM   10  C14 UNL     1      55.122   3.001  48.788  1.00  0.00     0.130 A
HETATM   11  C15 UNL     1      55.026   4.233  49.397  1.00  0.00     0.108 A
HETATM   12  N5  UNL     1      54.298   5.348  49.207  1.00  0.00    -0.349 N
ATOM     13  H5  UNL     1      53.624   5.373  48.442  1.00  0.00     0.166 HD
HETATM   14  C16 UNL     1      54.431   6.438  49.997  1.00  0.00     0.062 A
HETATM   15  C17 UNL     1      53.686   7.581  49.805  1.00  0.00     0.070 A
HETATM   16  C18 UNL     1      53.797   8.701  50.588  1.00  0.00     0.094 A
ENDROOT
BRANCH   1  17
HETATM   17  N1  UNL     1      54.838   9.817  52.442  1.00  0.00    -0.300 N
HETATM   18  C8  UNL     1      54.302  10.010  53.725  1.00  0.00     0.365 C
HETATM   19  O2  UNL     1      53.639   9.191  54.361  1.00  0.00    -0.238 OA
ATOM     20  H1  UNL     1      55.367  10.595  52.048  1.00  0.00     0.171 HD
BRANCH  18  21
HETATM   21  O1  UNL     1      54.519  11.246  54.385  1.00  0.00    -0.304 OA
BRANCH  21  22
HETATM   22  C7  UNL     1      55.562  12.103  53.971  1.00  0.00     0.180 C
BRANCH  22  23
HETATM   23  C6  UNL     1      55.030  13.375  53.396  1.00  0.00     0.027 C
BRANCH  23  24
HETATM   24  C5  UNL     1      55.898  13.828  52.239  1.00  0.00     0.002 C
BRANCH  24  25
HETATM   25  C4  UNL     1      57.162  14.483  52.739  1.00  0.00     0.000 C
BRANCH  25  26
HETATM   26  C3  UNL     1      56.817  15.791  53.396  1.00  0.00    -0.000 C
BRANCH  26  27
HETATM   27  C2  UNL     1      57.617  16.024  54.666  1.00  0.00    -0.005 C
HETATM   28  C1  UNL     1      56.857  15.733  55.915  1.00  0.00     0.005 C
ENDBRANCH  26  27
ENDBRANCH  25  26
ENDBRANCH  24  25
ENDBRANCH  23  24
ENDBRANCH  22  23
ENDBRANCH  21  22
ENDBRANCH  18  21
ENDBRANCH   1  17
BRANCH  16  29
HETATM   29  O4  UNL     1      53.026   9.841  50.363  1.00  0.00    -0.358 OA
ATOM     30  H4  UNL     1      52.124   9.763  50.076  1.00  0.00     0.217 HD
ENDBRANCH  16  29
BRANCH   7  31
HETATM   31  O3  UNL     1      57.573   2.477  51.315  1.00  0.00    -0.344 OA
ATOM     32  H3  UNL     1      57.458   2.342  52.248  1.00  0.00     0.219 HD
ENDBRANCH   7  31
BRANCH  10  33
HETATM   33  N4  UNL     1      54.444   2.598  47.768  1.00  0.00    -0.384 N
ATOM     34  H42 UNL     1      54.783   2.520  46.810  1.00  0.00     0.157 HD
ATOM     35  H41 UNL     1      53.468   2.308  47.826  1.00  0.00     0.157 HD
ENDBRANCH  10  33
TORSDOF 11
ENDMDL