MODEL 3
REMARK VINA RESULT: -10.252327313      1.765      2.675
REMARK  14 active torsions:
REMARK  status: ('A' for Active; 'I' for Inactive)
REMARK    1  A    between atoms: C2_2  and  C3_3
REMARK    2  A    between atoms: C2_2  and  C10_12
REMARK    3  A    between atoms: C3_3  and  C4_4
REMARK    4  A    between atoms: C4_4  and  C5_5
REMARK    5  A    between atoms: C6_6  and  O1_7
REMARK    6  A    between atoms: C6_6  and  C7_9
REMARK    7  A    between atoms: C10_12  and  C11_13
REMARK    8  A    between atoms: C11_13  and  C12_14
REMARK    9  A    between atoms: C12_14  and  C14_16
REMARK   10  A    between atoms: C14_16  and  C15_17
REMARK   11  A    between atoms: C15_17  and  C16_18
REMARK   12  A    between atoms: C16_18  and  C18_22
REMARK   13  A    between atoms: C17_19  and  O2_20
REMARK       I    between atoms: C18_22  and  N1_24
REMARK       I    between atoms: N2_26  and  C19_28
REMARK       I    between atoms: C19_28  and  N4_32
REMARK   14  A    between atoms: N4_32  and  O4_34
ROOT
HETATM    1  C16 UNL     1      57.148  10.677  52.567  1.00  0.00     0.033 C
HETATM    2  C17 UNL     1      58.050  10.870  51.610  1.00  0.00     0.143 C
ENDROOT
BRANCH   1   3
HETATM    3  C15 UNL     1      56.093  11.648  52.854  1.00  0.00     0.051 C
BRANCH   3   4
HETATM    4  C14 UNL     1      55.993  12.669  51.717  1.00  0.00     0.038 C
BRANCH   4   5
HETATM    5  C12 UNL     1      55.914  13.973  52.366  1.00  0.00    -0.084 C
HETATM    6  C13 UNL     1      56.092  15.173  51.470  1.00  0.00     0.043 C
BRANCH   5   7
HETATM    7  C11 UNL     1      55.725  14.150  53.660  1.00  0.00     0.003 C
BRANCH   7   8
HETATM    8  C10 UNL     1      56.623  14.821  54.497  1.00  0.00     0.011 C
BRANCH   8   9
HETATM    9  C2  UNL     1      56.589  15.537  55.564  1.00  0.00    -0.046 C
HETATM   10  C1  UNL     1      56.553  16.300  56.699  1.00  0.00     0.023 C
BRANCH   9  11
HETATM   11  C3  UNL     1      57.904  16.545  54.871  1.00  0.00     0.010 C
BRANCH  11  12
HETATM   12  C4  UNL     1      57.618  17.722  54.659  1.00  0.00     0.003 C
BRANCH  12  13
HETATM   13  C5  UNL     1      57.638  18.182  53.219  1.00  0.00     0.032 C
HETATM   14  C6  UNL     1      57.516  19.413  52.927  1.00  0.00     0.046 C
BRANCH  14  15
HETATM   15  O1  UNL     1      57.554  19.752  51.542  1.00  0.00    -0.365 OA
ATOM     16  H1  UNL     1      58.295  20.269  51.247  1.00  0.00     0.217 HD
ENDBRANCH  14  15
BRANCH  14  17
HETATM   17  C7  UNL     1      57.330  20.549  53.842  1.00  0.00     0.034 C
HETATM   18  C8  UNL     1      56.438  21.537  53.062  1.00  0.00     0.016 C
HETATM   19  C9  UNL     1      58.628  21.235  54.216  1.00  0.00     0.016 C
ENDBRANCH  14  17
ENDBRANCH  12  13
ENDBRANCH  11  12
ENDBRANCH   9  11
ENDBRANCH   8   9
ENDBRANCH   7   8
ENDBRANCH   5   7
ENDBRANCH   4   5
ENDBRANCH   3   4
ENDBRANCH   1   3
BRANCH   1  20
HETATM   20  C18 UNL     1      57.159   9.456  53.368  1.00  0.00     0.268 C
HETATM   21  O3  UNL     1      56.075   8.877  53.595  1.00  0.00    -0.266 OA
HETATM   22  N1  UNL     1      58.334   8.884  53.904  1.00  0.00    -0.252 N
HETATM   23  N2  UNL     1      58.278   8.024  54.851  1.00  0.00    -0.128 N
ATOM     24  H1  UNL     1      59.242   9.160  53.530  1.00  0.00     0.191 HD
HETATM   25  C19 UNL     1      59.497   7.467  55.368  1.00  0.00     0.710 C
ATOM     26  H2  UNL     1      57.377   7.738  55.234  1.00  0.00     0.205 HD
HETATM   27  N3  UNL     1      59.546   6.166  55.418  1.00  0.00    -0.232 N
HETATM   28  N4  UNL     1      60.576   8.238  55.799  1.00  0.00    -0.098 N
ATOM     29  H32 UNL     1      58.756   5.602  55.102  1.00  0.00     0.174 HD
ATOM     30  H31 UNL     1      60.411   5.770  55.785  1.00  0.00     0.174 HD
ATOM     31  H4  UNL     1      60.416   9.196  56.112  1.00  0.00     0.213 HD
BRANCH  28  32
HETATM   32  O4  UNL     1      61.821   7.735  55.807  1.00  0.00    -0.276 OA
ATOM     33  H4  UNL     1      62.573   8.297  55.663  1.00  0.00     0.245 HD
ENDBRANCH  28  32
ENDBRANCH   1  20
BRANCH   2  34
HETATM   34  O2  UNL     1      59.038   9.907  51.374  1.00  0.00    -0.372 OA
ATOM     35  H2  UNL     1      59.619   9.995  50.627  1.00  0.00     0.216 HD
ENDBRANCH   2  34
TORSDOF 14
ENDMDL