MODEL 1
REMARK VINA RESULT: -8.427628150      0.000      0.000
REMARK  10 active torsions:
REMARK  status: ('A' for Active; 'I' for Inactive)
REMARK    1  A    between atoms: C3_3  and  N1_4
REMARK    2  A    between atoms: N1_4  and  C4_6
REMARK    3  A    between atoms: C10_14  and  C11_15
REMARK       I    between atoms: C11_15  and  N3_17
REMARK    4  A    between atoms: N3_17  and  C12_18
REMARK    5  A    between atoms: C12_18  and  C13_19
REMARK    6  A    between atoms: C13_19  and  C14_20
REMARK    7  A    between atoms: C14_20  and  C15_21
REMARK    8  A    between atoms: C15_21  and  C16_22
REMARK    9  A    between atoms: C16_22  and  O2_23
REMARK   10  A    between atoms: C16_22  and  N4_25
ROOT
HETATM    1  N4  UNL     1      56.243  17.858  51.982  1.00  0.00    -0.262 NA
HETATM    2  O3  UNL     1      55.375  16.976  51.671  1.00  0.00    -0.217 OA
ATOM      3  H3  UNL     1      54.698  16.318  51.567  1.00  0.00     0.261 HD
ENDROOT
BRANCH   1   4
HETATM    4  C16 UNL     1      57.049  18.641  52.105  1.00  0.00     0.222 C
BRANCH   4   5
HETATM    5  C15 UNL     1      58.000  18.591  53.401  1.00  0.00     0.103 C
BRANCH   5   6
HETATM    6  C14 UNL     1      57.351  17.756  54.439  1.00  0.00     0.015 C
BRANCH   6   7
HETATM    7  C13 UNL     1      57.935  16.408  54.695  1.00  0.00     0.060 C
BRANCH   7   8
HETATM    8  C12 UNL     1      57.033  15.249  54.388  1.00  0.00     0.159 C
BRANCH   8   9
HETATM    9  N3  UNL     1      56.845  14.589  53.295  1.00  0.00    -0.381 NA
HETATM   10  C11 UNL     1      56.643  13.874  52.087  1.00  0.00     0.359 C
HETATM   11  O1  UNL     1      56.868  14.355  50.947  1.00  0.00    -0.248 OA
BRANCH  10  12
HETATM   12  C10 UNL     1      56.139  12.462  52.084  1.00  0.00     0.191 A
HETATM   13  N2  UNL     1      54.839  12.104  51.658  1.00  0.00    -0.335 N
HETATM   14  C9  UNL     1      54.825  10.744  51.735  1.00  0.00     0.063 A
ATOM     15  H2  UNL     1      54.084  12.722  51.361  1.00  0.00     0.168 HD
HETATM   16  C8  UNL     1      53.852   9.763  51.433  1.00  0.00     0.061 A
HETATM   17  C17 UNL     1      56.011  10.287  52.193  1.00  0.00     0.067 A
HETATM   18  C3  UNL     1      54.074   8.411  51.596  1.00  0.00     0.037 A
HETATM   19  C2  UNL     1      55.300   7.948  52.069  1.00  0.00    -0.027 A
HETATM   20  C1  UNL     1      55.666   6.516  52.220  1.00  0.00     0.051 C
HETATM   21  C18 UNL     1      56.213   8.916  52.344  1.00  0.00    -0.025 A
HETATM   22  C19 UNL     1      57.549   8.538  52.924  1.00  0.00     0.051 C
HETATM   23  N5  UNL     1      56.772  11.369  52.389  1.00  0.00    -0.335 N
ATOM     24  H5  UNL     1      57.731  11.340  52.734  1.00  0.00     0.168 HD
BRANCH  18  25
HETATM   25  N1  UNL     1      53.064   7.459  51.361  1.00  0.00    -0.381 N
ATOM     26  H1  UNL     1      52.545   7.144  52.180  1.00  0.00     0.160 HD
BRANCH  25  27
HETATM   27  C4  UNL     1      52.682   6.885  50.127  1.00  0.00     0.019 C
HETATM   28  C5  UNL     1      51.470   7.550  49.543  1.00  0.00     0.037 C
HETATM   29  C6  UNL     1      52.152   5.421  50.418  1.00  0.00     0.037 C
HETATM   30  C7  UNL     1      53.775   6.738  49.117  1.00  0.00     0.037 C
ENDBRANCH  25  27
ENDBRANCH  18  25
ENDBRANCH  10  12
ENDBRANCH   8   9
ENDBRANCH   7   8
ENDBRANCH   6   7
ENDBRANCH   5   6
ENDBRANCH   4   5
BRANCH   4  31
HETATM   31  O2  UNL     1      57.393  19.748  51.289  1.00  0.00    -0.337 OA
ATOM     32  H2  UNL     1      56.674  20.368  51.257  1.00  0.00     0.220 HD
ENDBRANCH   4  31
ENDBRANCH   1   4
TORSDOF 10
ENDMDL