MODEL 4
REMARK VINA RESULT: -9.566760245      1.765      2.298
REMARK  10 active torsions:
REMARK  status: ('A' for Active; 'I' for Inactive)
REMARK    1  A    between atoms: N1_2  and  C2_4
REMARK    2  A    between atoms: C3_5  and  O1_6
REMARK    3  A    between atoms: C4_8  and  O2_9
REMARK    4  A    between atoms: C5_11  and  O3_12
REMARK    5  A    between atoms: C7_17  and  C8_18
REMARK       I    between atoms: C8_18  and  N3_20
REMARK    6  A    between atoms: N3_20  and  C9_22
REMARK    7  A    between atoms: C9_22  and  C10_23
REMARK    8  A    between atoms: C10_23  and  C11_24
REMARK    9  A    between atoms: C11_24  and  C12_25
REMARK   10  A    between atoms: C12_25  and  C13_26
ROOT
HETATM    1  C2  UNL     1      55.860   8.387  51.882  1.00  0.00     0.077 A
HETATM    2  C3  UNL     1      56.620   7.272  52.151  1.00  0.00     0.129 A
HETATM    3  C4  UNL     1      57.527   7.361  53.205  1.00  0.00     0.137 A
HETATM    4  C5  UNL     1      57.675   8.493  53.955  1.00  0.00     0.129 A
HETATM    5  C6  UNL     1      56.910   9.602  53.678  1.00  0.00     0.082 A
HETATM    6  N2  UNL     1      56.821  10.834  54.217  1.00  0.00    -0.349 N
ATOM      7  H2  UNL     1      57.376  11.168  55.005  1.00  0.00     0.166 HD
HETATM    8  C7  UNL     1      55.897  11.559  53.565  1.00  0.00     0.102 A
HETATM    9  C19 UNL     1      55.370  10.766  52.570  1.00  0.00     0.051 A
HETATM   10  C20 UNL     1      55.999   9.541  52.634  1.00  0.00     0.025 A
ENDROOT
BRANCH   8  11
HETATM   11  C8  UNL     1      55.510  12.939  53.847  1.00  0.00     0.268 C
HETATM   12  O4  UNL     1      54.308  13.209  54.040  1.00  0.00    -0.266 OA
HETATM   13  N3  UNL     1      56.460  13.988  53.910  1.00  0.00    -0.356 N
ATOM     14  H3  UNL     1      57.446  13.776  53.754  1.00  0.00     0.162 HD
BRANCH  13  15
HETATM   15  C9  UNL     1      56.068  15.356  54.191  1.00  0.00     0.123 C
BRANCH  15  16
HETATM   16  C10 UNL     1      56.983  15.905  55.235  1.00  0.00     0.020 C
BRANCH  16  17
HETATM   17  C11 UNL     1      58.002  16.868  54.686  1.00  0.00     0.002 C
BRANCH  17  18
HETATM   18  C12 UNL     1      57.479  17.654  53.535  1.00  0.00     0.005 C
BRANCH  18  19
HETATM   19  C13 UNL     1      57.501  19.139  53.696  1.00  0.00    -0.014 C
HETATM   20  C14 UNL     1      57.176  19.821  52.413  1.00  0.00     0.004 C
HETATM   21  C15 UNL     1      57.176  21.333  52.545  1.00  0.00     0.000 C
HETATM   22  C16 UNL     1      58.374  21.825  53.317  1.00  0.00     0.000 C
HETATM   23  C17 UNL     1      58.521  21.122  54.632  1.00  0.00     0.000 C
HETATM   24  C18 UNL     1      58.787  19.643  54.316  1.00  0.00     0.004 C
ENDBRANCH  18  19
ENDBRANCH  17  18
ENDBRANCH  16  17
ENDBRANCH  15  16
ENDBRANCH  13  15
ENDBRANCH   8  11
BRANCH   4  25
HETATM   25  O3  UNL     1      58.582   8.541  54.989  1.00  0.00    -0.356 OA
ATOM     26  H3  UNL     1      58.318   8.826  55.856  1.00  0.00     0.218 HD
ENDBRANCH   4  25
BRANCH   1  27
HETATM   27  N1  UNL     1      54.902   8.390  50.819  1.00  0.00    -0.391 N
HETATM   28  C1  UNL     1      53.554   7.934  50.953  1.00  0.00     0.146 C
ATOM     29  H1  UNL     1      55.200   8.739  49.908  1.00  0.00     0.159 HD
ENDBRANCH   1  27
BRANCH   3  30
HETATM   30  O2  UNL     1      58.274   6.211  53.442  1.00  0.00    -0.356 OA
ATOM     31  H2  UNL     1      59.080   6.346  53.926  1.00  0.00     0.218 HD
ENDBRANCH   3  30
BRANCH   2  32
HETATM   32  O1  UNL     1      56.467   6.125  51.388  1.00  0.00    -0.356 OA
ATOM     33  H1  UNL     1      57.006   5.361  51.561  1.00  0.00     0.218 HD
ENDBRANCH   2  32
TORSDOF 10
ENDMDL