MODEL 3
REMARK VINA RESULT: -9.054795617      1.303      1.927
REMARK  11 active torsions:
REMARK  status: ('A' for Active; 'I' for Inactive)
REMARK    1  A    between atoms: O1_1  and  C1_3
REMARK    2  A    between atoms: C2_6  and  O2_7
REMARK    3  A    between atoms: C4_10  and  N2_11
REMARK    4  A    between atoms: N2_11  and  C5_13
REMARK    5  A    between atoms: C5_13  and  C6_14
REMARK    6  A    between atoms: C6_14  and  C7_15
REMARK    7  A    between atoms: C7_15  and  C8_16
REMARK    8  A    between atoms: C8_16  and  C9_17
REMARK    9  A    between atoms: C9_17  and  C10_18
REMARK   10  A    between atoms: C10_18  and  C11_19
REMARK   11  A    between atoms: C11_19  and  O3_20
ROOT
HETATM    1  N2  UNL     1      56.818   8.850  51.934  1.00  0.00    -0.374 N
ATOM      2  H2  UNL     1      56.954   7.848  51.807  1.00  0.00     0.161 HD
ENDROOT
BRANCH   1   3
HETATM    3  C4  UNL     1      55.629   9.235  51.797  1.00  0.00     0.139 A
HETATM    4  C3  UNL     1      54.925  10.182  52.485  1.00  0.00     0.100 A
HETATM    5  C2  UNL     1      54.897  11.134  53.486  1.00  0.00     0.159 A
HETATM    6  C19 UNL     1      53.646  10.209  51.925  1.00  0.00     0.167 A
HETATM    7  N1  UNL     1      53.670  11.698  53.524  1.00  0.00    -0.315 N
HETATM    8  C1  UNL     1      52.886  11.154  52.583  1.00  0.00     0.180 A
ATOM      9  H1  UNL     1      53.383  12.430  54.173  1.00  0.00     0.170 HD
HETATM   10  O4  UNL     1      53.638   9.329  50.981  1.00  0.00    -0.231 OA
HETATM   11  N3  UNL     1      54.781   8.731  50.870  1.00  0.00    -0.244 N
ATOM     12  H3  UNL     1      55.005   8.000  50.195  1.00  0.00     0.196 HD
BRANCH   5  13
HETATM   13  O2  UNL     1      55.970  11.434  54.301  1.00  0.00    -0.345 OA
ATOM     14  H2  UNL     1      56.540  12.192  54.235  1.00  0.00     0.219 HD
ENDBRANCH   5  13
BRANCH   8  15
HETATM   15  O1  UNL     1      51.551  11.466  52.301  1.00  0.00    -0.344 OA
ATOM     16  H1  UNL     1      51.007  11.110  51.607  1.00  0.00     0.219 HD
ENDBRANCH   8  15
ENDBRANCH   1   3
BRANCH   1  17
HETATM   17  C5  UNL     1      58.008   9.573  52.235  1.00  0.00     0.121 C
BRANCH  17  18
HETATM   18  C6  UNL     1      58.398  10.422  51.021  1.00  0.00     0.020 C
BRANCH  18  19
HETATM   19  C7  UNL     1      58.296  11.875  51.451  1.00  0.00     0.002 C
BRANCH  19  20
HETATM   20  C8  UNL     1      57.262  12.590  50.645  1.00  0.00     0.000 C
BRANCH  20  21
HETATM   21  C9  UNL     1      56.427  13.560  51.451  1.00  0.00     0.003 C
BRANCH  21  22
HETATM   22  C10 UNL     1      57.282  14.140  52.526  1.00  0.00     0.038 C
BRANCH  22  23
HETATM   23  C11 UNL     1      56.581  15.125  53.430  1.00  0.00     0.058 C
HETATM   24  C12 UNL     1      55.969  16.255  52.630  1.00  0.00     0.038 C
HETATM   25  C13 UNL     1      56.933  17.037  51.827  1.00  0.00     0.003 C
HETATM   26  C14 UNL     1      57.098  18.471  52.192  1.00  0.00     0.000 C
HETATM   27  C15 UNL     1      56.962  18.780  53.652  1.00  0.00     0.000 C
HETATM   28  C16 UNL     1      57.962  18.018  54.501  1.00  0.00     0.000 C
HETATM   29  C17 UNL     1      57.218  16.867  55.140  1.00  0.00     0.003 C
HETATM   30  C18 UNL     1      57.604  15.619  54.421  1.00  0.00     0.038 C
BRANCH  23  31
HETATM   31  O3  UNL     1      55.508  14.474  54.060  1.00  0.00    -0.390 OA
ATOM     32  H3  UNL     1      55.847  13.741  54.560  1.00  0.00     0.210 HD
ENDBRANCH  23  31
ENDBRANCH  22  23
ENDBRANCH  21  22
ENDBRANCH  20  21
ENDBRANCH  19  20
ENDBRANCH  18  19
ENDBRANCH  17  18
ENDBRANCH   1  17
TORSDOF 11
ENDMDL