MODEL 5
REMARK VINA RESULT: -7.625573754      1.748      2.785
REMARK  12 active torsions:
REMARK  status: ('A' for Active; 'I' for Inactive)
REMARK    1  A    between atoms: C2_2  and  C4_4
REMARK    2  A    between atoms: C5_5  and  C6_6
REMARK    3  A    between atoms: C8_9  and  O2_10
REMARK    4  A    between atoms: C10_15  and  N2_16
REMARK    5  A    between atoms: N2_16  and  N3_18
REMARK    6  A    between atoms: C11_21  and  C12_22
REMARK    7  A    between atoms: C13_23  and  C14_24
REMARK    8  A    between atoms: C14_24  and  C15_25
REMARK    9  A    between atoms: C15_25  and  C16_26
REMARK   10  A    between atoms: C16_26  and  C17_27
REMARK   11  A    between atoms: C19_29  and  O3_30
REMARK   12  A    between atoms: C21_33  and  O4_34
ROOT
HETATM    1  C4  UNL     1      53.839   5.240  50.779  1.00  0.00     0.020 A
HETATM    2  C5  UNL     1      54.970   4.516  50.761  1.00  0.00     0.058 A
HETATM    3  C8  UNL     1      56.124   5.085  51.356  1.00  0.00     0.108 A
HETATM    4  C9  UNL     1      56.083   6.328  51.924  1.00  0.00     0.084 A
HETATM    5  N1  UNL     1      57.209   6.846  52.487  1.00  0.00    -0.338 N
ATOM      6  H1  UNL     1      58.064   6.291  52.472  1.00  0.00     0.167 HD
HETATM    7  C10 UNL     1      57.236   8.038  53.053  1.00  0.00     0.133 A
HETATM    8  C11 UNL     1      56.084   8.848  53.104  1.00  0.00     0.043 A
HETATM    9  C19 UNL     1      54.942   8.351  52.541  1.00  0.00     0.095 A
HETATM   10  C20 UNL     1      54.956   7.063  51.946  1.00  0.00     0.062 A
HETATM   11  C21 UNL     1      53.816   6.548  51.381  1.00  0.00     0.092 A
ENDROOT
BRANCH   8  12
HETATM   12  C12 UNL     1      56.296  10.159  53.687  1.00  0.00     0.014 C
HETATM   13  C13 UNL     1      56.079  11.367  53.400  1.00  0.00    -0.026 C
BRANCH  13  14
HETATM   14  C14 UNL     1      55.469  12.093  52.291  1.00  0.00     0.027 C
BRANCH  14  15
HETATM   15  C15 UNL     1      54.059  12.503  52.577  1.00  0.00     0.004 C
BRANCH  15  16
HETATM   16  C16 UNL     1      53.891  12.890  54.016  1.00  0.00    -0.000 C
BRANCH  16  17
HETATM   17  C17 UNL     1      52.616  12.458  54.649  1.00  0.00    -0.005 C
HETATM   18  C18 UNL     1      52.728  11.025  55.157  1.00  0.00     0.005 C
ENDBRANCH  16  17
ENDBRANCH  15  16
ENDBRANCH  14  15
ENDBRANCH  13  14
ENDBRANCH   8  12
BRANCH   7  19
HETATM   19  N2  UNL     1      58.327   8.480  53.578  1.00  0.00    -0.291 N
ATOM     20  H2  UNL     1      58.743   9.345  53.234  1.00  0.00     0.188 HD
BRANCH  19  21
HETATM   21  N3  UNL     1      58.934   7.785  54.608  1.00  0.00    -0.344 N
ATOM     22  H32 UNL     1      58.787   8.096  55.568  1.00  0.00     0.176 HD
ATOM     23  H31 UNL     1      59.520   6.975  54.404  1.00  0.00     0.176 HD
ENDBRANCH  19  21
ENDBRANCH   7  19
BRANCH   9  24
HETATM   24  O3  UNL     1      53.793   8.998  52.495  1.00  0.00    -0.359 OA
ATOM     25  H3  UNL     1      53.042   8.719  51.986  1.00  0.00     0.217 HD
ENDBRANCH   9  24
BRANCH  11  26
HETATM   26  O4  UNL     1      52.623   7.151  51.322  1.00  0.00    -0.359 OA
ATOM     27  H4  UNL     1      52.616   7.940  50.793  1.00  0.00     0.217 HD
ENDBRANCH  11  26
BRANCH   3  28
HETATM   28  O2  UNL     1      57.257   4.339  51.331  1.00  0.00    -0.357 OA
ATOM     29  H2  UNL     1      57.507   3.911  52.142  1.00  0.00     0.217 HD
ENDBRANCH   3  28
BRANCH   1  30
HETATM   30  C2  UNL     1      52.514   4.823  50.273  1.00  0.00    -0.057 C
HETATM   31  C1  UNL     1      51.689   4.196  51.082  1.00  0.00     0.019 C
HETATM   32  C3  UNL     1      52.175   5.008  48.858  1.00  0.00     0.048 C
ENDBRANCH   1  30
BRANCH   2  33
HETATM   33  C6  UNL     1      55.101   3.214  50.163  1.00  0.00     0.159 C
HETATM   34  C7  UNL     1      54.691   1.922  50.664  1.00  0.00     0.097 C
HETATM   35  O1  UNL     1      55.666   3.189  49.001  1.00  0.00    -0.293 OA
ENDBRANCH   2  33
TORSDOF 12
ENDMDL