MODEL 4
REMARK VINA RESULT: -8.477592167      3.108      7.487
REMARK  9 active torsions:
REMARK  status: ('A' for Active; 'I' for Inactive)
REMARK    1  A    between atoms: C2_2  and  C3_3
REMARK    2  A    between atoms: C3_3  and  N1_4
REMARK    3  A    between atoms: N1_4  and  C4_5
REMARK    4  A    between atoms: N1_4  and  C15_22
REMARK    5  A    between atoms: C4_5  and  C5_6
REMARK    6  A    between atoms: C7_8  and  N2_9
REMARK    7  A    between atoms: C15_22  and  C16_23
REMARK    8  A    between atoms: C18_27  and  N5_28
REMARK    9  A    between atoms: C19_33  and  N7_34
ROOT
HETATM    1  N1  UNL     1      56.713  13.142  52.373  1.00  0.00     0.097 N
ENDROOT
BRANCH   1   2
HETATM    2  C3  UNL     1      57.356  14.425  52.371  1.00  0.00     0.273 C
BRANCH   2   3
HETATM    3  C2  UNL     1      56.777  15.453  53.303  1.00  0.00     0.026 C
HETATM    4  C1  UNL     1      56.924  15.187  54.752  1.00  0.00     0.007 C
ENDBRANCH   2   3
ENDBRANCH   1   2
BRANCH   1   5
HETATM    5  C4  UNL     1      57.479  12.231  51.584  1.00  0.00     0.311 C
BRANCH   5   6
HETATM    6  C5  UNL     1      57.451  10.826  51.954  1.00  0.00    -0.025 A
HETATM    7  C6  UNL     1      56.756   9.900  51.202  1.00  0.00     0.040 A
HETATM    8  C7  UNL     1      56.692   8.557  51.544  1.00  0.00     0.061 A
HETATM    9  C8  UNL     1      57.361   8.164  52.688  1.00  0.00     0.034 A
HETATM   10  C9  UNL     1      57.490   6.938  53.294  1.00  0.00    -0.017 A
HETATM   11  C13 UNL     1      58.077   9.056  53.485  1.00  0.00     0.089 A
HETATM   12  C10 UNL     1      56.881   5.683  52.780  1.00  0.00     0.052 C
HETATM   13  C11 UNL     1      58.272   7.128  54.423  1.00  0.00     0.056 A
HETATM   14  C12 UNL     1      58.633   6.009  55.354  1.00  0.00     0.077 C
HETATM   15  O1  UNL     1      58.597   8.389  54.497  1.00  0.00    -0.314 OA
HETATM   16  C14 UNL     1      58.088  10.369  53.072  1.00  0.00     0.047 A
BRANCH   8  17
HETATM   17  N2  UNL     1      55.981   7.600  50.782  1.00  0.00    -0.306 N
HETATM   18  N3  UNL     1      54.801   7.897  50.429  1.00  0.00    -0.345 N
ATOM     19  H32 UNL     1      54.394   8.795  50.692  1.00  0.00     0.176 HD
ATOM     20  H31 UNL     1      54.288   7.207  49.879  1.00  0.00     0.176 HD
ATOM     21  H2  UNL     1      56.402   6.706  50.526  1.00  0.00     0.186 HD
ENDBRANCH   8  17
ENDBRANCH   5   6
ENDBRANCH   1   5
BRANCH   1  22
HETATM   22  C15 UNL     1      55.390  13.268  51.875  1.00  0.00     0.316 C
BRANCH  22  23
HETATM   23  C16 UNL     1      54.315  12.577  52.597  1.00  0.00     0.030 A
HETATM   24  C17 UNL     1      54.053  12.911  53.919  1.00  0.00     0.118 A
HETATM   25  N4  UNL     1      53.127  12.172  54.572  1.00  0.00    -0.201 N
HETATM   26  C18 UNL     1      52.455  11.146  54.011  1.00  0.00     0.677 A
ATOM     27  H4  UNL     1      52.924  12.405  55.545  1.00  0.00     0.183 HD
HETATM   28  N6  UNL     1      52.700  10.818  52.724  1.00  0.00    -0.177 N
HETATM   29  C19 UNL     1      53.608  11.515  52.029  1.00  0.00     0.124 A
ATOM     30  H6  UNL     1      52.197  10.045  52.285  1.00  0.00     0.185 HD
BRANCH  26  31
HETATM   31  N5  UNL     1      51.600  10.500  54.718  1.00  0.00    -0.234 N
ATOM     32  H52 UNL     1      50.660  10.862  54.882  1.00  0.00     0.174 HD
ATOM     33  H51 UNL     1      51.868   9.603  55.122  1.00  0.00     0.174 HD
ENDBRANCH  26  31
BRANCH  29  34
HETATM   34  N7  UNL     1      53.841  11.280  50.797  1.00  0.00    -0.385 N
ATOM     35  H72 UNL     1      54.118  10.355  50.468  1.00  0.00     0.157 HD
ATOM     36  H71 UNL     1      53.695  12.059  50.155  1.00  0.00     0.157 HD
ENDBRANCH  29  34
ENDBRANCH  22  23
ENDBRANCH   1  22
TORSDOF 9
ENDMDL