MODEL 5
REMARK VINA RESULT: -7.940121791      2.042      2.778
REMARK  14 active torsions:
REMARK  status: ('A' for Active; 'I' for Inactive)
REMARK    1  A    between atoms: C1_4  and  O1_5
REMARK    2  A    between atoms: C1_4  and  C2_7
REMARK    3  A    between atoms: C2_7  and  C3_8
REMARK    4  A    between atoms: C3_8  and  C4_9
REMARK    5  A    between atoms: C3_8  and  C6_17
REMARK    6  A    between atoms: C4_9  and  C5_10
REMARK    7  A    between atoms: C5_10  and  O2_11
REMARK    8  A    between atoms: N2_13  and  O3_15
REMARK    9  A    between atoms: C6_17  and  N3_18
REMARK   10  A    between atoms: C7_20  and  C8_21
REMARK   11  A    between atoms: C8_21  and  C9_22
REMARK   12  A    between atoms: C9_22  and  O4_23
REMARK   13  A    between atoms: N4_25  and  O5_27
REMARK   14  A    between atoms: N5_29  and  C10_31
ROOT
HETATM    1  C6  UNL     1      55.686  10.364  51.641  1.00  0.00     0.082 C
HETATM    2  N5  UNL     1      55.480  11.495  52.079  1.00  0.00    -0.375 N
ATOM      3  H5  UNL     1      56.376  11.979  52.139  1.00  0.00     0.161 HD
ENDROOT
BRANCH   1   4
HETATM    4  C3  UNL     1      54.792   9.227  51.343  1.00  0.00     0.068 C
BRANCH   4   5
HETATM    5  C2  UNL     1      53.471   9.581  50.769  1.00  0.00     0.096 C
BRANCH   5   6
HETATM    6  C1  UNL     1      52.890   8.517  49.907  1.00  0.00     0.109 C
HETATM    7  N1  UNL     1      51.606   8.255  49.922  1.00  0.00    -0.384 N
ATOM      8  H12 UNL     1      51.208   7.526  49.331  1.00  0.00     0.157 HD
ATOM      9  H11 UNL     1      51.052   8.828  50.559  1.00  0.00     0.157 HD
BRANCH   6  10
HETATM   10  O1  UNL     1      53.637   7.742  49.048  1.00  0.00    -0.350 OA
ATOM     11  H1  UNL     1      54.503   7.508  49.362  1.00  0.00     0.219 HD
ENDBRANCH   6  10
ENDBRANCH   5   6
ENDBRANCH   4   5
BRANCH   4  12
HETATM   12  C4  UNL     1      54.784   8.199  52.443  1.00  0.00     0.098 C
BRANCH  12  13
HETATM   13  C5  UNL     1      55.290   6.880  52.092  1.00  0.00     0.136 C
HETATM   14  N2  UNL     1      54.452   5.937  51.781  1.00  0.00    -0.251 N
ATOM     15  H2  UNL     1      54.801   5.011  51.533  1.00  0.00     0.196 HD
BRANCH  13  16
HETATM   16  O2  UNL     1      56.621   6.497  52.050  1.00  0.00    -0.348 OA
ATOM     17  H2  UNL     1      57.050   5.887  52.639  1.00  0.00     0.219 HD
ENDBRANCH  13  16
BRANCH  14  18
HETATM   18  O3  UNL     1      53.103   6.177  51.783  1.00  0.00    -0.288 OA
ATOM     19  H3  UNL     1      52.582   5.995  52.556  1.00  0.00     0.244 HD
ENDBRANCH  14  18
ENDBRANCH  12  13
ENDBRANCH   4  12
ENDBRANCH   1   4
BRANCH   1  20
HETATM   20  N3  UNL     1      57.098  10.047  51.345  1.00  0.00    -0.359 N
HETATM   21  C7  UNL     1      57.885   9.709  52.285  1.00  0.00     0.070 C
ATOM     22  H3  UNL     1      57.443  10.099  50.387  1.00  0.00     0.166 HD
BRANCH  21  23
HETATM   23  C8  UNL     1      57.531   9.591  53.714  1.00  0.00     0.130 C
BRANCH  23  24
HETATM   24  C9  UNL     1      58.252   8.449  54.361  1.00  0.00     0.140 C
HETATM   25  N4  UNL     1      58.867   7.583  53.646  1.00  0.00    -0.251 N
ATOM     26  H4  UNL     1      58.854   7.689  52.632  1.00  0.00     0.196 HD
BRANCH  24  27
HETATM   27  O4  UNL     1      58.275   8.293  55.738  1.00  0.00    -0.348 OA
ATOM     28  H4  UNL     1      57.590   7.821  56.197  1.00  0.00     0.219 HD
ENDBRANCH  24  27
BRANCH  25  29
HETATM   29  O5  UNL     1      59.535   6.530  54.180  1.00  0.00    -0.288 OA
ATOM     30  H5  UNL     1      59.122   5.692  54.352  1.00  0.00     0.244 HD
ENDBRANCH  25  29
ENDBRANCH  23  24
ENDBRANCH  21  23
ENDBRANCH   1  20
BRANCH   2  31
HETATM   31  C10 UNL     1      54.495  12.356  52.521  1.00  0.00     0.082 C
HETATM   32  C11 UNL     1      54.680  12.745  54.009  1.00  0.00     0.025 C
HETATM   33  C12 UNL     1      56.122  12.961  54.341  1.00  0.00     0.002 C
HETATM   34  C13 UNL     1      56.441  14.427  54.561  1.00  0.00     0.000 C
HETATM   35  C14 UNL     1      57.101  14.924  53.291  1.00  0.00     0.000 C
HETATM   36  C15 UNL     1      56.069  15.400  52.289  1.00  0.00     0.000 C
HETATM   37  C16 UNL     1      55.727  14.235  51.392  1.00  0.00     0.002 C
HETATM   38  C17 UNL     1      54.397  13.661  51.739  1.00  0.00     0.025 C
ENDBRANCH   2  31
TORSDOF 14
ENDMDL