MODEL 5
REMARK VINA RESULT: -6.882713398      3.640      7.359
REMARK  9 active torsions:
REMARK  status: ('A' for Active; 'I' for Inactive)
REMARK    1  A    between atoms: C4_4  and  C5_5
REMARK    2  A    between atoms: C6_6  and  C7_7
REMARK    3  A    between atoms: C7_7  and  C8_8
REMARK    4  A    between atoms: C8_8  and  C9_9
REMARK    5  A    between atoms: C10_10  and  N1_11
REMARK    6  A    between atoms: N1_11  and  C11_12
REMARK    7  A    between atoms: C11_12  and  C12_13
REMARK    8  A    between atoms: C12_13  and  C13_14
REMARK    9  A    between atoms: C14_17  and  C15_18
ROOT
HETATM    1  C1  UNL     1      12.538 -10.454  21.617  1.00  0.00     0.027 C
HETATM    2  C2  UNL     1      13.668 -10.737  21.276  1.00  0.00    -0.025 C
HETATM    3  C3  UNL     1      14.995 -11.057  20.876  1.00  0.00    -0.002 C
HETATM    4  C4  UNL     1      16.130 -11.317  20.550  1.00  0.00    -0.001 C
ENDROOT
BRANCH   4   5
HETATM    5  C5  UNL     1      17.468 -11.600  20.159  1.00  0.00    -0.014 C
HETATM    6  C6  UNL     1      18.612 -11.824  19.825  1.00  0.00    -0.092 C
BRANCH   6   7
HETATM    7  C7  UNL     1      20.004 -12.071  19.427  1.00  0.00     0.098 C
BRANCH   7   8
HETATM    8  C8  UNL     1      20.600 -12.936  20.563  1.00  0.00     0.040 C
BRANCH   8   9
HETATM    9  C9  UNL     1      19.756 -14.147  20.636  1.00  0.00    -0.001 C
HETATM   10  C10 UNL     1      20.045 -15.255  21.521  1.00  0.00     0.205 C
BRANCH  10  11
HETATM   11  N1  UNL     1      20.083 -15.197  22.960  1.00  0.00     0.024 N
HETATM   12  C14 UNL     1      20.531 -16.365  23.608  1.00  0.00     0.326 C
HETATM   13  C16 UNL     1      19.756 -16.385  24.969  1.00  0.00     0.287 C
HETATM   14  N3  UNL     1      18.464 -15.989  24.517  1.00  0.00    -0.017 N
HETATM   15  C17 UNL     1      17.738 -15.200  25.517  1.00  0.00     0.277 C
HETATM   16  C18 UNL     1      17.657 -17.227  24.527  1.00  0.00     0.277 C
HETATM   17  C19 UNL     1      18.588 -15.393  23.263  1.00  0.00     0.393 C
HETATM   18  C20 UNL     1      17.814 -14.164  23.016  1.00  0.00     0.219 C
HETATM   19  N5  UNL     1      18.014 -16.320  22.316  1.00  0.00    -0.284 N
HETATM   20  N4  UNL     1      16.613 -14.538  22.310  1.00  0.00    -0.337 N
HETATM   21  C21 UNL     1      16.694 -15.886  21.979  1.00  0.00     0.319 C
ATOM     22  H4  UNL     1      15.834 -13.917  22.091  1.00  0.00     0.164 HD
HETATM   23  O4  UNL     1      15.797 -16.601  21.480  1.00  0.00    -0.247 OA
ATOM     24  H5  UNL     1      18.476 -17.152  21.948  1.00  0.00     0.168 HD
BRANCH  11  25
HETATM   25  C11 UNL     1      20.491 -13.946  23.372  1.00  0.00     0.258 C
BRANCH  25  26
HETATM   26  C12 UNL     1      21.741 -13.521  23.977  1.00  0.00     0.128 C
BRANCH  26  27
HETATM   27  C13 UNL     1      21.510 -13.231  25.470  1.00  0.00     0.232 C
HETATM   28  N2  UNL     1      20.776 -12.072  25.797  1.00  0.00    -0.062 NA
HETATM   29  O1  UNL     1      21.946 -13.974  26.355  1.00  0.00    -0.277 OA
ENDBRANCH  26  27
ENDBRANCH  25  26
ENDBRANCH  11  25
BRANCH  12  30
HETATM   30  C15 UNL     1      21.857 -16.733  23.955  1.00  0.00     0.207 C
HETATM   31  O2  UNL     1      22.499 -16.964  24.978  1.00  0.00    -0.646 OA
HETATM   32  O3  UNL     1      22.756 -16.897  22.844  1.00  0.00    -0.646 OA
ENDBRANCH  12  30
ENDBRANCH  10  11
ENDBRANCH   8   9
ENDBRANCH   7   8
ENDBRANCH   6   7
ENDBRANCH   4   5
TORSDOF 9
ENDMDL