MODEL 5
REMARK VINA RESULT: -6.413537910      2.491      4.198
REMARK  12 active torsions:
REMARK  status: ('A' for Active; 'I' for Inactive)
REMARK    1  A    between atoms: C5_6  and  C6_7
REMARK    2  A    between atoms: C6_7  and  C7_8
REMARK       I    between atoms: C7_8  and  N2_10
REMARK    3  A    between atoms: N2_10  and  C8_12
REMARK    4  A    between atoms: C8_12  and  C9_13
REMARK    5  A    between atoms: C10_14  and  C11_15
REMARK    6  A    between atoms: C11_15  and  N3_16
REMARK    7  A    between atoms: N3_16  and  C12_17
REMARK    8  A    between atoms: C12_17  and  C13_18
REMARK    9  A    between atoms: C13_18  and  N4_19
REMARK   10  A    between atoms: C16_22  and  O2_23
REMARK   11  A    between atoms: C17_25  and  C18_26
REMARK   12  A    between atoms: C18_26  and  O3_27
ROOT
HETATM    1  N3  UNL     1      12.561 -16.253  20.483  1.00  0.00    -0.052 N
HETATM    2  C20 UNL     1      11.360 -17.065  20.455  1.00  0.00     0.266 A
HETATM    3  C21 UNL     1      11.758 -16.189  19.287  1.00  0.00     0.266 A
ENDROOT
BRANCH   1   4
HETATM    4  C11 UNL     1      13.790 -17.003  20.352  1.00  0.00     0.331 C
BRANCH   4   5
HETATM    5  C10 UNL     1      14.356 -17.355  21.655  1.00  0.00    -0.077 C
HETATM    6  C9  UNL     1      14.835 -17.667  22.731  1.00  0.00    -0.085 C
BRANCH   6   7
HETATM    7  C8  UNL     1      15.426 -18.027  24.027  1.00  0.00     0.217 C
BRANCH   7   8
HETATM    8  N2  UNL     1      16.360 -17.046  24.491  1.00  0.00    -0.351 N
HETATM    9  C7  UNL     1      17.727 -17.334  24.568  1.00  0.00     0.218 C
HETATM   10  O1  UNL     1      18.141 -18.461  24.228  1.00  0.00    -0.274 OA
ATOM     11  H2  UNL     1      16.024 -16.124  24.771  1.00  0.00     0.163 HD
BRANCH   9  12
HETATM   12  C6  UNL     1      18.680 -16.312  25.050  1.00  0.00     0.109 C
BRANCH  12  13
HETATM   13  C5  UNL     1      18.540 -15.049  24.230  1.00  0.00     0.022 C
HETATM   14  C4  UNL     1      19.346 -13.946  24.922  1.00  0.00     0.034 C
HETATM   15  C3  UNL     1      19.912 -13.139  23.798  1.00  0.00     0.237 C
HETATM   16  N1  UNL     1      19.435 -13.713  22.576  1.00  0.00    -0.074 N
HETATM   17  C1  UNL     1      18.158 -13.202  22.152  1.00  0.00     0.272 C
HETATM   18  C2  UNL     1      20.450 -13.520  21.562  1.00  0.00     0.272 C
HETATM   19  C22 UNL     1      19.261 -15.116  22.905  1.00  0.00     0.241 C
ENDBRANCH  12  13
ENDBRANCH   9  12
ENDBRANCH   7   8
ENDBRANCH   6   7
ENDBRANCH   4   5
ENDBRANCH   1   4
BRANCH   1  20
HETATM   20  C12 UNL     1      12.631 -15.128  21.370  1.00  0.00     0.266 C
BRANCH  20  21
HETATM   21  C13 UNL     1      12.280 -13.822  20.705  1.00  0.00     0.265 C
BRANCH  21  22
HETATM   22  N4  UNL     1      13.457 -12.982  20.649  1.00  0.00    -0.066 N
HETATM   23  C14 UNL     1      14.414 -13.310  21.684  1.00  0.00     0.272 C
HETATM   24  C15 UNL     1      13.011 -11.596  20.735  1.00  0.00     0.269 C
HETATM   25  C16 UNL     1      14.086 -10.785  20.038  1.00  0.00     0.152 C
HETATM   26  C17 UNL     1      14.612 -11.739  18.985  1.00  0.00     0.066 C
HETATM   27  C19 UNL     1      14.147 -13.102  19.377  1.00  0.00     0.246 C
BRANCH  25  28
HETATM   28  O2  UNL     1      13.454  -9.692  19.447  1.00  0.00    -0.393 OA
ATOM     29  H2  UNL     1      13.975  -9.445  18.692  1.00  0.00     0.210 HD
ENDBRANCH  25  28
BRANCH  26  30
HETATM   30  C18 UNL     1      16.109 -11.596  18.953  1.00  0.00     0.173 C
BRANCH  30  31
HETATM   31  O3  UNL     1      16.518 -10.626  19.865  1.00  0.00    -0.400 OA
ATOM     32  H3  UNL     1      17.210 -10.094  19.489  1.00  0.00     0.209 HD
ENDBRANCH  30  31
ENDBRANCH  26  30
ENDBRANCH  21  22
ENDBRANCH  20  21
ENDBRANCH   1  20
TORSDOF 12
ENDMDL