MODEL 3
REMARK VINA RESULT: -7.830302111      0.964      1.088
REMARK  9 active torsions:
REMARK  status: ('A' for Active; 'I' for Inactive)
REMARK    1  A    between atoms: C2_2  and  N1_3
REMARK    2  A    between atoms: N1_3  and  C3_4
REMARK    3  A    between atoms: C3_4  and  C4_5
REMARK    4  A    between atoms: C4_5  and  N2_6
REMARK    5  A    between atoms: N3_9  and  C7_10
REMARK    6  A    between atoms: C7_10  and  C8_11
REMARK       I    between atoms: C8_11  and  N4_13
REMARK    7  A    between atoms: N4_13  and  C9_15
REMARK    8  A    between atoms: C9_15  and  C10_16
REMARK    9  A    between atoms: C10_16  and  O2_17
ROOT
HETATM    1  N2  UNL     1      15.721 -12.230  19.804  1.00  0.00    -0.038 N
HETATM    2  C5  UNL     1      14.856 -11.963  18.712  1.00  0.00     0.268 C
HETATM    3  C6  UNL     1      13.782 -11.091  19.391  1.00  0.00     0.273 C
HETATM    4  N3  UNL     1      14.272 -10.859  20.704  1.00  0.00    -0.014 N
HETATM    5  C11 UNL     1      14.113 -12.040  21.523  1.00  0.00     0.273 C
HETATM    6  C12 UNL     1      15.086 -13.015  20.839  1.00  0.00     0.268 C
HETATM    7  C13 UNL     1      15.731 -10.910  20.467  1.00  0.00     0.479 C
ENDROOT
BRANCH   1   8
HETATM    8  C4  UNL     1      17.052 -12.646  19.478  1.00  0.00     0.268 C
BRANCH   8   9
HETATM    9  C3  UNL     1      17.598 -13.590  20.480  1.00  0.00     0.271 C
BRANCH   9  10
HETATM   10  N1  UNL     1      18.882 -13.235  21.069  1.00  0.00    -0.045 N
HETATM   11  C14 UNL     1      18.677 -12.724  22.377  1.00  0.00     0.207 C
HETATM   12  C15 UNL     1      19.292 -13.341  23.561  1.00  0.00    -0.039 C
HETATM   13  C16 UNL     1      20.681 -13.838  23.512  1.00  0.00     0.038 C
HETATM   14  C21 UNL     1      18.353 -14.303  24.312  1.00  0.00     0.158 C
HETATM   15  C17 UNL     1      20.930 -15.171  22.914  1.00  0.00     0.020 C
HETATM   16  C18 UNL     1      19.926 -15.402  21.776  1.00  0.00     0.104 C
HETATM   17  C19 UNL     1      19.893 -14.220  20.932  1.00  0.00     0.257 C
HETATM   18  C20 UNL     1      18.720 -15.917  22.385  1.00  0.00     0.223 C
HETATM   19  O3  UNL     1      18.090 -16.874  21.823  1.00  0.00    -0.273 OA
HETATM   20  N5  UNL     1      18.085 -15.495  23.592  1.00  0.00    -0.357 N
ATOM     21  H5  UNL     1      17.368 -16.112  23.975  1.00  0.00     0.162 HD
BRANCH  10  22
HETATM   22  C2  UNL     1      19.288 -12.107  20.199  1.00  0.00     0.238 C
HETATM   23  C1  UNL     1      20.654 -12.171  19.660  1.00  0.00     0.035 C
ENDBRANCH  10  22
ENDBRANCH   9  10
ENDBRANCH   8   9
ENDBRANCH   1   8
BRANCH   4  24
HETATM   24  C7  UNL     1      13.990  -9.637  21.324  1.00  0.00     0.278 C
BRANCH  24  25
HETATM   25  C8  UNL     1      12.625  -9.537  21.922  1.00  0.00     0.265 C
HETATM   26  O1  UNL     1      11.660  -9.200  21.216  1.00  0.00    -0.267 OA
HETATM   27  N4  UNL     1      12.458  -9.830  23.288  1.00  0.00    -0.354 N
ATOM     28  H4  UNL     1      13.313 -10.087  23.782  1.00  0.00     0.162 HD
BRANCH  27  29
HETATM   29  C9  UNL     1      11.283  -9.824  24.085  1.00  0.00     0.148 C
BRANCH  29  30
HETATM   30  C10 UNL     1      10.885 -11.167  24.610  1.00  0.00     0.183 C
BRANCH  30  31
HETATM   31  O2  UNL     1      10.127 -11.923  23.754  1.00  0.00    -0.399 OA
ATOM     32  H2  UNL     1      10.124 -12.855  23.936  1.00  0.00     0.209 HD
ENDBRANCH  30  31
ENDBRANCH  29  30
ENDBRANCH  27  29
ENDBRANCH  24  25
ENDBRANCH   4  24
TORSDOF 9
ENDMDL