MODEL 5
REMARK VINA RESULT: -8.628659577      2.634      9.674
REMARK  8 active torsions:
REMARK  status: ('A' for Active; 'I' for Inactive)
REMARK    1  A    between atoms: N2_4  and  C3_6
REMARK    2  A    between atoms: C3_6  and  C4_7
REMARK    3  A    between atoms: C4_7  and  C5_8
REMARK    4  A    between atoms: C5_8  and  C6_9
REMARK    5  A    between atoms: C6_9  and  C7_10
REMARK    6  A    between atoms: C10_17  and  C11_18
REMARK    7  A    between atoms: C17_27  and  C18_28
REMARK    8  A    between atoms: C18_28  and  N6_29
ROOT
HETATM    1  C1  UNL     1      14.594 -10.232  20.649  1.00  0.00     0.131 C
HETATM    2  N1  UNL     1      14.707 -11.473  20.962  1.00  0.00    -0.303 N
HETATM    3  C2  UNL     1      16.008 -11.938  20.989  1.00  0.00     0.110 A
HETATM    4  N2  UNL     1      16.957 -11.141  20.713  1.00  0.00    -0.376 N
ATOM      5  H2  UNL     1      16.678 -10.186  20.486  1.00  0.00     0.161 HD
HETATM    6  C14 UNL     1      16.236 -13.240  21.309  1.00  0.00     0.073 A
HETATM    7  C15 UNL     1      15.151 -14.074  21.604  1.00  0.00     0.010 A
HETATM    8  C16 UNL     1      15.414 -15.493  21.952  1.00  0.00     0.068 C
HETATM    9  N5  UNL     1      13.931 -13.558  21.558  1.00  0.00    -0.345 N
ATOM     10  H5  UNL     1      13.144 -14.169  21.773  1.00  0.00     0.167 HD
HETATM   11  C17 UNL     1      13.663 -12.256  21.241  1.00  0.00     0.128 A
ENDROOT
BRANCH   4  12
HETATM   12  C3  UNL     1      18.349 -11.395  20.679  1.00  0.00     0.121 C
BRANCH  12  13
HETATM   13  C4  UNL     1      18.802 -12.054  19.385  1.00  0.00     0.020 C
BRANCH  13  14
HETATM   14  C5  UNL     1      20.264 -12.418  19.443  1.00  0.00     0.005 C
BRANCH  14  15
HETATM   15  C6  UNL     1      20.633 -13.015  20.783  1.00  0.00     0.029 C
BRANCH  15  16
HETATM   16  C7  UNL     1      19.979 -14.305  21.018  1.00  0.00     0.008 C
HETATM   17  C8  UNL     1      20.286 -14.987  22.108  1.00  0.00     0.096 A
HETATM   18  N3  UNL     1      19.772 -16.195  22.477  1.00  0.00    -0.297 N
HETATM   19  C13 UNL     1      21.168 -14.669  23.117  1.00  0.00     0.227 A
HETATM   20  N4  UNL     1      20.301 -16.584  23.622  1.00  0.00    -0.297 N
ATOM     21  H3  UNL     1      19.079 -16.722  21.945  1.00  0.00     0.187 HD
HETATM   22  C9  UNL     1      21.179 -15.671  24.069  1.00  0.00     0.096 A
ATOM     23  H4  UNL     1      20.075 -17.456  24.101  1.00  0.00     0.187 HD
HETATM   24  C10 UNL     1      21.901 -15.705  25.169  1.00  0.00     0.008 C
HETATM   25  O1  UNL     1      21.877 -13.613  23.182  1.00  0.00    -0.283 OA
BRANCH  24  26
HETATM   26  C11 UNL     1      21.781 -16.870  26.077  1.00  0.00     0.025 C
HETATM   27  C12 UNL     1      22.798 -16.708  27.190  1.00  0.00     0.009 C
ENDBRANCH  24  26
ENDBRANCH  15  16
ENDBRANCH  14  15
ENDBRANCH  13  14
ENDBRANCH  12  13
ENDBRANCH   4  12
BRANCH  11  28
HETATM   28  C18 UNL     1      12.426 -11.838  21.221  1.00  0.00     0.146 C
BRANCH  28  29
HETATM   29  N6  UNL     1      11.881 -11.138  22.368  1.00  0.00    -0.323 N
HETATM   30  C19 UNL     1      11.096 -11.689  23.320  1.00  0.00     0.187 A
HETATM   31  N7  UNL     1      10.790 -10.721  24.222  1.00  0.00    -0.354 N
HETATM   32  C20 UNL     1      11.379  -9.561  23.844  1.00  0.00     0.022 A
ATOM     33  H7  UNL     1      10.210 -10.847  25.052  1.00  0.00     0.166 HD
HETATM   34  C21 UNL     1      11.262  -8.279  24.597  1.00  0.00     0.069 C
HETATM   35  C22 UNL     1      12.052  -9.845  22.687  1.00  0.00     0.121 A
ENDBRANCH  28  29
ENDBRANCH  11  28
TORSDOF 8
ENDMDL