MODEL 4
REMARK VINA RESULT: -7.537211661      2.106      3.462
REMARK  10 active torsions:
REMARK  status: ('A' for Active; 'I' for Inactive)
REMARK    1  A    between atoms: C2_2  and  C3_3
REMARK    2  A    between atoms: C2_2  and  C4_8
REMARK       I    between atoms: C3_3  and  N1_4
REMARK    3  A    between atoms: C4_8  and  C5_9
REMARK    4  A    between atoms: C4_8  and  C16_24
REMARK    5  A    between atoms: C6_10  and  C7_11
REMARK    6  A    between atoms: C7_11  and  N2_12
REMARK    7  A    between atoms: N2_12  and  C9_14
REMARK    8  A    between atoms: C10_15  and  C11_16
REMARK    9  A    between atoms: C16_24  and  N5_25
REMARK   10  A    between atoms: C16_24  and  N6_29
ROOT
HETATM    1  C4  UNL     1      17.794 -15.302  21.545  1.00  0.00     0.161 C
ENDROOT
BRANCH   1   2
HETATM    2  C2  UNL     1      16.521 -16.082  21.215  1.00  0.00     0.019 C
HETATM    3  C1  UNL     1      15.895 -15.920  20.176  1.00  0.00     0.026 C
BRANCH   2   4
HETATM    4  C3  UNL     1      15.958 -17.054  22.183  1.00  0.00     0.245 C
HETATM    5  N1  UNL     1      14.904 -16.917  23.061  1.00  0.00    -0.366 N
ATOM      6  H12 UNL     1      14.443 -16.007  23.045  1.00  0.00     0.159 HD
ATOM      7  H11 UNL     1      14.516 -17.585  23.727  1.00  0.00     0.159 HD
HETATM    8  O1  UNL     1      16.540 -18.201  22.202  1.00  0.00    -0.268 OA
ENDBRANCH   2   4
ENDBRANCH   1   2
BRANCH   1   9
HETATM    9  C5  UNL     1      17.636 -14.019  20.861  1.00  0.00    -0.092 C
HETATM   10  C6  UNL     1      17.536 -12.949  20.269  1.00  0.00    -0.091 C
BRANCH  10  11
HETATM   11  C7  UNL     1      17.454 -11.650  19.573  1.00  0.00     0.188 C
BRANCH  11  12
HETATM   12  N2  UNL     1      16.103 -11.186  19.412  1.00  0.00    -0.286 NA
HETATM   13  C8  UNL     1      15.442 -11.737  18.271  1.00  0.00     0.116 C
BRANCH  12  14
HETATM   14  C9  UNL     1      15.329 -11.338  20.614  1.00  0.00     0.062 C
HETATM   15  C10 UNL     1      14.051 -11.561  20.504  1.00  0.00     0.043 C
BRANCH  15  16
HETATM   16  C11 UNL     1      13.061 -11.749  21.531  1.00  0.00     0.058 A
HETATM   17  C12 UNL     1      12.470 -12.918  21.925  1.00  0.00     0.033 A
HETATM   18  C13 UNL     1      12.742 -14.321  21.516  1.00  0.00     0.070 C
HETATM   19  N3  UNL     1      11.550 -12.590  22.862  1.00  0.00    -0.354 N
HETATM   20  C14 UNL     1      11.549 -11.267  23.067  1.00  0.00     0.183 A
ATOM     21  H3  UNL     1      10.945 -13.255  23.343  1.00  0.00     0.166 HD
HETATM   22  N4  UNL     1      12.470 -10.742  22.260  1.00  0.00    -0.346 N
HETATM   23  C15 UNL     1      12.816  -9.335  22.157  1.00  0.00     0.157 C
ENDBRANCH  15  16
ENDBRANCH  12  14
ENDBRANCH  11  12
ENDBRANCH  10  11
ENDBRANCH   1   9
BRANCH   1  24
HETATM   24  C16 UNL     1      18.127 -15.215  22.965  1.00  0.00     0.404 C
BRANCH  24  25
HETATM   25  N5  UNL     1      17.546 -14.256  23.810  1.00  0.00    -0.048 N
ATOM     26  H53 UNL     1      16.774 -13.822  23.303  1.00  0.00     0.276 HD
ATOM     27  H52 UNL     1      17.058 -14.754  24.555  1.00  0.00     0.276 HD
ATOM     28  H51 UNL     1      18.093 -13.511  24.241  1.00  0.00     0.276 HD
ENDBRANCH  24  25
BRANCH  24  29
HETATM   29  N6  UNL     1      19.481 -15.538  23.360  1.00  0.00    -0.041 N
HETATM   30  C17 UNL     1      19.626 -16.991  23.617  1.00  0.00     0.275 C
HETATM   31  C18 UNL     1      20.535 -15.109  22.527  1.00  0.00     0.239 C
HETATM   32  C19 UNL     1      20.936 -13.678  22.639  1.00  0.00     0.028 C
HETATM   33  C20 UNL     1      21.693 -13.313  23.870  1.00  0.00     0.002 C
HETATM   34  C21 UNL     1      22.132 -14.496  24.683  1.00  0.00     0.002 C
HETATM   35  C22 UNL     1      21.021 -15.295  25.263  1.00  0.00     0.028 C
HETATM   36  C23 UNL     1      19.665 -14.950  24.687  1.00  0.00     0.239 C
ENDBRANCH  24  29
ENDBRANCH   1  24
TORSDOF 10
ENDMDL