MODEL 4
REMARK VINA RESULT: -6.233703271      2.124      3.544
REMARK  9 active torsions:
REMARK  status: ('A' for Active; 'I' for Inactive)
REMARK    1  A    between atoms: N1_2  and  C4_5
REMARK    2  A    between atoms: C4_5  and  C5_6
REMARK    3  A    between atoms: C5_6  and  N2_7
REMARK    4  A    between atoms: N2_7  and  C8_10
REMARK    5  A    between atoms: C10_12  and  N3_13
REMARK       I    between atoms: N3_13  and  C11_15
REMARK    6  A    between atoms: C11_15  and  C12_17
REMARK    7  A    between atoms: C12_17  and  C13_18
REMARK    8  A    between atoms: C19_25  and  O2_26
REMARK    9  A    between atoms: C20_28  and  O3_29
ROOT
HETATM    1  N3  UNL     1      18.771 -16.406  21.835  1.00  0.00    -0.354 N
ATOM      2  H3  UNL     1      19.210 -16.181  20.942  1.00  0.00     0.162 HD
HETATM    3  C11 UNL     1      17.392 -16.206  21.975  1.00  0.00     0.218 C
HETATM    4  O1  UNL     1      16.876 -16.496  23.098  1.00  0.00    -0.274 OA
ENDROOT
BRANCH   3   5
HETATM    5  C12 UNL     1      16.603 -15.681  20.849  1.00  0.00     0.107 C
BRANCH   5   6
HETATM    6  C13 UNL     1      16.761 -14.186  20.670  1.00  0.00    -0.003 C
HETATM    7  C14 UNL     1      16.055 -13.850  19.350  1.00  0.00     0.033 C
HETATM    8  C15 UNL     1      14.586 -13.599  19.631  1.00  0.00     0.238 C
HETATM    9  N4  UNL     1      14.388 -12.342  20.324  1.00  0.00    -0.062 N
HETATM   10  C16 UNL     1      15.522 -12.138  21.186  1.00  0.00     0.238 C
HETATM   11  C18 UNL     1      13.160 -12.303  21.074  1.00  0.00     0.271 C
HETATM   12  C21 UNL     1      14.224 -11.235  19.388  1.00  0.00     0.271 C
HETATM   13  C17 UNL     1      15.957 -13.467  21.749  1.00  0.00     0.033 C
HETATM   14  C19 UNL     1      12.796 -10.839  21.220  1.00  0.00     0.174 C
HETATM   15  C20 UNL     1      13.811 -10.115  20.333  1.00  0.00     0.174 C
BRANCH  14  16
HETATM   16  O2  UNL     1      12.995 -10.377  22.516  1.00  0.00    -0.391 OA
ATOM     17  H2  UNL     1      12.290  -9.809  22.806  1.00  0.00     0.210 HD
ENDBRANCH  14  16
BRANCH  15  18
HETATM   18  O3  UNL     1      13.137  -9.098  19.692  1.00  0.00    -0.391 OA
ATOM     19  H3  UNL     1      12.269  -9.052  20.075  1.00  0.00     0.210 HD
ENDBRANCH  15  18
ENDBRANCH   5   6
ENDBRANCH   3   5
BRANCH   1  20
HETATM   20  C10 UNL     1      19.610 -16.925  22.923  1.00  0.00     0.117 A
HETATM   21  C8  UNL     1      21.082 -16.852  22.760  1.00  0.00     0.214 A
HETATM   22  C9  UNL     1      20.358 -18.157  22.567  1.00  0.00     0.063 A
BRANCH  21  23
HETATM   23  N2  UNL     1      21.941 -16.708  23.921  1.00  0.00    -0.067 N
HETATM   24  C6  UNL     1      23.136 -17.510  23.799  1.00  0.00     0.272 C
HETATM   25  C7  UNL     1      21.251 -17.178  25.131  1.00  0.00     0.272 C
BRANCH  23  26
HETATM   26  C5  UNL     1      22.232 -15.304  24.141  1.00  0.00     0.265 C
BRANCH  26  27
HETATM   27  C4  UNL     1      21.383 -14.737  25.244  1.00  0.00     0.264 C
BRANCH  27  28
HETATM   28  N1  UNL     1      20.573 -13.629  24.840  1.00  0.00    -0.077 N
HETATM   29  C1  UNL     1      20.850 -13.239  23.463  1.00  0.00     0.271 C
HETATM   30  C2  UNL     1      19.152 -13.896  24.926  1.00  0.00     0.271 C
HETATM   31  C3  UNL     1      20.830 -12.458  25.658  1.00  0.00     0.271 C
ENDBRANCH  27  28
ENDBRANCH  26  27
ENDBRANCH  23  26
ENDBRANCH  21  23
ENDBRANCH   1  20
TORSDOF 9
ENDMDL