MODEL 2
REMARK VINA RESULT: -7.621594601      1.305      1.506
REMARK  9 active torsions:
REMARK  status: ('A' for Active; 'I' for Inactive)
REMARK    1  A    between atoms: C2_2  and  C3_3
REMARK    2  A    between atoms: C3_3  and  C4_4
REMARK    3  A    between atoms: C6_8  and  N2_9
REMARK       I    between atoms: N2_9  and  C7_11
REMARK    4  A    between atoms: C7_11  and  C8_13
REMARK    5  A    between atoms: C8_13  and  C9_14
REMARK    6  A    between atoms: C9_14  and  C10_15
REMARK    7  A    between atoms: C10_15  and  N3_16
REMARK       I    between atoms: N3_16  and  C11_18
REMARK    8  A    between atoms: C11_18  and  C12_20
REMARK    9  A    between atoms: C13_21  and  N4_22
ROOT
HETATM    1  C10 UNL     1      18.372 -13.606  21.390  1.00  0.00     0.123 C
ENDROOT
BRANCH   1   2
HETATM    2  C9  UNL     1      17.868 -12.212  21.530  1.00  0.00     0.029 C
BRANCH   2   3
HETATM    3  C8  UNL     1      17.682 -11.476  20.237  1.00  0.00     0.105 C
BRANCH   3   4
HETATM    4  C7  UNL     1      16.304 -11.489  19.771  1.00  0.00     0.235 C
HETATM    5  N2  UNL     1      15.452 -10.403  20.147  1.00  0.00    -0.160 N
ATOM      6  H2  UNL     1      15.692  -9.453  19.865  1.00  0.00     0.187 HD
HETATM    7  O1  UNL     1      15.781 -12.377  19.060  1.00  0.00    -0.273 OA
BRANCH   5   8
HETATM    8  C6  UNL     1      14.372 -10.615  20.847  1.00  0.00     0.685 A
HETATM    9  N1  UNL     1      13.687 -11.761  20.973  1.00  0.00    -0.200 N
HETATM   10  C5  UNL     1      12.637 -11.547  21.786  1.00  0.00     0.131 A
ATOM     11  H1  UNL     1      13.924 -12.647  20.527  1.00  0.00     0.183 HD
HETATM   12  C4  UNL     1      12.665 -10.221  22.182  1.00  0.00     0.042 A
HETATM   13  N7  UNL     1      13.744  -9.688  21.585  1.00  0.00    -0.194 N
ATOM     14  H7  UNL     1      14.042  -8.717  21.679  1.00  0.00     0.184 HD
BRANCH  12  15
HETATM   15  C3  UNL     1      11.682  -9.537  23.095  1.00  0.00     0.058 C
BRANCH  15  16
HETATM   16  C2  UNL     1      12.428  -8.387  23.741  1.00  0.00     0.002 C
HETATM   17  C1  UNL     1      11.433  -7.614  24.575  1.00  0.00     0.005 C
ENDBRANCH  15  16
ENDBRANCH  12  15
ENDBRANCH   5   8
ENDBRANCH   3   4
ENDBRANCH   2   3
ENDBRANCH   1   2
BRANCH   1  18
HETATM   18  N3  UNL     1      19.003 -14.026  22.651  1.00  0.00    -0.355 N
HETATM   19  C11 UNL     1      20.418 -14.099  22.783  1.00  0.00     0.281 C
HETATM   20  O2  UNL     1      21.052 -13.773  21.762  1.00  0.00    -0.266 OA
ATOM     21  H3  UNL     1      18.414 -14.269  23.447  1.00  0.00     0.162 HD
BRANCH  19  22
HETATM   22  C12 UNL     1      21.023 -14.528  24.045  1.00  0.00     0.267 A
HETATM   23  C13 UNL     1      21.067 -15.772  24.534  1.00  0.00     0.246 A
HETATM   24  C17 UNL     1      21.774 -15.697  25.830  1.00  0.00     0.303 A
HETATM   25  O3  UNL     1      22.036 -16.652  26.631  1.00  0.00    -0.264 OA
HETATM   26  N5  UNL     1      22.113 -14.352  26.024  1.00  0.00    -0.175 N
HETATM   27  N6  UNL     1      21.671 -13.609  24.942  1.00  0.00     0.046 N
ATOM     28  H5  UNL     1      22.607 -13.980  26.835  1.00  0.00     0.198 HD
HETATM   29  C18 UNL     1      20.773 -12.565  25.409  1.00  0.00     0.309 C
HETATM   30  C19 UNL     1      22.817 -12.965  24.290  1.00  0.00     0.309 C
BRANCH  23  31
HETATM   31  N4  UNL     1      20.559 -16.978  23.986  1.00  0.00    -0.041 N
HETATM   32  C14 UNL     1      21.268 -18.122  24.624  1.00  0.00     0.279 C
HETATM   33  C15 UNL     1      19.174 -17.237  24.268  1.00  0.00     0.279 C
HETATM   34  C16 UNL     1      20.812 -17.159  22.583  1.00  0.00     0.279 C
ENDBRANCH  23  31
ENDBRANCH  19  22
ENDBRANCH   1  18
TORSDOF 9
ENDMDL