MODEL 4
REMARK VINA RESULT: -7.905681858      0.840      1.193
REMARK  9 active torsions:
REMARK  status: ('A' for Active; 'I' for Inactive)
REMARK    1  A    between atoms: N1_5  and  C5_6
REMARK    2  A    between atoms: C5_6  and  C6_7
REMARK    3  A    between atoms: C6_7  and  C7_8
REMARK    4  A    between atoms: C7_8  and  N2_9
REMARK    5  A    between atoms: N2_9  and  C8_10
REMARK    6  A    between atoms: C8_10  and  C9_11
REMARK    7  A    between atoms: C9_11  and  O1_12
REMARK    8  A    between atoms: N5_27  and  N6_29
REMARK    9  A    between atoms: N6_29  and  N7_31
ROOT
HETATM    1  N2  UNL     1      15.358 -13.687  20.856  1.00  0.00     0.062 N
HETATM    2  C14 UNL     1      14.688 -14.817  20.301  1.00  0.00     0.422 C
HETATM    3  O3  UNL     1      14.274 -15.859  20.886  1.00  0.00    -0.239 OA
HETATM    4  N4  UNL     1      14.516 -14.642  18.900  1.00  0.00    -0.329 N
ATOM      5  H4  UNL     1      13.797 -15.063  18.311  1.00  0.00     0.164 HD
HETATM    6  C15 UNL     1      15.561 -13.750  18.486  1.00  0.00     0.211 C
HETATM    7  C16 UNL     1      15.898 -13.007  19.752  1.00  0.00     0.229 C
HETATM    8  N5  UNL     1      16.567 -11.941  19.623  1.00  0.00    -0.267 N
ATOM      9  H5  UNL     1      16.794 -11.750  18.647  1.00  0.00     0.190 HD
ENDROOT
BRANCH   1  10
HETATM   10  C7  UNL     1      16.417 -13.993  21.763  1.00  0.00     0.259 C
BRANCH  10  11
HETATM   11  C6  UNL     1      17.466 -14.955  21.466  1.00  0.00     0.049 C
BRANCH  11  12
HETATM   12  C5  UNL     1      18.820 -14.351  21.291  1.00  0.00     0.129 C
BRANCH  12  13
HETATM   13  N1  UNL     1      19.630 -14.547  22.518  1.00  0.00    -0.366 N
HETATM   14  C4  UNL     1      20.176 -15.730  22.815  1.00  0.00     0.091 A
HETATM   15  C3  UNL     1      20.932 -15.892  23.976  1.00  0.00     0.024 A
HETATM   16  C2  UNL     1      21.134 -14.842  24.837  1.00  0.00    -0.053 A
HETATM   17  C1  UNL     1      21.941 -15.040  26.061  1.00  0.00     0.049 C
HETATM   18  C18 UNL     1      20.573 -13.629  24.528  1.00  0.00    -0.041 A
HETATM   19  C17 UNL     1      19.828 -13.522  23.360  1.00  0.00     0.097 A
HETATM   20  C19 UNL     1      20.747 -12.458  25.407  1.00  0.00     0.050 C
ENDBRANCH  12  13
ENDBRANCH  11  12
ENDBRANCH  10  11
ENDBRANCH   1  10
BRANCH   1  21
HETATM   21  C8  UNL     1      14.420 -12.875  21.609  1.00  0.00     0.305 C
BRANCH  21  22
HETATM   22  C9  UNL     1      13.303 -12.222  20.937  1.00  0.00     0.165 C
HETATM   23  C10 UNL     1      12.354 -11.793  22.115  1.00  0.00     0.074 C
HETATM   24  C11 UNL     1      12.807 -10.430  22.491  1.00  0.00     0.083 C
HETATM   25  C12 UNL     1      11.613  -9.488  22.571  1.00  0.00     0.032 C
HETATM   26  N3  UNL     1      13.606  -9.991  21.373  1.00  0.00    -0.354 N
HETATM   27  C13 UNL     1      13.520 -10.934  20.282  1.00  0.00     0.254 C
ATOM     28  H3  UNL     1      14.156  -9.133  21.355  1.00  0.00     0.162 HD
HETATM   29  O2  UNL     1      13.630 -10.546  19.099  1.00  0.00    -0.270 OA
BRANCH  22  30
HETATM   30  O1  UNL     1      12.482 -13.007  20.155  1.00  0.00    -0.378 OA
ATOM     31  H1  UNL     1      12.099 -12.610  19.382  1.00  0.00     0.211 HD
ENDBRANCH  22  30
ENDBRANCH  21  22
ENDBRANCH   1  21
BRANCH   8  32
HETATM   32  N6  UNL     1      17.054 -11.001  20.441  1.00  0.00    -0.248 N
ATOM     33  H6  UNL     1      16.443 -10.252  20.765  1.00  0.00     0.207 HD
BRANCH  32  34
HETATM   34  N7  UNL     1      18.285 -11.029  20.823  1.00  0.00    -0.331 N
ATOM     35  H72 UNL     1      19.013 -11.121  20.115  1.00  0.00     0.178 HD
ATOM     36  H71 UNL     1      18.528 -10.961  21.811  1.00  0.00     0.178 HD
ENDBRANCH  32  34
ENDBRANCH   8  32
TORSDOF 9
ENDMDL