MODEL 2
REMARK VINA RESULT: -8.066758088      1.183      1.430
REMARK  11 active torsions:
REMARK  status: ('A' for Active; 'I' for Inactive)
REMARK    1  A    between atoms: C2_2  and  C3_3
REMARK    2  A    between atoms: N2_9  and  C6_10
REMARK    3  A    between atoms: C6_10  and  C7_11
REMARK    4  A    between atoms: C7_11  and  C8_12
REMARK    5  A    between atoms: C8_12  and  C9_13
REMARK    6  A    between atoms: C9_13  and  N3_14
REMARK    7  A    between atoms: C12_17  and  C13_18
REMARK    8  A    between atoms: C13_18  and  C14_19
REMARK    9  A    between atoms: C15_20  and  C16_21
REMARK   10  A    between atoms: C16_21  and  C19_24
REMARK   11  A    between atoms: C19_24  and  O2_25
ROOT
HETATM    1  C7  UNL     1      15.535 -14.282  19.791  1.00  0.00     0.024 C
ENDROOT
BRANCH   1   2
HETATM    2  C6  UNL     1      15.063 -13.090  18.991  1.00  0.00     0.156 C
BRANCH   2   3
HETATM    3  N2  UNL     1      14.414 -12.180  19.921  1.00  0.00    -0.225 N
HETATM    4  C5  UNL     1      15.019 -10.978  20.117  1.00  0.00     0.344 A
HETATM    5  N1  UNL     1      14.501 -10.076  20.949  1.00  0.00    -0.291 N
HETATM    6  O1  UNL     1      16.104 -10.706  19.494  1.00  0.00    -0.245 OA
HETATM    7  C4  UNL     1      13.335 -10.356  21.624  1.00  0.00     0.146 A
ATOM      8  H1  UNL     1      14.967  -9.179  21.085  1.00  0.00     0.172 HD
HETATM    9  C3  UNL     1      12.860  -9.451  22.429  1.00  0.00     0.025 C
HETATM   10  N5  UNL     1      12.784 -11.544  21.396  1.00  0.00    -0.170 N
HETATM   11  N4  UNL     1      13.308 -12.462  20.553  1.00  0.00    -0.210 N
HETATM   12  N6  UNL     1      11.723 -11.880  21.963  1.00  0.00    -0.321 N
HETATM   13  C22 UNL     1      12.645 -13.724  20.396  1.00  0.00     0.202 C
ATOM     14  H62 UNL     1      11.327 -11.187  22.599  1.00  0.00     0.179 HD
ATOM     15  H61 UNL     1      11.299 -12.791  21.789  1.00  0.00     0.179 HD
BRANCH   9  16
HETATM   16  C2  UNL     1      11.655  -9.482  23.259  1.00  0.00     0.026 C
HETATM   17  C1  UNL     1      11.688  -8.333  24.259  1.00  0.00     0.009 C
ENDBRANCH   9  16
ENDBRANCH   2   3
ENDBRANCH   1   2
BRANCH   1  18
HETATM   18  C8  UNL     1      16.782 -13.977  20.585  1.00  0.00     0.022 C
BRANCH  18  19
HETATM   19  C9  UNL     1      16.572 -14.114  22.071  1.00  0.00     0.128 C
BRANCH  19  20
HETATM   20  N3  UNL     1      17.866 -13.878  22.702  1.00  0.00    -0.366 N
HETATM   21  C10 UNL     1      18.028 -14.038  24.027  1.00  0.00     0.091 A
HETATM   22  C11 UNL     1      19.234 -13.825  24.661  1.00  0.00     0.025 A
HETATM   23  C12 UNL     1      20.341 -13.430  23.938  1.00  0.00    -0.044 A
HETATM   24  C20 UNL     1      20.173 -13.265  22.576  1.00  0.00     0.025 A
HETATM   25  C21 UNL     1      18.941 -13.493  21.989  1.00  0.00     0.091 A
BRANCH  23  26
HETATM   26  C13 UNL     1      21.646 -13.197  24.608  1.00  0.00     0.132 C
BRANCH  26  27
HETATM   27  C14 UNL     1      22.434 -14.421  24.472  1.00  0.00    -0.101 C
HETATM   28  C15 UNL     1      23.093 -15.420  24.377  1.00  0.00    -0.095 C
BRANCH  28  29
HETATM   29  C16 UNL     1      23.912 -16.623  24.275  1.00  0.00     0.037 C
HETATM   30  C17 UNL     1      23.995 -17.265  25.647  1.00  0.00     0.031 C
HETATM   31  C18 UNL     1      23.287 -17.538  23.263  1.00  0.00     0.031 C
BRANCH  29  32
HETATM   32  C19 UNL     1      25.304 -16.190  23.870  1.00  0.00     0.185 C
BRANCH  32  33
HETATM   33  O2  UNL     1      25.393 -14.856  23.553  1.00  0.00    -0.399 OA
ATOM     34  H2  UNL     1      24.779 -14.584  22.881  1.00  0.00     0.209 HD
ENDBRANCH  32  33
ENDBRANCH  29  32
ENDBRANCH  28  29
ENDBRANCH  26  27
ENDBRANCH  23  26
ENDBRANCH  19  20
ENDBRANCH  18  19
ENDBRANCH   1  18
TORSDOF 11
ENDMDL