MODEL 5
REMARK VINA RESULT: -7.078926323      1.296      1.581
REMARK  10 active torsions:
REMARK  status: ('A' for Active; 'I' for Inactive)
REMARK    1  A    between atoms: C4_4  and  C5_5
REMARK    2  A    between atoms: C5_5  and  N1_6
REMARK    3  A    between atoms: C8_11  and  C9_12
REMARK    4  A    between atoms: C9_12  and  C10_13
REMARK    5  A    between atoms: N3_14  and  C11_15
REMARK    6  A    between atoms: C11_15  and  C12_16
REMARK    7  A    between atoms: C12_16  and  N4_17
REMARK    8  A    between atoms: C17_25  and  C18_26
REMARK    9  A    between atoms: C18_26  and  C19_27
REMARK   10  A    between atoms: C19_27  and  C20_28
ROOT
HETATM    1  C10 UNL     1      15.431 -12.198  20.843  1.00  0.00     0.038 A
HETATM    2  N3  UNL     1      14.425 -12.910  21.363  1.00  0.00    -0.331 N
HETATM    3  C16 UNL     1      13.232 -12.248  21.797  1.00  0.00     0.111 A
HETATM    4  N5  UNL     1      12.288 -12.994  22.302  1.00  0.00    -0.385 N
ATOM      5  H51 UNL     1      11.438 -12.523  22.612  1.00  0.00     0.157 HD
ATOM      6  H52 UNL     1      12.410 -14.005  22.367  1.00  0.00     0.157 HD
HETATM    7  C17 UNL     1      13.059 -10.818  21.704  1.00  0.00     0.004 A
HETATM    8  C21 UNL     1      14.168 -10.083  21.146  1.00  0.00     0.017 A
HETATM    9  C22 UNL     1      15.262 -10.768  20.755  1.00  0.00     0.031 A
ENDROOT
BRANCH   1  10
HETATM   10  C9  UNL     1      16.599 -12.903  20.429  1.00  0.00     0.059 C
BRANCH  10  11
HETATM   11  C8  UNL     1      17.803 -13.164  20.790  1.00  0.00     0.040 A
HETATM   12  C2  UNL     1      19.040 -12.784  20.406  1.00  0.00    -0.033 A
HETATM   13  C1  UNL     1      19.579 -12.116  19.206  1.00  0.00     0.050 C
HETATM   14  C3  UNL     1      19.974 -13.252  21.362  1.00  0.00     0.039 A
HETATM   15  C4  UNL     1      19.288 -13.919  22.313  1.00  0.00     0.048 A
HETATM   16  N2  UNL     1      18.013 -13.878  21.990  1.00  0.00    -0.355 N
ATOM     17  H2  UNL     1      17.268 -14.308  22.539  1.00  0.00     0.166 HD
BRANCH  15  18
HETATM   18  C5  UNL     1      19.770 -14.527  23.415  1.00  0.00     0.114 C
BRANCH  18  19
HETATM   19  N1  UNL     1      20.799 -13.989  24.209  1.00  0.00    -0.397 N
HETATM   20  C6  UNL     1      20.556 -12.863  25.087  1.00  0.00     0.148 C
HETATM   21  C7  UNL     1      22.140 -14.551  24.171  1.00  0.00     0.148 C
ENDBRANCH  18  19
ENDBRANCH  15  18
ENDBRANCH  10  11
ENDBRANCH   1  10
BRANCH   2  22
HETATM   22  C11 UNL     1      14.501 -14.342  21.506  1.00  0.00     0.158 C
BRANCH  22  23
HETATM   23  C12 UNL     1      13.978 -15.117  20.336  1.00  0.00     0.256 C
BRANCH  23  24
HETATM   24  N4  UNL     1      13.508 -16.424  20.669  1.00  0.00    -0.077 N
HETATM   25  C13 UNL     1      12.056 -16.291  20.882  1.00  0.00     0.271 C
HETATM   26  C14 UNL     1      14.041 -16.995  21.864  1.00  0.00     0.271 C
HETATM   27  C15 UNL     1      13.670 -17.381  19.592  1.00  0.00     0.271 C
ENDBRANCH  23  24
ENDBRANCH  22  23
ENDBRANCH   2  22
BRANCH   7  28
HETATM   28  C18 UNL     1      11.973 -10.194  22.098  1.00  0.00    -0.003 C
BRANCH  28  29
HETATM   29  C19 UNL     1      11.569  -9.867  23.463  1.00  0.00     0.127 C
BRANCH  29  30
HETATM   30  C20 UNL     1      11.981  -8.499  23.872  1.00  0.00     0.234 C
HETATM   31  N6  UNL     1      11.064  -7.715  24.616  1.00  0.00    -0.062 NA
HETATM   32  O1  UNL     1      13.096  -8.006  23.594  1.00  0.00    -0.277 OA
ENDBRANCH  29  30
ENDBRANCH  28  29
ENDBRANCH   7  28
TORSDOF 10
ENDMDL