MODEL 4
REMARK VINA RESULT: -6.706764609      2.218      2.911
REMARK  9 active torsions:
REMARK  status: ('A' for Active; 'I' for Inactive)
REMARK    1  A    between atoms: C2_2  and  C3_4
REMARK    2  A    between atoms: C7_8  and  C8_9
REMARK    3  A    between atoms: C8_9  and  N1_10
REMARK    4  A    between atoms: N1_10  and  C9_12
REMARK    5  A    between atoms: C12_17  and  N3_18
REMARK    6  A    between atoms: N5_23  and  C13_24
REMARK    7  A    between atoms: C13_24  and  C14_25
REMARK    8  A    between atoms: C14_25  and  C15_26
REMARK    9  A    between atoms: C15_26  and  N6_27
ROOT
HETATM    1  C3  UNL     1     -29.211   1.764  12.263  1.00  0.00     0.032 A
HETATM    2  C4  UNL     1     -28.361   2.603  11.527  1.00  0.00     0.026 A
HETATM    3  C5  UNL     1     -27.098   2.836  11.978  1.00  0.00    -0.037 A
HETATM    4  C6  UNL     1     -26.195   3.730  11.178  1.00  0.00     0.050 C
HETATM    5  C7  UNL     1     -26.637   2.251  13.163  1.00  0.00     0.035 A
HETATM    6  N5  UNL     1     -27.427   1.457  13.850  1.00  0.00    -0.351 N
HETATM    7  C21 UNL     1     -28.702   1.217  13.404  1.00  0.00     0.021 A
HETATM    8  C22 UNL     1     -29.552   0.251  14.162  1.00  0.00     0.069 C
ENDROOT
BRANCH   5   9
HETATM    9  C8  UNL     1     -25.209   2.545  13.490  1.00  0.00     0.179 C
BRANCH   9  10
HETATM   10  N1  UNL     1     -24.453   1.349  13.695  1.00  0.00    -0.370 N
ATOM     11  H1  UNL     1     -24.788   0.508  13.224  1.00  0.00     0.161 HD
BRANCH  10  12
HETATM   12  C9  UNL     1     -23.402   1.232  14.408  1.00  0.00     0.118 A
HETATM   13  C10 UNL     1     -22.246   0.560  14.087  1.00  0.00     0.066 A
HETATM   14  C11 UNL     1     -21.148   0.568  14.928  1.00  0.00     0.110 A
HETATM   15  N2  UNL     1     -21.163   1.225  16.072  1.00  0.00    -0.202 N
HETATM   16  C12 UNL     1     -22.297   1.903  16.414  1.00  0.00     0.677 A
ATOM     17  H2  UNL     1     -20.347   1.226  16.685  1.00  0.00     0.183 HD
HETATM   18  N4  UNL     1     -23.364   1.897  15.610  1.00  0.00    -0.177 N
ATOM     19  H4  UNL     1     -24.192   2.414  15.903  1.00  0.00     0.185 HD
BRANCH  16  20
HETATM   20  N3  UNL     1     -22.266   2.542  17.542  1.00  0.00    -0.234 N
ATOM     21  H32 UNL     1     -21.402   2.726  18.053  1.00  0.00     0.174 HD
ATOM     22  H31 UNL     1     -23.164   2.857  17.908  1.00  0.00     0.174 HD
ENDBRANCH  16  20
ENDBRANCH  10  12
ENDBRANCH   9  10
ENDBRANCH   5   9
BRANCH   6  23
HETATM   23  C13 UNL     1     -26.991   0.744  15.037  1.00  0.00     0.130 C
BRANCH  23  24
HETATM   24  C14 UNL     1     -26.879   1.736  16.209  1.00  0.00     0.040 C
BRANCH  24  25
HETATM   25  C15 UNL     1     -28.171   1.817  16.941  1.00  0.00     0.129 C
BRANCH  25  26
HETATM   26  N6  UNL     1     -28.372   0.803  17.936  1.00  0.00    -0.366 N
HETATM   27  C16 UNL     1     -27.862   1.083  19.178  1.00  0.00     0.090 A
HETATM   28  C17 UNL     1     -27.980   0.190  20.215  1.00  0.00     0.017 A
HETATM   29  C18 UNL     1     -28.614  -1.022  20.047  1.00  0.00     0.003 A
HETATM   30  C19 UNL     1     -29.124  -1.300  18.800  1.00  0.00     0.017 A
HETATM   31  C20 UNL     1     -28.981  -0.371  17.792  1.00  0.00     0.090 A
ENDBRANCH  25  26
ENDBRANCH  24  25
ENDBRANCH  23  24
ENDBRANCH   6  23
BRANCH   1  32
HETATM   32  C2  UNL     1     -30.582   1.709  11.796  1.00  0.00     0.157 C
HETATM   33  C1  UNL     1     -31.157   0.779  10.804  1.00  0.00     0.097 C
HETATM   34  O1  UNL     1     -31.366   2.581  12.332  1.00  0.00    -0.293 OA
ENDBRANCH   1  32
TORSDOF 9
ENDMDL