MODEL 3
REMARK VINA RESULT: -7.186429281      4.493      9.620
REMARK  9 active torsions:
REMARK  status: ('A' for Active; 'I' for Inactive)
REMARK    1  A    between atoms: C2_2  and  C3_3
REMARK    2  A    between atoms: C3_3  and  C4_4
REMARK    3  A    between atoms: N1_6  and  C6_7
REMARK    4  A    between atoms: C6_7  and  C7_8
REMARK    5  A    between atoms: C8_9  and  C9_10
REMARK    6  A    between atoms: C14_22  and  C15_23
REMARK    7  A    between atoms: C17_25  and  O1_26
REMARK    8  A    between atoms: C19_29  and  C20_30
REMARK    9  A    between atoms: C22_32  and  O2_33
ROOT
HETATM    1  C9  UNL     1     -29.697  -1.291  19.623  1.00  0.00    -0.031 A
HETATM    2  C10 UNL     1     -28.950  -2.427  19.467  1.00  0.00     0.029 A
HETATM    3  C11 UNL     1     -29.331  -3.589  20.116  1.00  0.00     0.102 A
HETATM    4  N2  UNL     1     -30.413  -3.661  20.902  1.00  0.00    -0.284 N
HETATM    5  C12 UNL     1     -31.160  -2.539  21.062  1.00  0.00     0.153 A
HETATM    6  C13 UNL     1     -30.822  -1.358  20.438  1.00  0.00     0.064 A
HETATM    7  N3  UNL     1     -32.308  -2.594  21.895  1.00  0.00    -0.185 N
HETATM    8  N4  UNL     1     -33.028  -1.602  22.074  1.00  0.00    -0.322 N
ATOM      9  H41 UNL     1     -33.853  -1.642  22.674  1.00  0.00     0.179 HD
ATOM     10  H42 UNL     1     -32.771  -0.733  21.607  1.00  0.00     0.179 HD
HETATM   11  N5  UNL     1     -32.668  -3.811  22.550  1.00  0.00    -0.278 N
ATOM     12  H5  UNL     1     -33.490  -3.862  23.150  1.00  0.00     0.189 HD
HETATM   13  C14 UNL     1     -31.842  -4.947  22.339  1.00  0.00     0.078 A
HETATM   14  C17 UNL     1     -30.775  -4.867  21.555  1.00  0.00     0.172 A
ENDROOT
BRANCH   1  15
HETATM   15  C8  UNL     1     -29.390  -0.022  18.996  1.00  0.00     0.009 C
HETATM   16  C7  UNL     1     -28.160   0.427  18.832  1.00  0.00    -0.006 C
BRANCH  16  17
HETATM   17  C6  UNL     1     -27.859   1.729  18.188  1.00  0.00     0.155 C
BRANCH  17  18
HETATM   18  N1  UNL     1     -27.298   1.499  16.879  1.00  0.00    -0.362 N
HETATM   19  C5  UNL     1     -28.083   1.096  15.862  1.00  0.00     0.101 A
HETATM   20  C4  UNL     1     -27.603   0.864  14.599  1.00  0.00    -0.005 A
HETATM   21  C22 UNL     1     -26.239   1.060  14.380  1.00  0.00     0.085 A
HETATM   22  C19 UNL     1     -25.445   1.479  15.455  1.00  0.00     0.012 A
HETATM   23  C18 UNL     1     -25.959   1.703  16.709  1.00  0.00     0.105 A
BRANCH  20  24
HETATM   24  C3  UNL     1     -28.462   0.418  13.455  1.00  0.00     0.069 C
BRANCH  24  25
HETATM   25  C2  UNL     1     -29.802   0.000  13.893  1.00  0.00    -0.032 C
HETATM   26  C1  UNL     1     -30.810  -0.089  13.041  1.00  0.00     0.007 C
ENDBRANCH  24  25
ENDBRANCH  20  24
BRANCH  21  27
HETATM   27  O2  UNL     1     -25.758   0.826  13.115  1.00  0.00    -0.359 OA
ATOM     28  H2  UNL     1     -24.941   1.244  12.871  1.00  0.00     0.217 HD
ENDBRANCH  21  27
BRANCH  22  29
HETATM   29  C20 UNL     1     -24.023   1.679  15.211  1.00  0.00     0.005 C
HETATM   30  C21 UNL     1     -23.142   1.866  16.144  1.00  0.00     0.012 C
ENDBRANCH  22  29
ENDBRANCH  17  18
ENDBRANCH  16  17
ENDBRANCH   1  15
BRANCH  14  31
HETATM   31  O1  UNL     1     -30.007  -6.011  21.387  1.00  0.00    -0.344 OA
ATOM     32  H1  UNL     1     -30.423  -6.842  21.191  1.00  0.00     0.219 HD
ENDBRANCH  14  31
BRANCH  13  33
HETATM   33  C15 UNL     1     -32.167  -6.240  22.995  1.00  0.00     0.059 C
HETATM   34  C16 UNL     1     -32.687  -6.044  24.404  1.00  0.00     0.011 C
ENDBRANCH  13  33
TORSDOF 9
ENDMDL