MODEL 4
REMARK VINA RESULT: -8.599629412      1.502      1.851
REMARK  8 active torsions:
REMARK  status: ('A' for Active; 'I' for Inactive)
REMARK    1  A    between atoms: C2_7  and  C3_8
REMARK    2  A    between atoms: C3_8  and  C4_9
REMARK    3  A    between atoms: C4_9  and  N3_10
REMARK    4  A    between atoms: N5_15  and  O1_16
REMARK    5  A    between atoms: C9_20  and  C10_21
REMARK    6  A    between atoms: C10_21  and  C11_22
REMARK    7  A    between atoms: C11_22  and  N6_23
REMARK    8  A    between atoms: C14_26  and  C15_27
ROOT
HETATM    1  N1  UNL     1     -26.068   2.475  17.957  1.00  0.00    -0.385 N
ATOM      2  H11 UNL     1     -26.992   2.608  18.368  1.00  0.00     0.157 HD
ATOM      3  H12 UNL     1     -25.217   2.668  18.487  1.00  0.00     0.157 HD
HETATM    4  C1  UNL     1     -26.044   2.037  16.746  1.00  0.00     0.105 A
HETATM    5  N2  UNL     1     -24.803   1.858  16.193  1.00  0.00    -0.346 N
ATOM      6  H2  UNL     1     -23.977   2.061  16.756  1.00  0.00     0.167 HD
HETATM    7  C2  UNL     1     -24.641   1.425  14.937  1.00  0.00     0.012 A
HETATM    8  C7  UNL     1     -25.759   1.153  14.177  1.00  0.00     0.025 A
HETATM    9  C8  UNL     1     -27.015   1.327  14.717  1.00  0.00     0.013 A
HETATM   10  C9  UNL     1     -27.187   1.779  16.033  1.00  0.00    -0.013 A
ENDROOT
BRANCH  10  11
HETATM   11  C10 UNL     1     -28.490   1.933  16.635  1.00  0.00     0.062 C
BRANCH  11  12
HETATM   12  C11 UNL     1     -29.553   0.992  16.217  1.00  0.00     0.132 C
BRANCH  12  13
HETATM   13  N6  UNL     1     -29.736  -0.049  17.211  1.00  0.00    -0.366 N
HETATM   14  C12 UNL     1     -30.911  -0.707  17.239  1.00  0.00     0.091 A
HETATM   15  C13 UNL     1     -31.142  -1.708  18.172  1.00  0.00     0.029 A
HETATM   16  C14 UNL     1     -30.172  -2.042  19.083  1.00  0.00    -0.023 A
HETATM   17  C21 UNL     1     -28.981  -1.332  19.009  1.00  0.00     0.029 A
HETATM   18  C22 UNL     1     -28.749  -0.346  18.094  1.00  0.00     0.091 A
BRANCH  16  19
HETATM   19  C15 UNL     1     -30.390  -3.095  20.082  1.00  0.00    -0.026 A
HETATM   20  C16 UNL     1     -29.360  -3.997  20.274  1.00  0.00     0.012 A
HETATM   21  C17 UNL     1     -29.546  -4.998  21.217  1.00  0.00     0.001 A
HETATM   22  C18 UNL     1     -30.717  -5.091  21.936  1.00  0.00     0.000 A
HETATM   23  C19 UNL     1     -31.722  -4.193  21.732  1.00  0.00     0.001 A
HETATM   24  C20 UNL     1     -31.555  -3.193  20.802  1.00  0.00     0.012 A
ENDBRANCH  16  19
ENDBRANCH  12  13
ENDBRANCH  11  12
ENDBRANCH  10  11
BRANCH   7  25
HETATM   25  C3  UNL     1     -23.313   1.217  14.309  1.00  0.00     0.079 C
BRANCH  25  26
HETATM   26  C4  UNL     1     -22.316   2.262  14.691  1.00  0.00     0.158 C
BRANCH  26  27
HETATM   27  N3  UNL     1     -21.367   1.661  15.608  1.00  0.00    -0.261 N
HETATM   28  C5  UNL     1     -20.326   0.892  15.275  1.00  0.00     0.203 A
HETATM   29  N4  UNL     1     -19.667   0.515  16.379  1.00  0.00    -0.344 N
HETATM   30  C6  UNL     1     -20.292   1.046  17.418  1.00  0.00     0.235 A
ATOM     31  H4  UNL     1     -18.835  -0.075  16.413  1.00  0.00     0.167 HD
HETATM   32  N5  UNL     1     -21.334   1.748  16.927  1.00  0.00    -0.156 N
BRANCH  32  33
HETATM   33  O1  UNL     1     -22.215   2.442  17.728  1.00  0.00    -0.267 OA
ATOM     34  H1  UNL     1     -22.941   2.079  18.222  1.00  0.00     0.247 HD
ENDBRANCH  32  33
ENDBRANCH  26  27
ENDBRANCH  25  26
ENDBRANCH   7  25
TORSDOF 8
ENDMDL