MODEL 4
REMARK VINA RESULT: -6.176286495      0.961      1.724
REMARK  14 active torsions:
REMARK  status: ('A' for Active; 'I' for Inactive)
REMARK    1  A    between atoms: N1_4  and  C4_5
REMARK    2  A    between atoms: C4_5  and  C5_6
REMARK    3  A    between atoms: C5_6  and  C6_7
REMARK    4  A    between atoms: C6_7  and  O1_8
REMARK    5  A    between atoms: N2_12  and  C9_13
REMARK    6  A    between atoms: C9_13  and  C10_14
REMARK    7  A    between atoms: C10_14  and  C11_15
REMARK    8  A    between atoms: C12_16  and  C13_17
REMARK    9  A    between atoms: C14_18  and  C15_19
REMARK   10  A    between atoms: C15_19  and  C16_20
REMARK   11  A    between atoms: C16_20  and  C17_21
REMARK   12  A    between atoms: C17_21  and  C18_22
REMARK   13  A    between atoms: C19_23  and  N3_24
REMARK   14  A    between atoms: N3_24  and  C20_26
ROOT
HETATM    1  C10 UNL     1     -31.555  -0.549  15.964  1.00  0.00     0.123 C
ENDROOT
BRANCH   1   2
HETATM    2  C9  UNL     1     -31.775  -0.086  17.342  1.00  0.00     0.256 C
BRANCH   2   3
HETATM    3  N2  UNL     1     -30.812  -0.226  18.346  1.00  0.00    -0.036 N
HETATM    4  C2  UNL     1     -30.235   0.971  18.847  1.00  0.00     0.131 C
HETATM    5  C1  UNL     1     -30.074   2.047  18.129  1.00  0.00     0.048 C
HETATM    6  C3  UNL     1     -29.821   0.922  20.278  1.00  0.00     0.301 C
HETATM    7  N1  UNL     1     -29.373  -0.515  20.510  1.00  0.00    -0.059 N
HETATM    8  C7  UNL     1     -28.709  -0.829  19.269  1.00  0.00     0.266 C
HETATM    9  C23 UNL     1     -30.608  -1.213  20.621  1.00  0.00     0.266 C
HETATM   10  C8  UNL     1     -29.752  -1.168  18.188  1.00  0.00     0.271 C
HETATM   11  C22 UNL     1     -31.569  -0.769  19.538  1.00  0.00     0.271 C
BRANCH   7  12
HETATM   12  C4  UNL     1     -28.512  -0.437  21.599  1.00  0.00     0.240 C
BRANCH  12  13
HETATM   13  C5  UNL     1     -28.379   0.683  22.517  1.00  0.00     0.054 C
BRANCH  13  14
HETATM   14  C6  UNL     1     -27.975   0.459  23.932  1.00  0.00     0.165 C
BRANCH  14  15
HETATM   15  O1  UNL     1     -26.998  -0.460  24.192  1.00  0.00    -0.401 OA
ATOM     16  H1  UNL     1     -26.966  -0.853  25.056  1.00  0.00     0.209 HD
ENDBRANCH  14  15
ENDBRANCH  13  14
ENDBRANCH  12  13
ENDBRANCH   7  12
ENDBRANCH   2   3
ENDBRANCH   1   2
BRANCH   1  17
HETATM   17  C11 UNL     1     -30.362  -0.030  15.325  1.00  0.00    -0.091 C
HETATM   18  C12 UNL     1     -29.342   0.379  14.776  1.00  0.00    -0.015 C
BRANCH  18  19
HETATM   19  C13 UNL     1     -28.170   0.870  14.158  1.00  0.00    -0.015 C
HETATM   20  C14 UNL     1     -27.162   1.298  13.648  1.00  0.00    -0.092 C
BRANCH  20  21
HETATM   21  C15 UNL     1     -25.921   1.827  13.048  1.00  0.00     0.096 C
BRANCH  21  22
HETATM   22  C16 UNL     1     -24.857   1.809  14.125  1.00  0.00     0.024 C
BRANCH  22  23
HETATM   23  C17 UNL     1     -23.484   2.125  13.570  1.00  0.00     0.097 C
BRANCH  23  24
HETATM   24  C18 UNL     1     -22.448   1.385  14.291  1.00  0.00    -0.083 C
HETATM   25  C19 UNL     1     -21.600   0.756  14.877  1.00  0.00     0.011 C
BRANCH  25  26
HETATM   26  N3  UNL     1     -20.625   0.007  15.544  1.00  0.00    -0.305 N
ATOM     27  H3  UNL     1     -20.402  -0.938  15.231  1.00  0.00     0.177 HD
BRANCH  26  28
HETATM   28  C20 UNL     1     -19.946   0.569  16.659  1.00  0.00     0.078 C
HETATM   29  C21 UNL     1     -20.485   1.732  17.415  1.00  0.00     0.089 C
HETATM   30  N4  UNL     1     -18.808   0.053  17.040  1.00  0.00    -0.389 N
ATOM     31  H42 UNL     1     -18.438  -0.744  16.522  1.00  0.00     0.157 HD
ATOM     32  H41 UNL     1     -18.320   0.456  17.840  1.00  0.00     0.157 HD
ENDBRANCH  26  28
ENDBRANCH  25  26
ENDBRANCH  23  24
ENDBRANCH  22  23
ENDBRANCH  21  22
ENDBRANCH  20  21
ENDBRANCH  18  19
ENDBRANCH   1  17
TORSDOF 14
ENDMDL