MODEL 4
REMARK VINA RESULT: -7.795682632      1.793      3.122
REMARK  9 active torsions:
REMARK  status: ('A' for Active; 'I' for Inactive)
REMARK    1  A    between atoms: N1_1  and  C1_4
REMARK    2  A    between atoms: C2_7  and  C3_8
REMARK    3  A    between atoms: C3_8  and  C4_9
REMARK    4  A    between atoms: C4_9  and  C5_10
REMARK    5  A    between atoms: C5_10  and  N3_11
REMARK    6  A    between atoms: C10_16  and  N4_17
REMARK    7  A    between atoms: N5_29  and  C22_30
REMARK    8  A    between atoms: C22_30  and  C23_31
REMARK    9  A    between atoms: C23_31  and  O1_32
ROOT
HETATM    1  C5  UNL     1     -27.147   2.000  14.723  1.00  0.00     0.130 C
ENDROOT
BRANCH   1   2
HETATM    2  C4  UNL     1     -25.938   2.339  13.889  1.00  0.00     0.026 C
BRANCH   2   3
HETATM    3  C3  UNL     1     -24.984   1.173  13.750  1.00  0.00     0.059 C
BRANCH   3   4
HETATM    4  C2  UNL     1     -23.786   1.363  14.573  1.00  0.00     0.028 A
HETATM    5  N2  UNL     1     -23.791   1.970  15.770  1.00  0.00    -0.196 N
HETATM    6  C1  UNL     1     -22.653   2.122  16.498  1.00  0.00     0.678 A
ATOM      7  H2  UNL     1     -24.671   2.325  16.143  1.00  0.00     0.184 HD
HETATM    8  N5  UNL     1     -21.448   1.682  16.083  1.00  0.00    -0.192 N
HETATM    9  C21 UNL     1     -21.413   1.071  14.891  1.00  0.00     0.111 A
HETATM   10  C20 UNL     1     -22.551   0.904  14.130  1.00  0.00     0.043 A
BRANCH   6  11
HETATM   11  N1  UNL     1     -22.774   2.712  17.629  1.00  0.00    -0.234 N
ATOM     12  H12 UNL     1     -23.656   2.674  18.140  1.00  0.00     0.174 HD
ATOM     13  H11 UNL     1     -21.952   3.211  17.971  1.00  0.00     0.174 HD
ENDBRANCH   6  11
BRANCH   8  14
HETATM   14  C22 UNL     1     -20.291   1.885  16.911  1.00  0.00     0.172 C
BRANCH  14  15
HETATM   15  C23 UNL     1     -19.776   0.662  17.591  1.00  0.00     0.185 C
BRANCH  15  16
HETATM   16  O1  UNL     1     -18.694   0.112  16.944  1.00  0.00    -0.399 OA
ATOM     17  H1  UNL     1     -18.114   0.768  16.576  1.00  0.00     0.209 HD
ENDBRANCH  15  16
ENDBRANCH  14  15
ENDBRANCH   8  14
ENDBRANCH   3   4
ENDBRANCH   2   3
ENDBRANCH   1   2
BRANCH   1  18
HETATM   18  N3  UNL     1     -27.755   3.130  15.351  1.00  0.00    -0.343 N
HETATM   19  C6  UNL     1     -27.683   4.334  14.723  1.00  0.00     0.092 A
HETATM   20  C7  UNL     1     -28.250   5.457  15.274  1.00  0.00     0.017 A
HETATM   21  C8  UNL     1     -28.904   5.374  16.482  1.00  0.00     0.005 A
HETATM   22  C9  UNL     1     -28.973   4.171  17.103  1.00  0.00     0.049 A
HETATM   23  C10 UNL     1     -28.386   3.018  16.528  1.00  0.00     0.113 A
BRANCH  23  24
HETATM   24  N4  UNL     1     -28.480   1.787  17.236  1.00  0.00    -0.318 N
HETATM   25  C11 UNL     1     -27.559   1.373  18.120  1.00  0.00     0.099 A
HETATM   26  C12 UNL     1     -27.663   0.186  18.818  1.00  0.00     0.030 A
HETATM   27  C13 UNL     1     -28.749  -0.630  18.620  1.00  0.00    -0.023 A
HETATM   28  C14 UNL     1     -28.897  -1.824  19.294  1.00  0.00     0.012 A
HETATM   29  C18 UNL     1     -29.701  -0.212  17.715  1.00  0.00    -0.010 A
HETATM   30  C15 UNL     1     -29.998  -2.627  19.079  1.00  0.00     0.001 A
HETATM   31  C16 UNL     1     -30.946  -2.218  18.182  1.00  0.00     0.001 A
HETATM   32  C17 UNL     1     -30.799  -1.018  17.503  1.00  0.00     0.013 A
HETATM   33  C19 UNL     1     -29.543   0.982  17.048  1.00  0.00     0.110 A
ENDBRANCH  23  24
ENDBRANCH   1  18
TORSDOF 9
ENDMDL