MODEL 2
REMARK VINA RESULT: -6.953649962      1.701      7.157
REMARK  11 active torsions:
REMARK  status: ('A' for Active; 'I' for Inactive)
REMARK    1  A    between atoms: C7_7  and  C8_8
REMARK    2  A    between atoms: C8_8  and  C9_9
REMARK    3  A    between atoms: C8_8  and  N1_18
REMARK    4  A    between atoms: C10_10  and  C11_11
REMARK    5  A    between atoms: C11_11  and  O1_12
REMARK    6  A    between atoms: C11_11  and  C12_14
REMARK    7  A    between atoms: C12_14  and  C13_15
REMARK    8  A    between atoms: C13_15  and  C14_16
REMARK    9  A    between atoms: N1_18  and  C16_21
REMARK   10  A    between atoms: C16_21  and  C17_22
REMARK   11  A    between atoms: C20_25  and  O2_26
ROOT
HETATM    1  C1  UNL     1     -31.501  -0.864  17.015  1.00  0.00     0.018 C
HETATM    2  C2  UNL     1     -30.622  -0.397  16.335  1.00  0.00    -0.078 C
HETATM    3  C3  UNL     1     -29.578   0.183  15.509  1.00  0.00     0.017 A
HETATM    4  C4  UNL     1     -29.696   0.112  14.135  1.00  0.00     0.020 A
HETATM    5  C5  UNL     1     -28.720   0.654  13.330  1.00  0.00     0.002 A
HETATM    6  C6  UNL     1     -27.646   1.258  13.950  1.00  0.00     0.010 A
HETATM    7  C7  UNL     1     -27.516   1.335  15.325  1.00  0.00    -0.015 A
HETATM    8  C26 UNL     1     -28.496   0.790  16.124  1.00  0.00     0.030 A
ENDROOT
BRANCH   7   9
HETATM    9  C8  UNL     1     -26.360   1.984  15.982  1.00  0.00     0.297 C
BRANCH   9  10
HETATM   10  C9  UNL     1     -25.088   1.637  15.334  1.00  0.00    -0.066 C
HETATM   11  C10 UNL     1     -24.031   1.368  14.788  1.00  0.00    -0.072 C
BRANCH  11  12
HETATM   12  C11 UNL     1     -22.784   1.081  14.105  1.00  0.00     0.197 C
BRANCH  12  13
HETATM   13  O1  UNL     1     -23.123   0.350  12.953  1.00  0.00    -0.383 OA
ATOM     14  H1  UNL     1     -22.382  -0.215  12.767  1.00  0.00     0.211 HD
ENDBRANCH  12  13
BRANCH  12  15
HETATM   15  C12 UNL     1     -21.719   0.426  14.895  1.00  0.00     0.044 C
BRANCH  15  16
HETATM   16  C13 UNL     1     -21.013   1.170  15.942  1.00  0.00     0.003 C
BRANCH  16  17
HETATM   17  C14 UNL     1     -19.921   0.518  16.701  1.00  0.00    -0.004 C
HETATM   18  C15 UNL     1     -19.922   1.102  18.136  1.00  0.00     0.005 C
ENDBRANCH  16  17
ENDBRANCH  15  16
ENDBRANCH  12  15
ENDBRANCH  11  12
ENDBRANCH   9  10
BRANCH   9  19
HETATM   19  N1  UNL     1     -26.266   1.618  17.357  1.00  0.00    -0.052 N
ATOM     20  H12 UNL     1     -26.731   0.726  17.526  1.00  0.00     0.279 HD
ATOM     21  H11 UNL     1     -25.309   1.359  17.598  1.00  0.00     0.279 HD
BRANCH  19  22
HETATM   22  C16 UNL     1     -26.765   2.635  18.259  1.00  0.00     0.273 C
BRANCH  22  23
HETATM   23  C17 UNL     1     -28.014   2.224  18.924  1.00  0.00    -0.021 A
HETATM   24  C18 UNL     1     -28.465   1.122  19.484  1.00  0.00    -0.015 A
HETATM   25  C19 UNL     1     -28.243  -0.215  19.840  1.00  0.00     0.049 A
HETATM   26  C24 UNL     1     -29.658   1.714  19.786  1.00  0.00    -0.025 A
HETATM   27  C20 UNL     1     -29.196  -0.975  20.497  1.00  0.00     0.069 A
HETATM   28  C22 UNL     1     -30.392  -0.355  20.791  1.00  0.00     0.037 A
HETATM   29  C23 UNL     1     -30.620   0.978  20.439  1.00  0.00     0.015 A
HETATM   30  C25 UNL     1     -29.278   2.853  19.243  1.00  0.00     0.022 A
BRANCH  27  31
HETATM   31  O2  UNL     1     -28.922  -2.301  20.828  1.00  0.00    -0.356 OA
HETATM   32  C21 UNL     1     -29.298  -3.400  20.061  1.00  0.00     0.210 C
ENDBRANCH  27  31
ENDBRANCH  22  23
ENDBRANCH  19  22
ENDBRANCH   9  19
ENDBRANCH   7   9
TORSDOF 11
ENDMDL