MODEL 2
REMARK VINA RESULT: -7.696907247      1.277      1.933
REMARK  10 active torsions:
REMARK  status: ('A' for Active; 'I' for Inactive)
REMARK    1  A    between atoms: C2_2  and  C3_3
REMARK    2  A    between atoms: C3_3  and  C4_4
REMARK    3  A    between atoms: C4_4  and  C5_5
REMARK    4  A    between atoms: C5_5  and  C6_6
REMARK    5  A    between atoms: C6_6  and  C7_7
REMARK    6  A    between atoms: C10_10  and  C11_11
REMARK    7  A    between atoms: C11_11  and  C12_12
REMARK    8  A    between atoms: C13_15  and  C14_16
REMARK    9  A    between atoms: C14_16  and  C15_17
REMARK   10  A    between atoms: C23_29  and  O2_30
ROOT
HETATM    1  C11 UNL     1     -27.723   1.991  15.648  1.00  0.00     0.065 C
ENDROOT
BRANCH   1   2
HETATM    2  C10 UNL     1     -28.110   1.093  16.751  1.00  0.00     0.038 A
HETATM    3  C9  UNL     1     -27.319   0.889  17.863  1.00  0.00     0.030 A
HETATM    4  C8  UNL     1     -27.731   0.028  18.881  1.00  0.00     0.013 A
HETATM    5  C7  UNL     1     -28.941  -0.647  18.813  1.00  0.00    -0.007 A
HETATM    6  C23 UNL     1     -29.697  -0.409  17.679  1.00  0.00     0.148 A
HETATM    7  N3  UNL     1     -29.279   0.431  16.699  1.00  0.00    -0.332 N
HETATM    8  C22 UNL     1     -30.117   0.634  15.537  1.00  0.00     0.158 C
BRANCH   5   9
HETATM    9  C6  UNL     1     -29.414  -1.556  19.866  1.00  0.00     0.043 C
BRANCH   9  10
HETATM   10  C5  UNL     1     -29.293  -3.020  19.448  1.00  0.00     0.005 C
BRANCH  10  11
HETATM   11  C4  UNL     1     -29.332  -3.914  20.676  1.00  0.00     0.000 C
BRANCH  11  12
HETATM   12  C3  UNL     1     -30.744  -4.151  21.141  1.00  0.00    -0.000 C
BRANCH  12  13
HETATM   13  C2  UNL     1     -30.873  -5.441  21.925  1.00  0.00    -0.005 C
HETATM   14  C1  UNL     1     -32.159  -5.325  22.746  1.00  0.00     0.005 C
ENDBRANCH  12  13
ENDBRANCH  11  12
ENDBRANCH  10  11
ENDBRANCH   9  10
ENDBRANCH   5   9
BRANCH   6  15
HETATM   15  O2  UNL     1     -30.931  -1.072  17.566  1.00  0.00    -0.346 OA
ATOM     16  H2  UNL     1     -31.459  -1.160  18.352  1.00  0.00     0.219 HD
ENDBRANCH   6  15
ENDBRANCH   1   2
BRANCH   1  17
HETATM   17  C12 UNL     1     -26.653   1.799  14.923  1.00  0.00     0.104 A
HETATM   18  N1  UNL     1     -25.423   2.340  14.983  1.00  0.00    -0.338 N
HETATM   19  C13 UNL     1     -24.619   1.853  14.022  1.00  0.00     0.109 A
ATOM     20  H1  UNL     1     -25.134   3.033  15.674  1.00  0.00     0.167 HD
HETATM   21  N2  UNL     1     -25.344   0.974  13.320  1.00  0.00    -0.308 N
HETATM   22  C21 UNL     1     -26.573   0.931  13.852  1.00  0.00     0.273 A
ATOM     23  H2  UNL     1     -25.018   0.432  12.519  1.00  0.00     0.170 HD
HETATM   24  O1  UNL     1     -27.534   0.196  13.431  1.00  0.00    -0.266 OA
BRANCH  19  25
HETATM   25  C14 UNL     1     -23.334   2.189  13.813  1.00  0.00     0.060 C
BRANCH  25  26
HETATM   26  C15 UNL     1     -22.324   1.739  14.730  1.00  0.00    -0.033 A
HETATM   27  C16 UNL     1     -21.737   0.492  14.610  1.00  0.00     0.011 A
HETATM   28  C17 UNL     1     -20.760   0.065  15.500  1.00  0.00     0.001 A
HETATM   29  C18 UNL     1     -20.336   0.861  16.535  1.00  0.00     0.000 A
HETATM   30  C19 UNL     1     -20.906   2.100  16.669  1.00  0.00     0.001 A
HETATM   31  C20 UNL     1     -21.874   2.531  15.793  1.00  0.00     0.011 A
ENDBRANCH  25  26
ENDBRANCH  19  25
ENDBRANCH   1  17
TORSDOF 10
ENDMDL