MODEL 4
REMARK VINA RESULT: -6.626789246      2.626      9.070
REMARK  8 active torsions:
REMARK  status: ('A' for Active; 'I' for Inactive)
REMARK    1  A    between atoms: C3_3  and  C4_4
REMARK    2  A    between atoms: C4_4  and  C5_5
REMARK    3  A    between atoms: N1_10  and  C10_11
REMARK    4  A    between atoms: C10_11  and  C11_12
REMARK    5  A    between atoms: C11_12  and  C12_13
REMARK    6  A    between atoms: C12_13  and  C13_14
REMARK    7  A    between atoms: C13_14  and  N2_15
REMARK    8  A    between atoms: C16_18  and  N3_19
ROOT
HETATM    1  C1  UNL     1     -28.942  -1.513  18.751  1.00  0.00     0.112 C
HETATM    2  C2  UNL     1     -28.369  -0.253  18.256  1.00  0.00    -0.111 C
HETATM    3  C3  UNL     1     -27.912   0.777  17.832  1.00  0.00    -0.101 C
ENDROOT
BRANCH   3   4
HETATM    4  C4  UNL     1     -27.367   2.044  17.283  1.00  0.00     0.153 C
BRANCH   4   5
HETATM    5  C5  UNL     1     -26.816   1.792  15.955  1.00  0.00     0.051 A
HETATM    6  C6  UNL     1     -25.454   1.816  15.713  1.00  0.00     0.084 A
HETATM    7  C7  UNL     1     -24.941   1.589  14.455  1.00  0.00     0.010 A
HETATM    8  N6  UNL     1     -24.575   2.087  16.806  1.00  0.00    -0.189 N
HETATM    9  C8  UNL     1     -25.807   1.328  13.399  1.00  0.00     0.032 A
HETATM   10  C21 UNL     1     -23.492   1.620  14.217  1.00  0.00     0.120 A
HETATM   11  C9  UNL     1     -27.147   1.316  13.692  1.00  0.00     0.092 A
HETATM   12  N1  UNL     1     -27.661   1.540  14.928  1.00  0.00    -0.357 N
HETATM   13  N4  UNL     1     -22.727   1.864  15.201  1.00  0.00    -0.201 N
HETATM   14  C22 UNL     1     -23.180   2.107  16.524  1.00  0.00     0.676 A
ATOM     15  H4  UNL     1     -21.721   1.885  15.029  1.00  0.00     0.183 HD
HETATM   16  N5  UNL     1     -22.343   2.348  17.476  1.00  0.00    -0.234 N
ATOM     17  H52 UNL     1     -21.343   2.362  17.274  1.00  0.00     0.174 HD
ATOM     18  H51 UNL     1     -22.669   2.523  18.427  1.00  0.00     0.174 HD
ATOM     19  H6  UNL     1     -24.931   2.258  17.746  1.00  0.00     0.184 HD
BRANCH  12  20
HETATM   20  C10 UNL     1     -29.088   1.492  15.039  1.00  0.00     0.128 C
BRANCH  20  21
HETATM   21  C11 UNL     1     -29.577   0.182  14.471  1.00  0.00     0.022 C
BRANCH  21  22
HETATM   22  C12 UNL     1     -30.952  -0.128  14.944  1.00  0.00     0.022 C
BRANCH  22  23
HETATM   23  C13 UNL     1     -32.025   0.649  14.289  1.00  0.00     0.128 C
BRANCH  23  24
HETATM   24  N2  UNL     1     -32.303   0.299  12.914  1.00  0.00    -0.366 N
HETATM   25  C14 UNL     1     -31.864   0.941  11.831  1.00  0.00     0.092 A
HETATM   26  C15 UNL     1     -32.155   0.554  10.529  1.00  0.00     0.046 A
HETATM   27  C16 UNL     1     -32.943  -0.556  10.296  1.00  0.00     0.032 A
HETATM   28  C19 UNL     1     -33.398  -1.221  11.414  1.00  0.00     0.046 A
HETATM   29  C20 UNL     1     -33.088  -0.806  12.691  1.00  0.00     0.092 A
BRANCH  27  30
HETATM   30  N3  UNL     1     -33.272  -1.005   8.992  1.00  0.00    -0.389 N
HETATM   31  C17 UNL     1     -33.334  -0.026   7.932  1.00  0.00     0.149 C
HETATM   32  C18 UNL     1     -33.547  -2.387   8.687  1.00  0.00     0.149 C
ENDBRANCH  27  30
ENDBRANCH  23  24
ENDBRANCH  22  23
ENDBRANCH  21  22
ENDBRANCH  20  21
ENDBRANCH  12  20
ENDBRANCH   4   5
ENDBRANCH   3   4
TORSDOF 8
ENDMDL