MODEL 1
REMARK VINA RESULT: -7.522315461      0.000      0.000
REMARK  7 active torsions:
REMARK  status: ('A' for Active; 'I' for Inactive)
REMARK    1  A    between atoms: C4_7  and  C5_8
REMARK    2  A    between atoms: C5_8  and  C6_9
REMARK    3  A    between atoms: C6_9  and  C7_10
REMARK    4  A    between atoms: C7_10  and  O1_11
REMARK    5  A    between atoms: O1_11  and  C8_12
REMARK    6  A    between atoms: C8_12  and  C9_13
REMARK    7  A    between atoms: C12_20  and  C13_21
ROOT
HETATM    1  C9  UNL     1     -28.147   3.342  18.114  1.00  0.00    -0.005 A
HETATM    2  C10 UNL     1     -29.339   3.551  17.517  1.00  0.00     0.100 A
HETATM    3  N3  UNL     1     -29.140   3.217  16.186  1.00  0.00    -0.351 N
ATOM      4  H3  UNL     1     -29.841   3.254  15.446  1.00  0.00     0.166 HD
HETATM    5  C11 UNL     1     -27.835   2.827  16.042  1.00  0.00     0.116 A
HETATM    6  N4  UNL     1     -26.937   2.358  15.185  1.00  0.00    -0.341 N
ATOM      7  H4  UNL     1     -27.139   2.190  14.199  1.00  0.00     0.167 HD
HETATM    8  C12 UNL     1     -25.736   2.126  15.742  1.00  0.00     0.051 A
HETATM    9  C21 UNL     1     -25.902   2.471  17.104  1.00  0.00     0.046 A
HETATM   10  C22 UNL     1     -27.195   2.900  17.236  1.00  0.00     0.020 A
ENDROOT
BRANCH   1  11
HETATM   11  C8  UNL     1     -27.733   3.535  19.590  1.00  0.00     0.208 C
BRANCH  11  12
HETATM   12  O1  UNL     1     -27.637   2.320  20.042  1.00  0.00    -0.387 OA
BRANCH  12  13
HETATM   13  C7  UNL     1     -28.330   1.286  20.226  1.00  0.00     0.168 C
BRANCH  13  14
HETATM   14  C6  UNL     1     -27.724   0.013  19.748  1.00  0.00     0.032 C
BRANCH  14  15
HETATM   15  C5  UNL     1     -28.456  -0.349  18.412  1.00  0.00     0.061 C
BRANCH  15  16
HETATM   16  C4  UNL     1     -29.418  -1.368  18.897  1.00  0.00     0.029 A
HETATM   17  N1  UNL     1     -30.558  -1.671  18.317  1.00  0.00    -0.301 N
HETATM   18  C1  UNL     1     -31.158  -0.939  17.173  1.00  0.00     0.177 C
HETATM   19  N2  UNL     1     -31.090  -2.705  18.860  1.00  0.00    -0.310 N
HETATM   20  C2  UNL     1     -30.309  -3.137  19.882  1.00  0.00     0.109 A
ATOM     21  H2  UNL     1     -31.967  -3.136  18.569  1.00  0.00     0.186 HD
HETATM   22  C3  UNL     1     -29.213  -2.271  19.933  1.00  0.00     0.045 A
ENDBRANCH  15  16
ENDBRANCH  14  15
ENDBRANCH  13  14
ENDBRANCH  12  13
ENDBRANCH  11  12
ENDBRANCH   1  11
BRANCH   8  23
HETATM   23  C13 UNL     1     -24.486   1.700  15.123  1.00  0.00     0.071 A
HETATM   24  C14 UNL     1     -23.257   1.636  15.464  1.00  0.00     0.009 A
HETATM   25  C15 UNL     1     -22.636   1.970  16.662  1.00  0.00     0.015 A
HETATM   26  C19 UNL     1     -22.501   1.113  14.467  1.00  0.00     0.046 A
HETATM   27  C16 UNL     1     -21.262   1.754  16.796  1.00  0.00     0.001 A
HETATM   28  C17 UNL     1     -20.502   1.234  15.773  1.00  0.00     0.002 A
HETATM   29  C18 UNL     1     -21.104   0.898  14.586  1.00  0.00     0.030 A
HETATM   30  N5  UNL     1     -23.200   0.827  13.447  1.00  0.00    -0.322 N
HETATM   31  C20 UNL     1     -24.514   1.168  13.725  1.00  0.00     0.259 A
ATOM     32  H5  UNL     1     -22.855   0.420  12.577  1.00  0.00     0.169 HD
HETATM   33  O2  UNL     1     -25.553   1.087  13.025  1.00  0.00    -0.267 OA
ENDBRANCH   8  23
TORSDOF 7
ENDMDL