MODEL 1
REMARK VINA RESULT: -7.252194931      0.000      0.000
REMARK  7 active torsions:
REMARK  status: ('A' for Active; 'I' for Inactive)
REMARK    1  A    between atoms: C3_4  and  C4_5
REMARK    2  A    between atoms: C6_11  and  C7_12
REMARK    3  A    between atoms: C7_12  and  C8_13
REMARK    4  A    between atoms: C8_13  and  C9_14
REMARK    5  A    between atoms: C9_14  and  N4_15
REMARK    6  A    between atoms: C17_25  and  C18_26
REMARK    7  A    between atoms: C18_26  and  N6_27
ROOT
HETATM    1  C4  UNL     1     -27.120   0.993  14.876  1.00  0.00     0.119 A
HETATM    2  N2  UNL     1     -28.134   1.016  15.745  1.00  0.00    -0.326 N
ATOM      3  H2  UNL     1     -28.056   1.311  16.718  1.00  0.00     0.169 HD
HETATM    4  C5  UNL     1     -29.277   0.598  15.163  1.00  0.00     0.134 A
HETATM    5  N3  UNL     1     -30.574   0.357  15.325  1.00  0.00    -0.344 N
ATOM      6  H3  UNL     1     -31.082   0.493  16.199  1.00  0.00     0.167 HD
HETATM    7  C6  UNL     1     -31.129  -0.090  14.181  1.00  0.00     0.013 A
HETATM    8  C13 UNL     1     -30.102  -0.125  13.260  1.00  0.00     0.058 A
HETATM    9  C14 UNL     1     -28.920   0.302  13.844  1.00  0.00     0.080 A
HETATM   10  N5  UNL     1     -27.607   0.554  13.708  1.00  0.00    -0.339 N
ATOM     11  H5  UNL     1     -27.067   0.431  12.851  1.00  0.00     0.167 HD
ENDROOT
BRANCH   1  12
HETATM   12  C3  UNL     1     -25.747   1.369  15.130  1.00  0.00     0.024 A
HETATM   13  C2  UNL     1     -24.811   1.421  14.134  1.00  0.00     0.105 A
HETATM   14  N1  UNL     1     -23.503   1.772  14.334  1.00  0.00    -0.362 N
HETATM   15  C1  UNL     1     -22.639   1.758  13.172  1.00  0.00     0.155 C
HETATM   16  C17 UNL     1     -23.071   2.088  15.539  1.00  0.00     0.029 A
HETATM   17  C16 UNL     1     -23.996   2.051  16.599  1.00  0.00     0.028 A
HETATM   18  C15 UNL     1     -25.314   1.698  16.405  1.00  0.00     0.018 A
BRANCH  16  19
HETATM   19  C18 UNL     1     -21.673   2.487  15.782  1.00  0.00     0.186 C
BRANCH  19  20
HETATM   20  N6  UNL     1     -20.845   1.482  16.362  1.00  0.00    -0.346 N
HETATM   21  C19 UNL     1     -20.306   1.471  17.581  1.00  0.00     0.109 A
HETATM   22  C20 UNL     1     -19.562   0.316  17.769  1.00  0.00     0.106 A
HETATM   23  N7  UNL     1     -19.673  -0.370  16.613  1.00  0.00    -0.361 N
HETATM   24  C21 UNL     1     -20.449   0.343  15.769  1.00  0.00     0.182 A
ATOM     25  H7  UNL     1     -19.243  -1.273  16.411  1.00  0.00     0.166 HD
ENDBRANCH  19  20
ENDBRANCH  16  19
ENDBRANCH   1  12
BRANCH   7  26
HETATM   26  C7  UNL     1     -32.569  -0.476  13.945  1.00  0.00     0.059 C
BRANCH  26  27
HETATM   27  C8  UNL     1     -32.703  -1.252  12.668  1.00  0.00     0.034 C
BRANCH  27  28
HETATM   28  C9  UNL     1     -33.808  -0.734  11.841  1.00  0.00     0.236 C
BRANCH  28  29
HETATM   29  N4  UNL     1     -33.584  -0.494  10.468  1.00  0.00    -0.079 N
HETATM   30  C10 UNL     1     -32.376   0.332  10.309  1.00  0.00     0.271 C
HETATM   31  C11 UNL     1     -34.676   0.378   9.994  1.00  0.00     0.271 C
HETATM   32  C12 UNL     1     -33.527  -1.613   9.611  1.00  0.00     0.271 C
ENDBRANCH  28  29
ENDBRANCH  27  28
ENDBRANCH  26  27
ENDBRANCH   7  26
TORSDOF 7
ENDMDL