MODEL 2
REMARK VINA RESULT: -7.372434810      1.260      1.642
REMARK  10 active torsions:
REMARK  status: ('A' for Active; 'I' for Inactive)
REMARK    1  A    between atoms: N1_7  and  C7_8
REMARK    2  A    between atoms: C7_8  and  C8_9
REMARK    3  A    between atoms: C8_9  and  C9_10
REMARK    4  A    between atoms: C9_10  and  C10_11
REMARK    5  A    between atoms: C10_11  and  C11_12
REMARK    6  A    between atoms: C11_12  and  C12_13
REMARK    7  A    between atoms: C12_13  and  N2_14
REMARK    8  A    between atoms: N3_21  and  O1_22
REMARK    9  A    between atoms: C19_26  and  N5_27
REMARK   10  A    between atoms: N6_30  and  O2_31
ROOT
HETATM    1  N2  UNL     1     -25.944   2.072  15.603  1.00  0.00    -0.358 N
HETATM    2  C13 UNL     1     -24.812   2.092  16.346  1.00  0.00     0.126 A
HETATM    3  C14 UNL     1     -23.560   1.879  15.819  1.00  0.00     0.127 A
HETATM    4  C15 UNL     1     -23.422   1.629  14.466  1.00  0.00     0.114 A
HETATM    5  C16 UNL     1     -24.574   1.609  13.711  1.00  0.00     0.061 A
HETATM    6  C17 UNL     1     -25.831   1.830  14.286  1.00  0.00     0.009 A
HETATM    7  C18 UNL     1     -27.006   1.789  13.379  1.00  0.00     0.068 C
HETATM    8  N3  UNL     1     -22.202   1.415  13.911  1.00  0.00    -0.147 N
HETATM    9  N4  UNL     1     -21.118   1.437  14.643  1.00  0.00    -0.103 N
ATOM     10  H4  UNL     1     -20.200   1.276  14.229  1.00  0.00     0.208 HD
HETATM   11  C19 UNL     1     -21.252   1.679  15.956  1.00  0.00     0.719 A
HETATM   12  N6  UNL     1     -22.439   1.899  16.553  1.00  0.00    -0.048 N
ENDROOT
BRANCH   1  13
HETATM   13  C12 UNL     1     -27.245   2.289  16.144  1.00  0.00     0.128 C
BRANCH  13  14
HETATM   14  C11 UNL     1     -27.667   1.321  17.199  1.00  0.00     0.020 C
BRANCH  14  15
HETATM   15  C10 UNL     1     -28.526   0.260  16.543  1.00  0.00     0.002 C
BRANCH  15  16
HETATM   16  C9  UNL     1     -29.649  -0.188  17.471  1.00  0.00     0.002 C
BRANCH  16  17
HETATM   17  C8  UNL     1     -29.082  -1.275  18.324  1.00  0.00     0.020 C
BRANCH  17  18
HETATM   18  C7  UNL     1     -29.240  -1.139  19.790  1.00  0.00     0.128 C
BRANCH  18  19
HETATM   19  N1  UNL     1     -30.064  -2.134  20.431  1.00  0.00    -0.360 N
HETATM   20  C2  UNL     1     -31.264  -1.889  20.929  1.00  0.00     0.007 A
HETATM   21  C1  UNL     1     -31.923  -0.556  20.819  1.00  0.00     0.068 C
HETATM   22  C3  UNL     1     -31.990  -2.892  21.566  1.00  0.00     0.025 A
HETATM   23  C4  UNL     1     -31.479  -4.148  21.688  1.00  0.00     0.003 A
HETATM   24  C5  UNL     1     -30.229  -4.360  21.155  1.00  0.00     0.017 A
HETATM   25  C6  UNL     1     -29.523  -3.370  20.533  1.00  0.00     0.091 A
ENDBRANCH  18  19
ENDBRANCH  17  18
ENDBRANCH  16  17
ENDBRANCH  15  16
ENDBRANCH  14  15
ENDBRANCH  13  14
ENDBRANCH   1  13
BRANCH  12  26
HETATM   26  O2  UNL     1     -22.545   2.145  17.907  1.00  0.00    -0.269 OA
ATOM     27  H2  UNL     1     -22.639   1.406  18.495  1.00  0.00     0.245 HD
ENDBRANCH  12  26
BRANCH   8  28
HETATM   28  O1  UNL     1     -22.137   1.171  12.555  1.00  0.00    -0.267 OA
ATOM     29  H1  UNL     1     -21.832   1.870  11.988  1.00  0.00     0.247 HD
ENDBRANCH   8  28
BRANCH  11  30
HETATM   30  N5  UNL     1     -20.166   1.700  16.671  1.00  0.00    -0.231 N
ATOM     31  H52 UNL     1     -19.667   0.827  16.847  1.00  0.00     0.174 HD
ATOM     32  H51 UNL     1     -19.860   2.605  17.028  1.00  0.00     0.174 HD
ENDBRANCH  11  30
TORSDOF 10
ENDMDL