MODEL 2
REMARK VINA RESULT: -5.820958944      2.519      3.587
REMARK  9 active torsions:
REMARK  status: ('A' for Active; 'I' for Inactive)
REMARK    1  A    between atoms: C3_3  and  N1_4
REMARK    2  A    between atoms: N1_4  and  C6_7
REMARK    3  A    between atoms: C6_7  and  C7_8
REMARK    4  A    between atoms: C7_8  and  C8_9
REMARK    5  A    between atoms: C8_9  and  C10_11
REMARK    6  A    between atoms: C14_16  and  C15_17
REMARK    7  A    between atoms: C15_17  and  C16_18
REMARK    8  A    between atoms: C16_18  and  O1_19
REMARK    9  A    between atoms: N4_24  and  O2_25
ROOT
HETATM    1  C1  UNL     1     -29.864   0.470  13.614  1.00  0.00     0.013 C
HETATM    2  C2  UNL     1     -28.655   0.573  13.665  1.00  0.00    -0.089 C
HETATM    3  C3  UNL     1     -27.218   0.718  13.717  1.00  0.00     0.328 C
ENDROOT
BRANCH   3   4
HETATM    4  N1  UNL     1     -26.820   2.139  13.473  1.00  0.00    -0.065 N
HETATM    5  C4  UNL     1     -25.393   2.142  13.682  1.00  0.00     0.273 C
HETATM    6  C5  UNL     1     -27.159   2.388  12.090  1.00  0.00     0.273 C
BRANCH   4   7
HETATM    7  C6  UNL     1     -27.583   2.895  14.403  1.00  0.00     0.238 C
BRANCH   7   8
HETATM    8  C7  UNL     1     -27.062   3.091  15.766  1.00  0.00     0.040 C
BRANCH   8   9
HETATM    9  C8  UNL     1     -28.053   3.526  16.827  1.00  0.00     0.051 C
HETATM   10  C9  UNL     1     -29.307   3.947  16.042  1.00  0.00     0.018 C
BRANCH   9  11
HETATM   11  C10 UNL     1     -28.382   2.423  17.767  1.00  0.00     0.089 A
HETATM   12  N2  UNL     1     -27.982   2.413  18.979  1.00  0.00    -0.324 N
HETATM   13  C11 UNL     1     -27.184   3.484  19.514  1.00  0.00     0.159 C
HETATM   14  C12 UNL     1     -28.372   1.311  19.831  1.00  0.00     0.151 A
HETATM   15  C13 UNL     1     -29.172   0.257  19.392  1.00  0.00     0.043 A
HETATM   16  N4  UNL     1     -27.927   1.319  21.090  1.00  0.00    -0.193 N
HETATM   17  C14 UNL     1     -29.534  -0.805  20.224  1.00  0.00    -0.037 A
HETATM   18  C19 UNL     1     -29.632   0.262  18.025  1.00  0.00     0.038 A
HETATM   19  C17 UNL     1     -29.026  -0.718  21.527  1.00  0.00     0.056 A
HETATM   20  C18 UNL     1     -28.247   0.322  21.930  1.00  0.00     0.146 A
HETATM   21  N3  UNL     1     -27.758   0.367  23.252  1.00  0.00    -0.080 NA
HETATM   22  C20 UNL     1     -30.375  -0.634  17.491  1.00  0.00     0.044 C
HETATM   23  N5  UNL     1     -29.195   1.396  17.236  1.00  0.00    -0.345 N
ATOM     24  H5  UNL     1     -29.487   1.456  16.260  1.00  0.00     0.167 HD
BRANCH  17  25
HETATM   25  C15 UNL     1     -30.365  -1.933  19.823  1.00  0.00     0.066 C
BRANCH  25  26
HETATM   26  C16 UNL     1     -29.577  -3.211  20.221  1.00  0.00     0.168 C
BRANCH  26  27
HETATM   27  O1  UNL     1     -29.170  -3.784  18.987  1.00  0.00    -0.401 OA
ATOM     28  H1  UNL     1     -29.720  -4.552  18.884  1.00  0.00     0.209 HD
ENDBRANCH  26  27
ENDBRANCH  25  26
ENDBRANCH  17  25
BRANCH  16  29
HETATM   29  O2  UNL     1     -27.102   2.340  21.578  1.00  0.00    -0.280 OA
ATOM     30  H2  UNL     1     -26.199   2.435  21.298  1.00  0.00     0.245 HD
ENDBRANCH  16  29
ENDBRANCH   9  11
ENDBRANCH   8   9
ENDBRANCH   7   8
ENDBRANCH   4   7
ENDBRANCH   3   4
TORSDOF 9
ENDMDL