MODEL 2
REMARK VINA RESULT: -7.306715283      1.667      2.111
REMARK  7 active torsions:
REMARK  status: ('A' for Active; 'I' for Inactive)
REMARK    1  A    between atoms: N2_7  and  C5_9
REMARK    2  A    between atoms: C5_9  and  C6_10
REMARK    3  A    between atoms: C6_10  and  N3_11
REMARK    4  A    between atoms: C8_16  and  C10_18
REMARK    5  A    between atoms: C10_18  and  C11_19
REMARK    6  A    between atoms: C11_19  and  C12_20
REMARK    7  A    between atoms: C12_20  and  C13_21
ROOT
HETATM    1  N3  UNL     1     -26.962   1.953  14.432  1.00  0.00    -0.266 N
HETATM    2  C7  UNL     1     -27.280   2.653  15.634  1.00  0.00     0.326 C
HETATM    3  O1  UNL     1     -26.675   3.669  16.078  1.00  0.00    -0.247 OA
HETATM    4  N4  UNL     1     -28.396   1.989  16.223  1.00  0.00    -0.325 N
ATOM      5  H4  UNL     1     -28.661   1.994  17.208  1.00  0.00     0.165 HD
HETATM    6  C8  UNL     1     -29.088   1.298  15.129  1.00  0.00     0.112 C
HETATM    7  C9  UNL     1     -29.836   2.326  14.355  1.00  0.00     0.049 C
HETATM    8  C18 UNL     1     -27.910   0.866  14.324  1.00  0.00     0.256 C
HETATM    9  O2  UNL     1     -27.687  -0.168  13.669  1.00  0.00    -0.270 OA
ENDROOT
BRANCH   1  10
HETATM   10  C6  UNL     1     -25.885   2.269  13.489  1.00  0.00     0.157 C
BRANCH  10  11
HETATM   11  C5  UNL     1     -24.686   1.458  13.928  1.00  0.00     0.158 C
BRANCH  11  12
HETATM   12  N2  UNL     1     -24.168   1.899  15.204  1.00  0.00    -0.224 N
HETATM   13  C4  UNL     1     -22.966   1.561  15.530  1.00  0.00     0.678 A
HETATM   14  N1  UNL     1     -22.075   0.821  14.822  1.00  0.00    -0.200 N
HETATM   15  N7  UNL     1     -22.331   1.884  16.672  1.00  0.00    -0.195 N
HETATM   16  C3  UNL     1     -20.936   0.696  15.512  1.00  0.00     0.131 A
ATOM     17  H1  UNL     1     -22.249   0.419  13.900  1.00  0.00     0.183 HD
HETATM   18  C2  UNL     1     -21.095   1.375  16.695  1.00  0.00     0.038 A
HETATM   19  C1  UNL     1     -20.060   1.500  17.781  1.00  0.00     0.070 C
ATOM     20  H7  UNL     1     -22.740   2.443  17.421  1.00  0.00     0.184 HD
ATOM     21  H2  UNL     1     -24.740   2.463  15.833  1.00  0.00     0.177 HD
ENDBRANCH  11  12
ENDBRANCH  10  11
ENDBRANCH   1  10
BRANCH   6  22
HETATM   22  C10 UNL     1     -29.924   0.172  15.634  1.00  0.00     0.041 C
BRANCH  22  23
HETATM   23  C11 UNL     1     -30.162   0.191  17.103  1.00  0.00     0.008 C
BRANCH  23  24
HETATM   24  C12 UNL     1     -29.309  -0.875  17.784  1.00  0.00     0.041 C
BRANCH  24  25
HETATM   25  C13 UNL     1     -29.083  -0.592  19.201  1.00  0.00    -0.027 A
HETATM   26  C14 UNL     1     -28.481   0.529  19.555  1.00  0.00     0.099 A
HETATM   27  N5  UNL     1     -28.231   0.866  20.913  1.00  0.00    -0.357 N
HETATM   28  C15 UNL     1     -27.571   2.093  21.320  1.00  0.00     0.156 C
HETATM   29  C16 UNL     1     -28.600   0.057  21.851  1.00  0.00     0.182 A
HETATM   30  N6  UNL     1     -29.247  -1.154  21.501  1.00  0.00    -0.361 N
HETATM   31  C17 UNL     1     -29.489  -1.488  20.281  1.00  0.00     0.097 A
ATOM     32  H6  UNL     1     -29.534  -1.788  22.247  1.00  0.00     0.166 HD
ENDBRANCH  24  25
ENDBRANCH  23  24
ENDBRANCH  22  23
ENDBRANCH   6  22
TORSDOF 7
ENDMDL