MODEL 4
REMARK VINA RESULT: -8.019788354      1.616      2.378
REMARK  8 active torsions:
REMARK  status: ('A' for Active; 'I' for Inactive)
REMARK    1  A    between atoms: N2_8  and  C6_9
REMARK    2  A    between atoms: C6_9  and  C7_10
REMARK    3  A    between atoms: C7_10  and  C8_11
REMARK    4  A    between atoms: C8_11  and  C9_12
REMARK    5  A    between atoms: C9_12  and  N3_13
REMARK    6  A    between atoms: C13_17  and  C14_18
REMARK    7  A    between atoms: N4_19  and  N5_21
REMARK    8  A    between atoms: N5_21  and  C15_23
ROOT
HETATM    1  N3  UNL     1     -28.033   1.580  16.896  1.00  0.00    -0.366 N
HETATM    2  C10 UNL     1     -28.998   0.713  16.553  1.00  0.00     0.090 A
HETATM    3  C11 UNL     1     -29.205   0.368  15.222  1.00  0.00     0.018 A
HETATM    4  C12 UNL     1     -28.420   0.910  14.218  1.00  0.00     0.015 A
HETATM    5  C13 UNL     1     -27.431   1.799  14.572  1.00  0.00    -0.004 A
HETATM    6  C20 UNL     1     -27.283   2.097  15.929  1.00  0.00     0.103 A
ENDROOT
BRANCH   5   7
HETATM    7  C14 UNL     1     -26.566   2.410  13.603  1.00  0.00     0.120 C
HETATM    8  N4  UNL     1     -25.406   2.144  13.239  1.00  0.00    -0.297 N
ATOM      9  H4  UNL     1     -25.037   2.762  12.516  1.00  0.00     0.186 HD
BRANCH   8  10
HETATM   10  N5  UNL     1     -24.556   1.180  13.635  1.00  0.00    -0.132 N
ATOM     11  H5  UNL     1     -24.684   0.251  13.234  1.00  0.00     0.205 HD
BRANCH  10  12
HETATM   12  C15 UNL     1     -23.585   1.330  14.488  1.00  0.00     0.699 A
HETATM   13  N6  UNL     1     -23.879   1.865  15.682  1.00  0.00    -0.200 N
HETATM   14  C16 UNL     1     -22.924   2.046  16.603  1.00  0.00     0.118 A
ATOM     15  H6  UNL     1     -24.840   2.138  15.890  1.00  0.00     0.183 HD
HETATM   16  C17 UNL     1     -21.629   1.678  16.323  1.00  0.00     0.022 A
HETATM   17  C18 UNL     1     -20.526   1.861  17.320  1.00  0.00     0.056 C
HETATM   18  C19 UNL     1     -21.319   1.124  15.088  1.00  0.00     0.266 A
HETATM   19  O1  UNL     1     -20.133   0.788  14.833  1.00  0.00    -0.267 OA
HETATM   20  N7  UNL     1     -22.325   0.966  14.197  1.00  0.00    -0.154 N
ATOM     21  H7  UNL     1     -22.121   0.561  13.284  1.00  0.00     0.187 HD
ENDBRANCH  10  12
ENDBRANCH   8  10
ENDBRANCH   5   7
BRANCH   1  22
HETATM   22  C9  UNL     1     -27.852   1.916  18.289  1.00  0.00     0.128 C
BRANCH  22  23
HETATM   23  C8  UNL     1     -27.671   0.629  19.051  1.00  0.00     0.022 C
BRANCH  23  24
HETATM   24  C7  UNL     1     -28.248   0.674  20.450  1.00  0.00     0.022 C
BRANCH  24  25
HETATM   25  C6  UNL     1     -29.170  -0.493  20.648  1.00  0.00     0.130 C
BRANCH  25  26
HETATM   26  N2  UNL     1     -30.208  -0.611  19.659  1.00  0.00    -0.344 N
HETATM   27  C2  UNL     1     -30.400  -1.755  18.845  1.00  0.00     0.097 A
HETATM   28  C1  UNL     1     -29.578  -2.782  18.887  1.00  0.00     0.064 C
HETATM   29  N1  UNL     1     -31.498  -1.756  17.948  1.00  0.00    -0.353 N
HETATM   30  C3  UNL     1     -32.388  -0.660  17.851  1.00  0.00     0.091 A
ATOM     31  H1  UNL     1     -31.650  -2.572  17.354  1.00  0.00     0.166 HD
HETATM   32  C4  UNL     1     -32.171   0.384  18.627  1.00  0.00     0.034 A
HETATM   33  C5  UNL     1     -31.047   0.392  19.549  1.00  0.00     0.094 A
ENDBRANCH  25  26
ENDBRANCH  24  25
ENDBRANCH  23  24
ENDBRANCH  22  23
ENDBRANCH   1  22
TORSDOF 8
ENDMDL