MODEL 4
REMARK VINA RESULT: -5.322230230      3.306      6.342
REMARK  10 active torsions:
REMARK  status: ('A' for Active; 'I' for Inactive)
REMARK    1  A    between atoms: C3_3  and  C4_4
REMARK    2  A    between atoms: C5_5  and  C6_6
REMARK    3  A    between atoms: C6_6  and  C7_7
REMARK    4  A    between atoms: C7_7  and  C8_8
REMARK    5  A    between atoms: C8_8  and  N1_9
REMARK    6  A    between atoms: N2_14  and  C13_15
REMARK    7  A    between atoms: C13_15  and  C14_16
REMARK    8  A    between atoms: C14_16  and  O1_17
REMARK    9  A    between atoms: N3_20  and  O2_21
REMARK   10  A    between atoms: C18_27  and  O3_28
ROOT
HETATM    1  C4  UNL     1     -26.650   2.281  14.849  1.00  0.00     0.085 A
HETATM    2  C5  UNL     1     -26.229   2.005  16.106  1.00  0.00    -0.012 A
HETATM    3  C12 UNL     1     -24.880   1.725  16.289  1.00  0.00     0.101 A
HETATM    4  N2  UNL     1     -23.994   1.719  15.311  1.00  0.00    -0.348 N
HETATM    5  C15 UNL     1     -24.418   1.999  14.053  1.00  0.00     0.216 A
HETATM    6  N3  UNL     1     -25.708   2.267  13.851  1.00  0.00    -0.219 N
ENDROOT
BRANCH   1   7
HETATM    7  C3  UNL     1     -28.039   2.454  14.464  1.00  0.00     0.038 A
HETATM    8  C2  UNL     1     -28.824   1.495  13.994  1.00  0.00    -0.020 A
HETATM    9  C1  UNL     1     -28.494   0.071  13.748  1.00  0.00     0.049 C
HETATM   10  C18 UNL     1     -30.204   2.021  13.728  1.00  0.00     0.251 A
HETATM   11  N4  UNL     1     -30.135   3.423  13.993  1.00  0.00    -0.345 N
HETATM   12  C16 UNL     1     -28.819   3.680  14.479  1.00  0.00     0.113 A
HETATM   13  C17 UNL     1     -31.218   4.351  13.787  1.00  0.00     0.153 C
HETATM   14  S1  UNL     1     -28.321   5.171  14.974  1.00  0.00    -0.059 SA
BRANCH  10  15
HETATM   15  O3  UNL     1     -30.487   1.716  12.387  1.00  0.00    -0.373 OA
ATOM     16  H3  UNL     1     -29.718   1.272  12.048  1.00  0.00     0.212 HD
ENDBRANCH  10  15
ENDBRANCH   1   7
BRANCH   2  17
HETATM   17  C6  UNL     1     -27.124   2.138  17.283  1.00  0.00     0.044 C
BRANCH  17  18
HETATM   18  C7  UNL     1     -27.801   0.842  17.612  1.00  0.00     0.032 C
BRANCH  18  19
HETATM   19  C8  UNL     1     -27.972   0.619  19.070  1.00  0.00     0.236 C
BRANCH  19  20
HETATM   20  N1  UNL     1     -29.010  -0.206  19.544  1.00  0.00    -0.079 N
HETATM   21  C9  UNL     1     -29.125  -1.453  18.774  1.00  0.00     0.271 C
HETATM   22  C10 UNL     1     -29.101  -0.513  20.922  1.00  0.00     0.271 C
HETATM   23  C11 UNL     1     -30.280   0.492  19.206  1.00  0.00     0.271 C
ENDBRANCH  19  20
ENDBRANCH  18  19
ENDBRANCH  17  18
ENDBRANCH   2  17
BRANCH   6  24
HETATM   24  O2  UNL     1     -26.121   2.549  12.547  1.00  0.00    -0.282 OA
ATOM     25  H2  UNL     1     -26.433   3.424  12.354  1.00  0.00     0.245 HD
ENDBRANCH   6  24
BRANCH   4  26
HETATM   26  C13 UNL     1     -22.596   1.409  15.533  1.00  0.00     0.155 C
BRANCH  26  27
HETATM   27  C14 UNL     1     -21.887   2.436  16.368  1.00  0.00     0.184 C
BRANCH  27  28
HETATM   28  O1  UNL     1     -21.576   1.837  17.591  1.00  0.00    -0.399 OA
ATOM     29  H1  UNL     1     -21.855   2.432  18.277  1.00  0.00     0.209 HD
ENDBRANCH  27  28
ENDBRANCH  26  27
ENDBRANCH   4  26
TORSDOF 10
ENDMDL