MODEL 1
REMARK VINA RESULT: -6.924354062      0.000      0.000
REMARK  11 active torsions:
REMARK  status: ('A' for Active; 'I' for Inactive)
REMARK    1  A    between atoms: C4_5  and  C5_6
REMARK    2  A    between atoms: C6_7  and  C7_8
REMARK    3  A    between atoms: C7_8  and  C8_9
REMARK    4  A    between atoms: C8_9  and  C9_10
REMARK    5  A    between atoms: C9_10  and  C10_11
REMARK    6  A    between atoms: C10_11  and  O1_12
REMARK    7  A    between atoms: N3_20  and  C15_21
REMARK    8  A    between atoms: C15_21  and  C16_22
REMARK    9  A    between atoms: C16_22  and  O2_23
REMARK   10  A    between atoms: C16_22  and  C17_25
REMARK   11  A    between atoms: C17_25  and  O3_26
ROOT
HETATM    1  C5  UNL     1     -27.175   1.820  15.396  1.00  0.00     0.052 A
HETATM    2  C6  UNL     1     -26.609   1.810  16.632  1.00  0.00    -0.028 A
HETATM    3  C11 UNL     1     -25.202   1.827  16.738  1.00  0.00     0.043 A
HETATM    4  C12 UNL     1     -24.391   1.855  15.629  1.00  0.00     0.080 A
HETATM    5  C13 UNL     1     -25.041   1.864  14.393  1.00  0.00     0.136 A
HETATM    6  N2  UNL     1     -24.048   1.891  13.485  1.00  0.00    -0.336 N
ATOM      7  H2  UNL     1     -24.176   1.905  12.473  1.00  0.00     0.168 HD
HETATM    8  C14 UNL     1     -22.859   1.898  14.116  1.00  0.00     0.185 A
HETATM    9  N3  UNL     1     -23.060   1.877  15.448  1.00  0.00    -0.337 N
HETATM   10  N4  UNL     1     -26.362   1.847  14.286  1.00  0.00    -0.335 N
HETATM   11  C18 UNL     1     -27.038   1.856  12.986  1.00  0.00     0.158 C
ENDROOT
BRANCH   1  12
HETATM   12  C4  UNL     1     -28.615   1.784  15.227  1.00  0.00    -0.006 A
HETATM   13  C3  UNL     1     -29.394   2.947  15.232  1.00  0.00     0.031 A
HETATM   14  C2  UNL     1     -30.764   2.852  15.109  1.00  0.00     0.090 A
HETATM   15  N1  UNL     1     -31.413   1.693  14.984  1.00  0.00    -0.371 N
HETATM   16  C1  UNL     1     -32.877   1.641  14.858  1.00  0.00     0.154 C
HETATM   17  C20 UNL     1     -30.685   0.558  14.977  1.00  0.00     0.090 A
HETATM   18  C19 UNL     1     -29.316   0.614  15.097  1.00  0.00     0.031 A
ENDBRANCH   1  12
BRANCH   2  19
HETATM   19  C7  UNL     1     -27.401   1.803  17.863  1.00  0.00     0.041 C
BRANCH  19  20
HETATM   20  C8  UNL     1     -27.397   0.542  18.652  1.00  0.00     0.007 C
BRANCH  20  21
HETATM   21  C9  UNL     1     -28.822   0.095  18.889  1.00  0.00     0.026 C
BRANCH  21  22
HETATM   22  C10 UNL     1     -29.043  -1.243  18.275  1.00  0.00     0.164 C
BRANCH  22  23
HETATM   23  O1  UNL     1     -29.244  -2.144  19.334  1.00  0.00    -0.401 OA
ATOM     24  H1  UNL     1     -30.119  -2.499  19.227  1.00  0.00     0.209 HD
ENDBRANCH  22  23
ENDBRANCH  21  22
ENDBRANCH  20  21
ENDBRANCH  19  20
ENDBRANCH   2  19
BRANCH   9  25
HETATM   25  C15 UNL     1     -22.102   1.874  16.521  1.00  0.00     0.164 C
BRANCH  25  26
HETATM   26  C16 UNL     1     -20.818   1.183  16.194  1.00  0.00     0.160 C
BRANCH  26  27
HETATM   27  O2  UNL     1     -21.067  -0.087  15.731  1.00  0.00    -0.392 OA
ATOM     28  H2  UNL     1     -20.283  -0.620  15.798  1.00  0.00     0.210 HD
ENDBRANCH  26  27
BRANCH  26  29
HETATM   29  C17 UNL     1     -20.048   1.031  17.513  1.00  0.00     0.197 C
BRANCH  29  30
HETATM   30  O3  UNL     1     -19.652   2.275  17.991  1.00  0.00    -0.398 OA
ATOM     31  H3  UNL     1     -19.066   2.697  17.373  1.00  0.00     0.209 HD
ENDBRANCH  29  30
ENDBRANCH  26  29
ENDBRANCH  25  26
ENDBRANCH   9  25
TORSDOF 11
ENDMDL