MODEL 2
REMARK VINA RESULT: -6.300456456      1.811      3.593
REMARK  13 active torsions:
REMARK  status: ('A' for Active; 'I' for Inactive)
REMARK    1  A    between atoms: C3_3  and  C4_4
REMARK    2  A    between atoms: C4_4  and  C5_5
REMARK    3  A    between atoms: C5_5  and  C6_6
REMARK    4  A    between atoms: C6_6  and  C7_7
REMARK    5  A    between atoms: C7_7  and  C8_8
REMARK    6  A    between atoms: C9_13  and  C10_14
REMARK    7  A    between atoms: C10_14  and  C11_15
REMARK    8  A    between atoms: C11_15  and  C12_16
REMARK    9  A    between atoms: C14_20  and  C15_21
REMARK   10  A    between atoms: C15_21  and  N4_22
REMARK   11  A    between atoms: C18_25  and  C19_26
REMARK   12  A    between atoms: C19_26  and  O1_27
REMARK   13  A    between atoms: O1_27  and  C20_28
ROOT
HETATM    1  C1  UNL     1     -25.188   1.786  13.948  1.00  0.00     0.026 C
HETATM    2  C2  UNL     1     -25.994   1.483  14.924  1.00  0.00    -0.005 A
HETATM    3  C3  UNL     1     -27.222   0.901  14.840  1.00  0.00     0.039 A
HETATM    4  N3  UNL     1     -27.667   0.870  16.149  1.00  0.00    -0.354 N
ATOM      5  H3  UNL     1     -28.568   0.492  16.442  1.00  0.00     0.166 HD
HETATM    6  C14 UNL     1     -26.764   1.398  16.983  1.00  0.00     0.061 A
HETATM    7  C18 UNL     1     -25.671   1.810  16.268  1.00  0.00     0.026 A
ENDROOT
BRANCH   3   8
HETATM    8  C4  UNL     1     -27.921   0.390  13.853  1.00  0.00     0.004 C
BRANCH   8   9
HETATM    9  C5  UNL     1     -29.217   0.755  13.355  1.00  0.00     0.033 C
BRANCH   9  10
HETATM   10  C6  UNL     1     -30.397  -0.011  13.897  1.00  0.00     0.033 C
BRANCH  10  11
HETATM   11  C7  UNL     1     -30.961   0.529  15.117  1.00  0.00     0.007 C
BRANCH  11  12
HETATM   12  C8  UNL     1     -31.468  -0.233  16.072  1.00  0.00     0.072 A
HETATM   13  N1  UNL     1     -32.663  -0.871  16.238  1.00  0.00    -0.298 N
HETATM   14  N2  UNL     1     -32.309  -1.355  17.408  1.00  0.00    -0.298 N
ATOM     15  H1  UNL     1     -33.509  -0.944  15.670  1.00  0.00     0.187 HD
HETATM   16  C9  UNL     1     -31.100  -0.741  17.298  1.00  0.00     0.072 A
ATOM     17  H2  UNL     1     -32.756  -1.947  18.109  1.00  0.00     0.187 HD
BRANCH  16  18
HETATM   18  C10 UNL     1     -30.030  -0.682  18.086  1.00  0.00     0.007 C
BRANCH  18  19
HETATM   19  C11 UNL     1     -29.365  -1.933  18.526  1.00  0.00     0.029 C
BRANCH  19  20
HETATM   20  C12 UNL     1     -29.382  -1.963  20.039  1.00  0.00    -0.001 C
HETATM   21  C13 UNL     1     -29.656  -3.405  20.443  1.00  0.00     0.005 C
ENDBRANCH  19  20
ENDBRANCH  18  19
ENDBRANCH  16  18
ENDBRANCH  11  12
ENDBRANCH  10  11
ENDBRANCH   9  10
ENDBRANCH   8   9
ENDBRANCH   3   8
BRANCH   7  22
HETATM   22  C19 UNL     1     -24.552   2.351  16.668  1.00  0.00     0.160 C
BRANCH  22  23
HETATM   23  O1  UNL     1     -23.340   1.740  16.862  1.00  0.00    -0.290 OA
BRANCH  23  24
HETATM   24  C20 UNL     1     -22.202   2.143  16.141  1.00  0.00     0.259 C
HETATM   25  C21 UNL     1     -21.021   1.289  16.111  1.00  0.00     0.126 C
HETATM   26  O2  UNL     1     -22.244   3.229  15.547  1.00  0.00    -0.265 OA
ENDBRANCH  23  24
ENDBRANCH  22  23
ENDBRANCH   7  22
BRANCH   6  27
HETATM   27  C15 UNL     1     -26.965   1.453  18.306  1.00  0.00     0.115 C
BRANCH  27  28
HETATM   28  N4  UNL     1     -27.814   2.461  18.870  1.00  0.00    -0.397 N
HETATM   29  C16 UNL     1     -28.628   2.127  20.016  1.00  0.00     0.148 C
HETATM   30  C17 UNL     1     -27.863   3.775  18.316  1.00  0.00     0.148 C
ENDBRANCH  27  28
ENDBRANCH   6  27
TORSDOF 13
ENDMDL