MODEL 5
REMARK VINA RESULT: -7.274945477      1.498      2.983
REMARK  10 active torsions:
REMARK  status: ('A' for Active; 'I' for Inactive)
REMARK    1  A    between atoms: C1_2  and  C2_3
REMARK       I    between atoms: C1_2  and  N4_24
REMARK    2  A    between atoms: C2_3  and  N1_4
REMARK    3  A    between atoms: C4_6  and  C5_7
REMARK    4  A    between atoms: C6_8  and  C7_9
REMARK    5  A    between atoms: C7_9  and  C8_10
REMARK    6  A    between atoms: C8_10  and  C9_11
REMARK    7  A    between atoms: C9_11  and  N2_12
REMARK    8  A    between atoms: C15_20  and  C16_21
REMARK    9  A    between atoms: C16_21  and  O2_22
REMARK   10  A    between atoms: N4_24  and  C17_26
ROOT
HETATM    1  N1  UNL     1     -24.808   2.103  14.379  1.00  0.00    -0.333 N
HETATM    2  C3  UNL     1     -24.904   1.827  15.715  1.00  0.00     0.132 A
HETATM    3  C4  UNL     1     -26.216   1.592  16.066  1.00  0.00     0.103 A
HETATM    4  N3  UNL     1     -26.925   1.727  14.933  1.00  0.00    -0.336 N
ATOM      5  H3  UNL     1     -27.935   1.617  14.846  1.00  0.00     0.168 HD
HETATM    6  C15 UNL     1     -26.067   2.037  13.916  1.00  0.00     0.108 A
ENDROOT
BRANCH   1   7
HETATM    7  C2  UNL     1     -23.560   2.395  13.700  1.00  0.00     0.232 C
BRANCH   7   8
HETATM    8  C1  UNL     1     -22.624   1.250  13.736  1.00  0.00     0.241 C
HETATM    9  O1  UNL     1     -23.067   0.134  13.346  1.00  0.00    -0.271 OA
HETATM   10  N4  UNL     1     -21.293   1.324  14.168  1.00  0.00    -0.311 N
ATOM     11  H4  UNL     1     -20.553   1.403  13.470  1.00  0.00     0.170 HD
BRANCH  10  12
HETATM   12  C17 UNL     1     -20.973   1.295  15.410  1.00  0.00     0.123 A
HETATM   13  C18 UNL     1     -21.462   2.233  16.312  1.00  0.00     0.136 A
HETATM   14  N5  UNL     1     -21.117   2.189  17.604  1.00  0.00    -0.371 N
HETATM   15  C19 UNL     1     -20.287   1.236  18.084  1.00  0.00     0.104 A
ATOM     16  H5  UNL     1     -21.490   2.891  18.242  1.00  0.00     0.164 HD
HETATM   17  C20 UNL     1     -19.784   0.287  17.205  1.00  0.00     0.106 A
HETATM   18  N6  UNL     1     -20.146   0.359  15.924  1.00  0.00    -0.350 N
ATOM     19  H6  UNL     1     -19.773  -0.345  15.286  1.00  0.00     0.166 HD
ENDBRANCH  10  12
ENDBRANCH   7   8
ENDBRANCH   1   7
BRANCH   6  20
HETATM   20  C16 UNL     1     -26.481   2.263  12.507  1.00  0.00     0.240 C
BRANCH  20  21
HETATM   21  O2  UNL     1     -27.164   3.491  12.491  1.00  0.00    -0.393 OA
ATOM     22  H2  UNL     1     -27.372   3.668  11.581  1.00  0.00     0.209 HD
ENDBRANCH  20  21
ENDBRANCH   6  20
BRANCH   3  23
HETATM   23  C5  UNL     1     -26.724   1.265  17.387  1.00  0.00    -0.047 C
HETATM   24  C6  UNL     1     -27.166   0.997  18.476  1.00  0.00    -0.100 C
BRANCH  24  25
HETATM   25  C7  UNL     1     -27.732   0.663  19.799  1.00  0.00     0.096 C
BRANCH  25  26
HETATM   26  C8  UNL     1     -29.060   0.027  19.589  1.00  0.00     0.032 C
BRANCH  26  27
HETATM   27  C9  UNL     1     -29.078  -0.988  18.487  1.00  0.00     0.128 C
BRANCH  27  28
HETATM   28  N2  UNL     1     -30.180  -0.740  17.577  1.00  0.00    -0.366 N
HETATM   29  C10 UNL     1     -31.443  -1.116  17.813  1.00  0.00     0.090 A
HETATM   30  C11 UNL     1     -32.429  -0.805  16.870  1.00  0.00     0.017 A
HETATM   31  C12 UNL     1     -32.132  -0.129  15.714  1.00  0.00     0.003 A
HETATM   32  C13 UNL     1     -30.838   0.253  15.476  1.00  0.00     0.017 A
HETATM   33  C14 UNL     1     -29.902  -0.070  16.425  1.00  0.00     0.090 A
ENDBRANCH  27  28
ENDBRANCH  26  27
ENDBRANCH  25  26
ENDBRANCH  24  25
ENDBRANCH   3  23
TORSDOF 10
ENDMDL