MODEL 4
REMARK VINA RESULT: -5.372426133      1.697      2.274
REMARK  8 active torsions:
REMARK  status: ('A' for Active; 'I' for Inactive)
REMARK    1  A    between atoms: C2_2  and  C3_3
REMARK    2  A    between atoms: C3_3  and  C4_4
REMARK    3  A    between atoms: C4_4  and  C5_5
REMARK    4  A    between atoms: C7_11  and  O1_12
REMARK    5  A    between atoms: C8_14  and  C9_15
REMARK    6  A    between atoms: C9_15  and  C10_16
REMARK    7  A    between atoms: C10_16  and  C11_17
REMARK    8  A    between atoms: C11_17  and  N3_18
ROOT
HETATM    1  C5  UNL     1     -30.154   0.500  16.529  1.00  0.00     0.174 C
HETATM    2  N1  UNL     1     -30.908   0.331  15.353  1.00  0.00    -0.373 N
ATOM      3  H1  UNL     1     -31.915   0.193  15.439  1.00  0.00     0.161 HD
HETATM    4  C6  UNL     1     -30.346   0.342  14.072  1.00  0.00     0.178 C
HETATM    5  N2  UNL     1     -28.990   0.085  13.827  1.00  0.00    -0.332 N
ATOM      6  H2  UNL     1     -28.829  -0.891  13.578  1.00  0.00     0.168 HD
HETATM    7  C7  UNL     1     -27.799   0.820  13.836  1.00  0.00     0.164 C
HETATM    8  C8  UNL     1     -27.332   2.115  13.424  1.00  0.00     0.063 C
HETATM    9  N4  UNL     1     -27.176   3.222  14.266  1.00  0.00    -0.325 N
ATOM     10  H4  UNL     1     -26.483   3.863  13.879  1.00  0.00     0.169 HD
HETATM   11  C15 UNL     1     -27.684   3.730  15.493  1.00  0.00     0.249 C
HETATM   12  O2  UNL     1     -27.330   4.820  16.011  1.00  0.00    -0.270 OA
HETATM   13  C16 UNL     1     -28.671   2.899  16.146  1.00  0.00     0.106 C
HETATM   14  C17 UNL     1     -29.659   3.691  15.518  1.00  0.00     0.048 C
HETATM   15  C18 UNL     1     -27.654   2.394  16.972  1.00  0.00     0.048 C
HETATM   16  N5  UNL     1     -29.510   2.923  17.298  1.00  0.00    -0.342 N
ATOM     17  H5  UNL     1     -29.576   3.691  17.967  1.00  0.00     0.163 HD
HETATM   18  C19 UNL     1     -30.262   1.668  17.368  1.00  0.00     0.241 C
HETATM   19  O3  UNL     1     -31.113   1.689  18.331  1.00  0.00    -0.271 OA
ENDROOT
BRANCH   8  20
HETATM   20  C9  UNL     1     -28.016   2.437  12.078  1.00  0.00     0.063 C
BRANCH  20  21
HETATM   21  C10 UNL     1     -29.202   3.314  12.165  1.00  0.00     0.034 C
BRANCH  21  22
HETATM   22  C11 UNL     1     -29.869   3.434  10.840  1.00  0.00     0.236 C
BRANCH  22  23
HETATM   23  N3  UNL     1     -31.187   2.830  10.808  1.00  0.00    -0.079 N
HETATM   24  C12 UNL     1     -31.157   1.421  10.550  1.00  0.00     0.271 C
HETATM   25  C13 UNL     1     -31.949   3.467   9.748  1.00  0.00     0.271 C
HETATM   26  C14 UNL     1     -31.907   3.051  12.050  1.00  0.00     0.271 C
ENDBRANCH  22  23
ENDBRANCH  21  22
ENDBRANCH  20  21
ENDBRANCH   8  20
BRANCH   7  27
HETATM   27  O1  UNL     1     -26.851   0.076  14.387  1.00  0.00    -0.345 OA
ATOM     28  H1  UNL     1     -26.013   0.500  14.241  1.00  0.00     0.219 HD
ENDBRANCH   7  27
BRANCH   1  29
HETATM   29  C4  UNL     1     -30.313  -0.805  17.298  1.00  0.00     0.038 C
BRANCH  29  30
HETATM   30  C3  UNL     1     -29.074  -1.087  18.095  1.00  0.00     0.029 C
BRANCH  30  31
HETATM   31  C2  UNL     1     -29.386  -1.764  19.385  1.00  0.00    -0.037 C
HETATM   32  C1  UNL     1     -29.498  -3.073  19.404  1.00  0.00     0.007 C
ENDBRANCH  30  31
ENDBRANCH  29  30
ENDBRANCH   1  29
TORSDOF 8
ENDMDL