MODEL 4
REMARK VINA RESULT: -4.407927642      2.307      6.035
REMARK  9 active torsions:
REMARK  status: ('A' for Active; 'I' for Inactive)
REMARK    1  A    between atoms: C2_2  and  C3_3
REMARK    2  A    between atoms: C3_3  and  C5_5
REMARK    3  A    between atoms: N1_6  and  S1_7
REMARK    4  A    between atoms: S1_7  and  N2_10
REMARK    5  A    between atoms: N2_10  and  C6_11
REMARK    6  A    between atoms: N2_10  and  C8_13
REMARK    7  A    between atoms: C8_13  and  C9_14
REMARK    8  A    between atoms: C8_13  and  C10_19
REMARK    9  A    between atoms: C9_14  and  N3_15
ROOT
HETATM    1  S1  UNL     1     -28.272   1.254  16.537  1.00  0.00     0.306 S
HETATM    2  O1  UNL     1     -27.626  -0.043  16.138  1.00  0.00    -0.188 OA
HETATM    3  O2  UNL     1     -27.341   1.940  17.460  1.00  0.00    -0.188 OA
ENDROOT
BRANCH   1   4
HETATM    4  N1  UNL     1     -29.825   0.893  17.192  1.00  0.00    -0.256 N
HETATM    5  C5  UNL     1     -30.082   0.280  18.465  1.00  0.00     0.199 C
HETATM    6  S2  UNL     1     -31.711  -0.336  18.640  1.00  0.00     0.043 S
HETATM    7  C16 UNL     1     -32.568  -0.353  17.123  1.00  0.00     0.146 C
HETATM    8  O3  UNL     1     -32.577   0.439  19.822  1.00  0.00    -0.256 OA
HETATM    9  C14 UNL     1     -32.117   0.800  16.317  1.00  0.00    -0.056 C
HETATM   10  C13 UNL     1     -30.931   1.314  16.363  1.00  0.00     0.109 C
HETATM   11  C15 UNL     1     -33.146   1.373  15.389  1.00  0.00     0.046 C
BRANCH   5  12
HETATM   12  C3  UNL     1     -29.131  -0.744  18.952  1.00  0.00     0.017 C
HETATM   13  C4  UNL     1     -29.033  -0.560  20.488  1.00  0.00     0.013 C
BRANCH  12  14
HETATM   14  C2  UNL     1     -29.456  -2.178  18.710  1.00  0.00     0.002 C
HETATM   15  C1  UNL     1     -29.488  -3.092  19.875  1.00  0.00     0.005 C
ENDBRANCH  12  14
ENDBRANCH   5  12
ENDBRANCH   1   4
BRANCH   1  16
HETATM   16  N2  UNL     1     -28.392   2.302  15.162  1.00  0.00    -0.187 NA
BRANCH  16  17
HETATM   17  C6  UNL     1     -27.593   3.478  15.424  1.00  0.00     0.105 C
HETATM   18  C7  UNL     1     -28.485   4.717  15.604  1.00  0.00     0.022 C
ENDBRANCH  16  17
BRANCH  16  19
HETATM   19  C8  UNL     1     -28.014   1.573  13.995  1.00  0.00     0.104 C
BRANCH  19  20
HETATM   20  C9  UNL     1     -26.715   2.004  13.368  1.00  0.00     0.250 C
BRANCH  20  21
HETATM   21  N3  UNL     1     -25.615   1.096  13.628  1.00  0.00    -0.078 N
ATOM     22  H33 UNL     1     -25.660   0.739  14.583  1.00  0.00     0.274 HD
ATOM     23  H32 UNL     1     -25.738   0.224  13.114  1.00  0.00     0.274 HD
ATOM     24  H31 UNL     1     -24.698   1.500  13.438  1.00  0.00     0.274 HD
ENDBRANCH  20  21
ENDBRANCH  19  20
BRANCH  19  25
HETATM   25  C10 UNL     1     -29.097   1.504  12.939  1.00  0.00    -0.002 C
HETATM   26  C11 UNL     1     -30.103   2.619  13.125  1.00  0.00     0.011 C
HETATM   27  C12 UNL     1     -29.864   0.203  13.218  1.00  0.00     0.011 C
ENDBRANCH  19  25
ENDBRANCH  16  19
ENDBRANCH   1  16
TORSDOF 9
ENDMDL