MODEL 1
REMARK VINA RESULT: -7.675991578      0.000      0.000
REMARK  9 active torsions:
REMARK  status: ('A' for Active; 'I' for Inactive)
REMARK    1  A    between atoms: C5_5  and  C6_6
REMARK    2  A    between atoms: C6_6  and  C7_7
REMARK    3  A    between atoms: C10_12  and  C11_13
REMARK    4  A    between atoms: C11_13  and  C12_14
REMARK    5  A    between atoms: C12_14  and  N2_15
REMARK    6  A    between atoms: N2_15  and  C13_17
REMARK    7  A    between atoms: C13_17  and  C14_18
REMARK    8  A    between atoms: C14_18  and  N3_19
REMARK    9  A    between atoms: N3_19  and  C16_21
ROOT
HETATM    1  C7  UNL     1     -31.234  -0.159  15.272  1.00  0.00     0.063 A
HETATM    2  C8  UNL     1     -30.066   0.182  14.610  1.00  0.00     0.075 A
HETATM    3  N1  UNL     1     -28.759   0.419  14.825  1.00  0.00    -0.354 N
ATOM      4  H1  UNL     1     -28.318   0.386  15.744  1.00  0.00     0.166 HD
HETATM    5  C9  UNL     1     -28.103   0.705  13.693  1.00  0.00     0.029 A
HETATM    6  C10 UNL     1     -26.817   0.991  13.571  1.00  0.00     0.004 C
HETATM    7  C18 UNL     1     -29.035   0.650  12.696  1.00  0.00     0.048 A
HETATM    8  C19 UNL     1     -30.266   0.319  13.295  1.00  0.00     0.063 A
HETATM    9  C20 UNL     1     -31.633   0.065  13.014  1.00  0.00     0.258 A
HETATM   10  O1  UNL     1     -32.249   0.082  11.930  1.00  0.00    -0.267 OA
HETATM   11  N4  UNL     1     -32.241  -0.241  14.288  1.00  0.00    -0.321 N
ATOM     12  H4  UNL     1     -33.222  -0.473  14.448  1.00  0.00     0.169 HD
ENDROOT
BRANCH   6  13
HETATM   13  C11 UNL     1     -25.913   1.032  14.721  1.00  0.00     0.048 C
BRANCH  13  14
HETATM   14  C12 UNL     1     -24.691   1.816  14.326  1.00  0.00     0.118 C
BRANCH  14  15
HETATM   15  N2  UNL     1     -23.837   1.005  13.515  1.00  0.00    -0.417 N
ATOM     16  H2  UNL     1     -24.190   0.239  12.943  1.00  0.00     0.153 HD
BRANCH  15  17
HETATM   17  C13 UNL     1     -22.445   1.354  13.567  1.00  0.00     0.158 C
BRANCH  17  18
HETATM   18  C14 UNL     1     -22.164   2.057  14.877  1.00  0.00     0.076 C
BRANCH  18  19
HETATM   19  N3  UNL     1     -21.185   1.380  15.611  1.00  0.00    -0.396 N
HETATM   20  C15 UNL     1     -20.609   0.191  15.144  1.00  0.00     0.148 C
BRANCH  19  21
HETATM   21  C16 UNL     1     -20.752   1.912  16.848  1.00  0.00     0.117 C
HETATM   22  C17 UNL     1     -19.686   1.138  17.563  1.00  0.00     0.026 C
ENDBRANCH  19  21
ENDBRANCH  18  19
ENDBRANCH  17  18
ENDBRANCH  15  17
ENDBRANCH  14  15
ENDBRANCH  13  14
ENDBRANCH   6  13
BRANCH   1  23
HETATM   23  C6  UNL     1     -31.204  -0.368  16.676  1.00  0.00     0.044 C
BRANCH  23  24
HETATM   24  C5  UNL     1     -30.549  -0.804  17.680  1.00  0.00    -0.028 A
HETATM   25  C4  UNL     1     -30.870  -2.138  18.070  1.00  0.00     0.013 A
HETATM   26  C3  UNL     1     -30.304  -2.805  19.109  1.00  0.00     0.012 A
HETATM   27  C2  UNL     1     -29.357  -2.166  19.847  1.00  0.00    -0.039 A
HETATM   28  C1  UNL     1     -28.825  -2.849  20.849  1.00  0.00     0.024 C
HETATM   29  C23 UNL     1     -28.978  -0.899  19.562  1.00  0.00    -0.046 A
HETATM   30  C21 UNL     1     -29.587  -0.251  18.480  1.00  0.00    -0.045 A
HETATM   31  C24 UNL     1     -27.968  -0.180  20.366  1.00  0.00     0.049 C
HETATM   32  C22 UNL     1     -29.070   1.093  18.176  1.00  0.00     0.049 C
ENDBRANCH  23  24
ENDBRANCH   1  23
TORSDOF 9
ENDMDL