MODEL 4
REMARK VINA RESULT: -6.261337416      3.953      5.547
REMARK  9 active torsions:
REMARK  status: ('A' for Active; 'I' for Inactive)
REMARK    1  A    between atoms: C4_9  and  C5_10
REMARK    2  A    between atoms: C5_10  and  C6_11
REMARK    3  A    between atoms: C5_10  and  C13_19
REMARK    4  A    between atoms: C6_11  and  C7_12
REMARK    5  A    between atoms: C13_19  and  N4_20
REMARK    6  A    between atoms: N4_20  and  C16_23
REMARK    7  A    between atoms: C16_23  and  O2_24
REMARK    8  A    between atoms: C16_23  and  C17_26
REMARK    9  A    between atoms: C17_26  and  C18_27
ROOT
HETATM    1  C5  UNL     1     -27.128   1.083  15.087  1.00  0.00     0.017 C
ENDROOT
BRANCH   1   2
HETATM    2  C4  UNL     1     -25.784   1.591  15.455  1.00  0.00     0.070 A
HETATM    3  C2  UNL     1     -25.456   2.254  16.611  1.00  0.00     0.037 A
HETATM    4  C1  UNL     1     -26.323   2.982  17.563  1.00  0.00     0.070 C
HETATM    5  N1  UNL     1     -24.121   2.322  16.691  1.00  0.00    -0.310 N
HETATM    6  C3  UNL     1     -23.588   1.723  15.605  1.00  0.00     0.325 A
ATOM      7  H1  UNL     1     -23.594   2.756  17.450  1.00  0.00     0.170 HD
HETATM    8  O1  UNL     1     -22.363   1.593  15.339  1.00  0.00    -0.247 OA
HETATM    9  N2  UNL     1     -24.589   1.264  14.817  1.00  0.00    -0.306 N
ATOM     10  H2  UNL     1     -24.488   0.772  13.929  1.00  0.00     0.171 HD
ENDBRANCH   1   2
BRANCH   1  11
HETATM   11  C6  UNL     1     -27.766   0.311  16.124  1.00  0.00     0.026 C
BRANCH  11  12
HETATM   12  C7  UNL     1     -29.195   0.279  16.405  1.00  0.00    -0.033 A
HETATM   13  C8  UNL     1     -29.694   0.449  17.719  1.00  0.00     0.028 A
HETATM   14  C9  UNL     1     -31.029   0.355  18.016  1.00  0.00     0.090 A
HETATM   15  N3  UNL     1     -31.935   0.095  17.085  1.00  0.00    -0.371 N
HETATM   16  C10 UNL     1     -33.349  -0.053  17.388  1.00  0.00     0.154 C
HETATM   17  C11 UNL     1     -31.516  -0.075  15.790  1.00  0.00     0.090 A
HETATM   18  C12 UNL     1     -30.181   0.019  15.480  1.00  0.00     0.028 A
ENDBRANCH  11  12
ENDBRANCH   1  11
BRANCH   1  19
HETATM   19  C13 UNL     1     -27.318   0.960  13.659  1.00  0.00     0.218 C
BRANCH  19  20
HETATM   20  N4  UNL     1     -27.918   2.011  12.894  1.00  0.00    -0.028 N
HETATM   21  C14 UNL     1     -29.101   1.388  12.246  1.00  0.00     0.281 C
HETATM   22  C15 UNL     1     -28.330   3.186  13.637  1.00  0.00     0.281 C
BRANCH  20  23
HETATM   23  C16 UNL     1     -27.127   2.509  11.827  1.00  0.00     0.333 C
BRANCH  23  24
HETATM   24  O2  UNL     1     -25.732   2.536  12.147  1.00  0.00    -0.369 OA
ATOM     25  H2  UNL     1     -25.393   3.421  12.220  1.00  0.00     0.212 HD
ENDBRANCH  23  24
BRANCH  23  26
HETATM   26  C17 UNL     1     -27.476   3.728  11.071  1.00  0.00     0.120 C
BRANCH  26  27
HETATM   27  C18 UNL     1     -26.460   3.750   9.930  1.00  0.00     0.029 A
HETATM   28  C19 UNL     1     -26.528   3.008   8.785  1.00  0.00     0.114 A
HETATM   29  N5  UNL     1     -25.460   3.274   8.014  1.00  0.00    -0.360 N
HETATM   30  C20 UNL     1     -24.736   4.180   8.691  1.00  0.00     0.180 A
ATOM     31  H5  UNL     1     -25.243   2.870   7.102  1.00  0.00     0.166 HD
HETATM   32  N6  UNL     1     -25.347   4.485   9.886  1.00  0.00    -0.354 N
ATOM     33  H6  UNL     1     -25.016   5.140  10.593  1.00  0.00     0.166 HD
ENDBRANCH  26  27
ENDBRANCH  23  26
ENDBRANCH  20  23
ENDBRANCH  19  20
ENDBRANCH   1  19
TORSDOF 9
ENDMDL