MODEL 5
REMARK VINA RESULT: -5.163579280      2.546      3.938
REMARK  10 active torsions:
REMARK  status: ('A' for Active; 'I' for Inactive)
REMARK    1  A    between atoms: C2_2  and  C3_3
REMARK    2  A    between atoms: N3_12  and  C11_14
REMARK    3  A    between atoms: C11_14  and  C12_15
REMARK    4  A    between atoms: C12_15  and  N4_16
REMARK    5  A    between atoms: C13_18  and  O1_19
REMARK    6  A    between atoms: C13_18  and  C14_21
REMARK    7  A    between atoms: C14_21  and  N5_22
REMARK    8  A    between atoms: C14_21  and  C15_26
REMARK    9  A    between atoms: C15_26  and  C16_27
REMARK   10  A    between atoms: C16_27  and  N6_28
ROOT
HETATM    1  C11 UNL     1     -26.763   1.030  17.803  1.00  0.00     0.294 C
ENDROOT
BRANCH   1   2
HETATM    2  N3  UNL     1     -28.106   1.382  17.991  1.00  0.00     0.122 N
HETATM    3  N2  UNL     1     -28.846   0.702  18.959  1.00  0.00     0.128 N
HETATM    4  C6  UNL     1     -29.939   0.432  18.154  1.00  0.00     0.409 A
HETATM    5  C8  UNL     1     -29.689   1.456  19.831  1.00  0.00     0.280 A
HETATM    6  C9  UNL     1     -28.178  -0.319  19.700  1.00  0.00     0.313 C
HETATM    7  N1  UNL     1     -30.345  -0.793  17.643  1.00  0.00     0.130 N
HETATM    8  C7  UNL     1     -30.910   1.237  18.959  1.00  0.00     0.110 A
HETATM    9  C20 UNL     1     -29.152   1.221  17.099  1.00  0.00     0.489 A
HETATM   10  C4  UNL     1     -31.211  -0.559  16.470  1.00  0.00     0.308 C
HETATM   11  C5  UNL     1     -31.042  -1.683  18.497  1.00  0.00     0.313 C
HETATM   12  C3  UNL     1     -30.535   0.367  15.485  1.00  0.00     0.216 C
HETATM   13  N7  UNL     1     -29.103   0.525  15.860  1.00  0.00    -0.033 N
ATOM     14  H72 UNL     1     -28.577  -0.348  15.888  1.00  0.00     0.280 HD
ATOM     15  H71 UNL     1     -28.529   0.975  15.148  1.00  0.00     0.280 HD
HETATM   16  C10 UNL     1     -28.065   2.807  18.440  1.00  0.00     0.312 C
BRANCH  12  17
HETATM   17  C2  UNL     1     -30.681  -0.131  14.087  1.00  0.00     0.030 C
HETATM   18  C1  UNL     1     -29.354  -0.133  13.349  1.00  0.00     0.007 C
ENDBRANCH  12  17
ENDBRANCH   1   2
BRANCH   1  19
HETATM   19  C12 UNL     1     -25.803   1.817  17.037  1.00  0.00     0.151 C
BRANCH  19  20
HETATM   20  N4  UNL     1     -25.833   1.644  15.625  1.00  0.00    -0.371 N
HETATM   21  C13 UNL     1     -26.238   2.277  14.656  1.00  0.00     0.142 C
ATOM     22  H4  UNL     1     -25.405   0.762  15.346  1.00  0.00     0.161 HD
BRANCH  21  23
HETATM   23  O1  UNL     1     -26.860   3.501  14.747  1.00  0.00    -0.348 OA
ATOM     24  H1  UNL     1     -27.725   3.680  14.399  1.00  0.00     0.219 HD
ENDBRANCH  21  23
BRANCH  21  25
HETATM   25  C14 UNL     1     -26.065   1.718  13.276  1.00  0.00     0.258 C
BRANCH  25  26
HETATM   26  N5  UNL     1     -24.673   1.870  12.925  1.00  0.00    -0.068 N
ATOM     27  H53 UNL     1     -24.257   2.722  13.302  1.00  0.00     0.275 HD
ATOM     28  H52 UNL     1     -24.066   1.204  13.403  1.00  0.00     0.275 HD
ATOM     29  H51 UNL     1     -24.610   1.810  11.909  1.00  0.00     0.275 HD
ENDBRANCH  25  26
BRANCH  25  30
HETATM   30  C15 UNL     1     -26.968   2.469  12.308  1.00  0.00     0.069 C
BRANCH  30  31
HETATM   31  C16 UNL     1     -26.352   2.846  11.026  1.00  0.00     0.238 C
BRANCH  31  32
HETATM   32  N6  UNL     1     -27.184   3.188   9.933  1.00  0.00    -0.079 N
HETATM   33  C17 UNL     1     -27.275   4.651   9.767  1.00  0.00     0.271 C
HETATM   34  C18 UNL     1     -26.506   2.745   8.701  1.00  0.00     0.271 C
HETATM   35  C19 UNL     1     -28.495   2.652   9.917  1.00  0.00     0.271 C
ENDBRANCH  31  32
ENDBRANCH  30  31
ENDBRANCH  25  30
ENDBRANCH  21  25
ENDBRANCH  19  20
ENDBRANCH   1  19
TORSDOF 10
ENDMDL