MODEL 5
REMARK VINA RESULT: -6.392085646      0.875      1.116
REMARK  7 active torsions:
REMARK  status: ('A' for Active; 'I' for Inactive)
REMARK    1  A    between atoms: N1_4  and  C4_5
REMARK    2  A    between atoms: C4_5  and  C5_6
REMARK    3  A    between atoms: C6_7  and  C7_8
REMARK    4  A    between atoms: C7_8  and  C8_9
REMARK    5  A    between atoms: C8_9  and  C9_10
REMARK    6  A    between atoms: C9_10  and  N2_11
REMARK    7  A    between atoms: C11_16  and  N5_17
ROOT
HETATM    1  C1  UNL     1     -26.376   4.231  19.759  1.00  0.00     0.041 C
HETATM    2  C2  UNL     1     -27.247   4.157  18.524  1.00  0.00     0.146 C
HETATM    3  C3  UNL     1     -26.598   3.325  17.458  1.00  0.00     0.307 C
HETATM    4  N1  UNL     1     -27.180   2.018  17.284  1.00  0.00     0.130 N
HETATM    5  C11 UNL     1     -28.587   1.971  17.182  1.00  0.00     0.472 C
HETATM    6  C20 UNL     1     -29.218   3.270  17.717  1.00  0.00     0.181 C
HETATM    7  C21 UNL     1     -29.377   4.295  16.624  1.00  0.00     0.043 C
HETATM    8  O1  UNL     1     -28.516   3.751  18.809  1.00  0.00    -0.376 OA
ENDROOT
BRANCH   4   9
HETATM    9  C4  UNL     1     -26.446   1.346  16.253  1.00  0.00     0.302 C
BRANCH   9  10
HETATM   10  C5  UNL     1     -25.030   1.686  16.102  1.00  0.00    -0.001 C
HETATM   11  C6  UNL     1     -24.242   1.578  15.084  1.00  0.00    -0.029 C
BRANCH  11  12
HETATM   12  C7  UNL     1     -22.826   1.966  15.087  1.00  0.00     0.028 C
BRANCH  12  13
HETATM   13  C8  UNL     1     -22.083   1.158  14.056  1.00  0.00     0.023 C
BRANCH  13  14
HETATM   14  C9  UNL     1     -20.852   0.590  14.749  1.00  0.00     0.122 C
BRANCH  14  15
HETATM   15  N2  UNL     1     -20.717   1.307  15.990  1.00  0.00    -0.367 N
HETATM   16  C10 UNL     1     -19.853   0.921  16.853  1.00  0.00     0.196 C
HETATM   17  N3  UNL     1     -19.044  -0.203  16.572  1.00  0.00    -0.067 NA
HETATM   18  N4  UNL     1     -19.745   1.643  18.063  1.00  0.00    -0.067 NA
ATOM     19  H2  UNL     1     -21.306   2.117  16.181  1.00  0.00     0.161 HD
ENDBRANCH  14  15
ENDBRANCH  13  14
ENDBRANCH  12  13
ENDBRANCH  11  12
ENDBRANCH   9  10
ENDBRANCH   4   9
BRANCH   5  20
HETATM   20  N5  UNL     1     -29.290   0.900  17.746  1.00  0.00     0.035 N
HETATM   21  C12 UNL     1     -30.411   1.153  18.573  1.00  0.00     0.263 C
HETATM   22  C13 UNL     1     -31.010  -0.241  18.806  1.00  0.00     0.038 C
HETATM   23  C14 UNL     1     -30.163  -1.119  17.945  1.00  0.00     0.039 C
HETATM   24  C15 UNL     1     -28.800  -1.202  18.573  1.00  0.00     0.089 C
HETATM   25  C18 UNL     1     -29.779  -0.111  16.841  1.00  0.00     0.214 C
HETATM   26  C16 UNL     1     -28.728  -1.879  19.872  1.00  0.00     0.029 C
HETATM   27  N6  UNL     1     -28.369   0.160  18.537  1.00  0.00    -0.140 NA
HETATM   28  C17 UNL     1     -28.140   0.703  19.827  1.00  0.00     0.144 C
HETATM   29  C19 UNL     1     -30.969   0.293  16.040  1.00  0.00     0.043 C
ENDBRANCH   5  20
TORSDOF 7
ENDMDL