MODEL 5
REMARK VINA RESULT: -5.866248426      6.083      8.310
REMARK  8 active torsions:
REMARK  status: ('A' for Active; 'I' for Inactive)
REMARK    1  A    between atoms: C2_2  and  N1_3
REMARK    2  A    between atoms: N2_12  and  C11_13
REMARK    3  A    between atoms: C11_13  and  C12_14
REMARK    4  A    between atoms: C12_14  and  O1_15
REMARK    5  A    between atoms: C12_14  and  C13_17
REMARK    6  A    between atoms: C13_17  and  C14_18
REMARK    7  A    between atoms: C14_18  and  C15_19
REMARK    8  A    between atoms: C15_19  and  C16_20
ROOT
HETATM    1  C12 UNL     1     -27.158   0.922  13.580  1.00  0.00     0.136 C
ENDROOT
BRANCH   1   2
HETATM    2  C11 UNL     1     -25.817   1.512  13.275  1.00  0.00     0.160 C
BRANCH   2   3
HETATM    3  N2  UNL     1     -25.015   1.757  14.459  1.00  0.00    -0.353 N
HETATM    4  C6  UNL     1     -23.682   1.603  14.514  1.00  0.00     0.061 A
HETATM    5  C5  UNL     1     -23.036   1.234  13.365  1.00  0.00     0.033 A
HETATM    6  C7  UNL     1     -22.934   1.808  15.662  1.00  0.00     0.061 A
HETATM    7  C4  UNL     1     -21.649   1.085  13.422  1.00  0.00     0.020 A
HETATM    8  C3  UNL     1     -20.965   1.298  14.576  1.00  0.00     0.091 A
HETATM    9  N1  UNL     1     -21.597   1.666  15.727  1.00  0.00    -0.355 N
HETATM   10  C8  UNL     1     -23.583   2.189  16.800  1.00  0.00     0.033 A
HETATM   11  C9  UNL     1     -24.950   2.359  16.780  1.00  0.00     0.020 A
HETATM   12  C10 UNL     1     -25.638   2.140  15.612  1.00  0.00     0.091 A
BRANCH   9  13
HETATM   13  C2  UNL     1     -20.815   1.868  16.932  1.00  0.00     0.124 C
HETATM   14  C1  UNL     1     -19.679   0.852  17.041  1.00  0.00     0.027 C
ENDBRANCH   9  13
ENDBRANCH   2   3
ENDBRANCH   1   2
BRANCH   1  15
HETATM   15  O1  UNL     1     -27.232  -0.454  13.485  1.00  0.00    -0.394 OA
ATOM     16  H1  UNL     1     -27.702  -0.884  14.190  1.00  0.00     0.210 HD
ENDBRANCH   1  15
BRANCH   1  17
HETATM   17  C13 UNL     1     -28.198   1.592  12.712  1.00  0.00     0.036 C
BRANCH  17  18
HETATM   18  C14 UNL     1     -29.413   0.777  12.472  1.00  0.00     0.039 C
BRANCH  18  19
HETATM   19  C15 UNL     1     -30.300   1.335  11.380  1.00  0.00     0.065 C
HETATM   20  C18 UNL     1     -31.289   2.259  12.033  1.00  0.00     0.056 C
HETATM   21  C19 UNL     1     -32.610   1.619  12.325  1.00  0.00     0.125 C
HETATM   22  N4  UNL     1     -33.175   0.934  11.197  1.00  0.00    -0.367 N
HETATM   23  C20 UNL     1     -32.300   0.102  10.429  1.00  0.00     0.168 C
ATOM     24  H4  UNL     1     -34.160   1.036  10.952  1.00  0.00     0.161 HD
HETATM   25  S1  UNL     1     -32.858  -1.059   9.425  1.00  0.00    -0.041 SA
HETATM   26  N5  UNL     1     -30.903   0.325  10.573  1.00  0.00    -0.353 N
ATOM     27  H5  UNL     1     -30.277  -0.292  10.053  1.00  0.00     0.163 HD
BRANCH  19  28
HETATM   28  C16 UNL     1     -29.429   2.164  10.501  1.00  0.00     0.086 C
HETATM   29  N3  UNL     1     -29.340   1.869   9.267  1.00  0.00    -0.404 N
HETATM   30  C17 UNL     1     -28.532   2.605   8.347  1.00  0.00     0.145 C
ATOM     31  H3  UNL     1     -29.870   1.071   8.918  1.00  0.00     0.158 HD
ENDBRANCH  19  28
ENDBRANCH  18  19
ENDBRANCH  17  18
ENDBRANCH   1  17
TORSDOF 8
ENDMDL