MODEL 1
REMARK VINA RESULT: -6.784678448      0.000      0.000
REMARK  9 active torsions:
REMARK  status: ('A' for Active; 'I' for Inactive)
REMARK    1  A    between atoms: C3_3  and  C4_4
REMARK    2  A    between atoms: C4_4  and  N1_5
REMARK    3  A    between atoms: C6_10  and  C7_11
REMARK    4  A    between atoms: C7_11  and  C8_12
REMARK    5  A    between atoms: C8_12  and  C9_13
REMARK    6  A    between atoms: C9_13  and  N3_14
REMARK    7  A    between atoms: C16_21  and  C17_22
REMARK    8  A    between atoms: C17_22  and  C18_23
REMARK    9  A    between atoms: C20_27  and  N5_28
ROOT
HETATM    1  C1  UNL     1     -28.847  -2.874  19.303  1.00  0.00     0.112 C
HETATM    2  C2  UNL     1     -29.045  -1.556  18.671  1.00  0.00    -0.109 C
HETATM    3  C3  UNL     1     -29.192  -0.476  18.164  1.00  0.00    -0.087 C
ENDROOT
BRANCH   3   4
HETATM    4  C4  UNL     1     -29.352   0.852  17.527  1.00  0.00     0.227 C
BRANCH   4   5
HETATM    5  N1  UNL     1     -28.333   0.942  16.510  1.00  0.00    -0.292 N
HETATM    6  C5  UNL     1     -27.015   1.389  16.808  1.00  0.00     0.327 A
HETATM    7  O1  UNL     1     -26.692   1.726  17.998  1.00  0.00    -0.246 OA
HETATM    8  N2  UNL     1     -26.077   1.449  15.762  1.00  0.00    -0.312 N
HETATM    9  C6  UNL     1     -26.310   1.131  14.538  1.00  0.00     0.015 A
ATOM     10  H2  UNL     1     -25.137   1.772  15.993  1.00  0.00     0.170 HD
HETATM   11  C15 UNL     1     -27.660   0.668  14.209  1.00  0.00     0.050 A
HETATM   12  C16 UNL     1     -28.588   0.589  15.149  1.00  0.00     0.025 A
BRANCH   9  13
HETATM   13  C7  UNL     1     -25.255   1.226  13.493  1.00  0.00     0.059 C
BRANCH  13  14
HETATM   14  C8  UNL     1     -24.034   1.894  14.129  1.00  0.00     0.026 C
BRANCH  14  15
HETATM   15  C9  UNL     1     -22.769   1.146  13.758  1.00  0.00     0.128 C
BRANCH  15  16
HETATM   16  N3  UNL     1     -21.825   1.213  14.850  1.00  0.00    -0.366 N
HETATM   17  C10 UNL     1     -22.009   2.172  15.796  1.00  0.00     0.090 A
HETATM   18  C11 UNL     1     -21.132   2.270  16.855  1.00  0.00     0.017 A
HETATM   19  C12 UNL     1     -20.049   1.407  16.990  1.00  0.00     0.003 A
HETATM   20  C13 UNL     1     -19.902   0.451  16.007  1.00  0.00     0.017 A
HETATM   21  C14 UNL     1     -20.783   0.360  14.954  1.00  0.00     0.090 A
ENDBRANCH  15  16
ENDBRANCH  14  15
ENDBRANCH  13  14
ENDBRANCH   9  13
BRANCH  12  22
HETATM   22  C17 UNL     1     -29.959   0.122  14.828  1.00  0.00     0.116 C
BRANCH  22  23
HETATM   23  C18 UNL     1     -30.461   0.660  13.557  1.00  0.00     0.048 A
HETATM   24  C19 UNL     1     -30.876   1.917  13.213  1.00  0.00     0.132 A
HETATM   25  N4  UNL     1     -31.262   1.953  11.909  1.00  0.00    -0.200 N
HETATM   26  C20 UNL     1     -31.080   0.705  11.455  1.00  0.00     0.677 A
ATOM     27  H4  UNL     1     -31.615   2.756  11.389  1.00  0.00     0.183 HD
HETATM   28  N6  UNL     1     -30.599  -0.083  12.433  1.00  0.00    -0.194 N
ATOM     29  H6  UNL     1     -30.377  -1.074  12.343  1.00  0.00     0.184 HD
BRANCH  26  30
HETATM   30  N5  UNL     1     -31.342   0.337  10.226  1.00  0.00    -0.230 N
HETATM   31  C21 UNL     1     -32.450  -0.500   9.889  1.00  0.00     0.165 C
ATOM     32  H5  UNL     1     -30.729   0.661   9.478  1.00  0.00     0.177 HD
ENDBRANCH  26  30
ENDBRANCH  22  23
ENDBRANCH  12  22
ENDBRANCH   4   5
ENDBRANCH   3   4
TORSDOF 9
ENDMDL