MODEL 3
REMARK VINA RESULT: -7.303637369      2.537      3.917
REMARK  8 active torsions:
REMARK  status: ('A' for Active; 'I' for Inactive)
REMARK    1  A    between atoms: C8_13  and  C9_14
REMARK    2  A    between atoms: C9_14  and  C10_15
REMARK    3  A    between atoms: C10_15  and  C11_16
REMARK    4  A    between atoms: N4_19  and  C12_20
REMARK    5  A    between atoms: C12_20  and  C13_21
REMARK    6  A    between atoms: C13_21  and  C14_22
REMARK    7  A    between atoms: C14_22  and  C15_23
REMARK    8  A    between atoms: C15_23  and  N5_24
ROOT
HETATM    1  N1  UNL     1     -22.398   2.010  13.053  1.00  0.00    -0.393 N
ATOM      2  H11 UNL     1     -21.451   2.326  13.261  1.00  0.00     0.156 HD
ATOM      3  H12 UNL     1     -22.573   1.832  12.064  1.00  0.00     0.156 HD
HETATM    4  C1  UNL     1     -23.285   1.916  13.962  1.00  0.00     0.077 A
HETATM    5  S1  UNL     1     -24.888   1.381  13.610  1.00  0.00    -0.054 SA
HETATM    6  C2  UNL     1     -25.848   1.260  15.008  1.00  0.00     0.083 A
HETATM    7  C3  UNL     1     -27.162   0.842  14.885  1.00  0.00     0.053 A
HETATM    8  C4  UNL     1     -27.944   0.746  16.041  1.00  0.00     0.010 A
HETATM    9  C5  UNL     1     -27.372   1.068  17.227  1.00  0.00     0.062 A
HETATM   10  C6  UNL     1     -26.035   1.485  17.288  1.00  0.00     0.127 A
HETATM   11  N2  UNL     1     -25.257   1.584  16.164  1.00  0.00    -0.324 N
HETATM   12  C7  UNL     1     -23.993   1.987  16.280  1.00  0.00     0.107 A
HETATM   13  C8  UNL     1     -23.053   2.151  15.271  1.00  0.00    -0.008 A
HETATM   14  N4  UNL     1     -28.604   0.770  17.866  1.00  0.00    -0.354 N
HETATM   15  C19 UNL     1     -29.143   0.470  16.771  1.00  0.00     0.105 A
ENDROOT
BRANCH  14  16
HETATM   16  C12 UNL     1     -28.928   0.857  19.280  1.00  0.00     0.129 C
BRANCH  16  17
HETATM   17  C13 UNL     1     -28.298  -0.150  20.146  1.00  0.00     0.022 C
BRANCH  17  18
HETATM   18  C14 UNL     1     -28.112   0.192  21.582  1.00  0.00     0.023 C
BRANCH  18  19
HETATM   19  C15 UNL     1     -26.736   0.738  21.883  1.00  0.00     0.148 C
BRANCH  19  20
HETATM   20  N5  UNL     1     -26.717   2.191  21.839  1.00  0.00    -0.304 N
HETATM   21  C16 UNL     1     -27.039   2.961  22.889  1.00  0.00     0.111 A
HETATM   22  C17 UNL     1     -26.905   4.262  22.508  1.00  0.00     0.037 A
HETATM   23  C18 UNL     1     -26.493   4.229  21.197  1.00  0.00     0.108 A
HETATM   24  N6  UNL     1     -26.391   2.964  20.831  1.00  0.00    -0.310 N
ATOM     25  H6  UNL     1     -26.104   2.639  19.908  1.00  0.00     0.186 HD
ENDBRANCH  19  20
ENDBRANCH  18  19
ENDBRANCH  17  18
ENDBRANCH  16  17
ENDBRANCH  14  16
BRANCH  13  26
HETATM   26  C9  UNL     1     -21.743   2.698  15.744  1.00  0.00     0.051 C
BRANCH  26  27
HETATM   27  C10 UNL     1     -20.986   1.696  16.520  1.00  0.00     0.104 C
BRANCH  27  28
HETATM   28  C11 UNL     1     -19.972   0.908  15.877  1.00  0.00     0.231 C
HETATM   29  N3  UNL     1     -19.077   0.094  16.689  1.00  0.00    -0.062 NA
HETATM   30  O1  UNL     1     -19.802   0.863  14.604  1.00  0.00    -0.277 OA
ENDBRANCH  27  28
ENDBRANCH  26  27
ENDBRANCH  13  26
TORSDOF 8
ENDMDL