MODEL 2
REMARK VINA RESULT: -8.100101370      0.875      1.167
REMARK  10 active torsions:
REMARK  status: ('A' for Active; 'I' for Inactive)
REMARK    1  A    between atoms: C3_3  and  N1_4
REMARK    2  A    between atoms: N1_4  and  C4_5
REMARK    3  A    between atoms: N1_4  and  N7_30
REMARK    4  A    between atoms: C4_5  and  C5_6
REMARK    5  A    between atoms: C6_7  and  C7_8
REMARK    6  A    between atoms: C10_11  and  C11_12
REMARK    7  A    between atoms: N2_13  and  N3_15
REMARK    8  A    between atoms: C14_26  and  C15_27
REMARK    9  A    between atoms: C15_27  and  O1_28
REMARK   10  A    between atoms: N7_30  and  C16_31
ROOT
HETATM    1  C1  UNL     1     -27.123   3.116  21.621  1.00  0.00     0.014 C
HETATM    2  C2  UNL     1     -27.065   2.014  21.192  1.00  0.00    -0.096 C
HETATM    3  C3  UNL     1     -27.014   0.641  20.619  1.00  0.00     0.248 C
ENDROOT
BRANCH   3   4
HETATM    4  N1  UNL     1     -27.922   0.521  19.538  1.00  0.00    -0.201 N
BRANCH   4   5
HETATM    5  C4  UNL     1     -28.000   1.557  18.640  1.00  0.00     0.182 C
BRANCH   5   6
HETATM    6  C5  UNL     1     -27.113   1.505  17.522  1.00  0.00    -0.054 C
HETATM    7  C6  UNL     1     -26.280   1.511  16.641  1.00  0.00    -0.060 C
BRANCH   7   8
HETATM    8  C7  UNL     1     -25.139   1.693  15.720  1.00  0.00     0.027 A
HETATM    9  C8  UNL     1     -23.911   1.836  16.178  1.00  0.00     0.037 A
HETATM   10  C9  UNL     1     -22.858   1.748  15.246  1.00  0.00     0.023 A
HETATM   11  C10 UNL     1     -21.525   1.747  15.512  1.00  0.00     0.077 A
HETATM   12  C12 UNL     1     -23.110   1.521  13.917  1.00  0.00     0.061 A
HETATM   13  N5  UNL     1     -20.913   1.482  14.300  1.00  0.00    -0.298 N
HETATM   14  N6  UNL     1     -21.860   1.355  13.351  1.00  0.00    -0.299 N
ATOM     15  H5  UNL     1     -19.908   1.397  14.150  1.00  0.00     0.187 HD
ATOM     16  H6  UNL     1     -21.681   1.166  12.365  1.00  0.00     0.187 HD
HETATM   17  C13 UNL     1     -24.385   1.375  13.413  1.00  0.00     0.042 A
HETATM   18  C14 UNL     1     -25.378   1.467  14.354  1.00  0.00    -0.014 A
BRANCH  11  19
HETATM   19  C11 UNL     1     -20.784   2.341  16.642  1.00  0.00     0.140 C
HETATM   20  N2  UNL     1     -19.903   2.089  17.364  1.00  0.00    -0.296 N
ATOM     21  H2  UNL     1     -19.786   2.882  17.993  1.00  0.00     0.187 HD
BRANCH  20  22
HETATM   22  N3  UNL     1     -18.992   1.179  17.691  1.00  0.00    -0.250 N
HETATM   23  N4  UNL     1     -18.486   0.272  16.972  1.00  0.00    -0.331 N
ATOM     24  H42 UNL     1     -18.834   0.250  16.014  1.00  0.00     0.178 HD
ATOM     25  H41 UNL     1     -17.787  -0.426  17.223  1.00  0.00     0.178 HD
ATOM     26  H3  UNL     1     -18.656   1.217  18.653  1.00  0.00     0.207 HD
ENDBRANCH  20  22
ENDBRANCH  11  19
BRANCH  18  27
HETATM   27  C15 UNL     1     -26.825   1.340  14.041  1.00  0.00     0.204 C
BRANCH  27  28
HETATM   28  O1  UNL     1     -27.078  -0.009  13.570  1.00  0.00    -0.396 OA
ATOM     29  H1  UNL     1     -26.967  -0.609  14.298  1.00  0.00     0.209 HD
ENDBRANCH  27  28
ENDBRANCH  18  27
ENDBRANCH   7   8
ENDBRANCH   5   6
ENDBRANCH   4   5
BRANCH   4  30
HETATM   30  N7  UNL     1     -29.121  -0.169  19.725  1.00  0.00     0.015 N
HETATM   31  C18 UNL     1     -29.282  -1.004  18.509  1.00  0.00     0.265 C
HETATM   32  C19 UNL     1     -29.563  -2.406  18.944  1.00  0.00     0.032 C
HETATM   33  C20 UNL     1     -28.753  -2.460  20.234  1.00  0.00     0.032 C
HETATM   34  C21 UNL     1     -29.156  -1.088  20.807  1.00  0.00     0.265 C
BRANCH  30  35
HETATM   35  C16 UNL     1     -30.263   0.722  19.748  1.00  0.00     0.261 C
HETATM   36  C17 UNL     1     -31.323   0.356  20.773  1.00  0.00     0.037 C
ENDBRANCH  30  35
ENDBRANCH   4  30
ENDBRANCH   3   4
TORSDOF 10
ENDMDL