MODEL 2
REMARK VINA RESULT: -7.274015774      1.179      3.535
REMARK  10 active torsions:
REMARK  status: ('A' for Active; 'I' for Inactive)
REMARK    1  A    between atoms: C3_3  and  N1_4
REMARK    2  A    between atoms: N1_4  and  C4_6
REMARK    3  A    between atoms: C5_9  and  N3_10
REMARK    4  A    between atoms: N3_10  and  C6_12
REMARK    5  A    between atoms: C8_16  and  N5_17
REMARK    6  A    between atoms: N5_17  and  C9_19
REMARK    7  A    between atoms: C9_19  and  C10_20
REMARK    8  A    between atoms: C10_20  and  C11_21
REMARK    9  A    between atoms: N6_24  and  C14_25
REMARK   10  A    between atoms: C14_25  and  C15_26
ROOT
HETATM    1  C1  UNL     1     -19.771   1.260  17.540  1.00  0.00     0.014 C
HETATM    2  C2  UNL     1     -20.168   0.987  16.438  1.00  0.00    -0.097 C
HETATM    3  C3  UNL     1     -20.666   0.639  15.105  1.00  0.00     0.231 C
ENDROOT
BRANCH   3   4
HETATM    4  N1  UNL     1     -21.499   1.656  14.533  1.00  0.00    -0.215 N
ATOM      5  H1  UNL     1     -21.052   2.329  13.910  1.00  0.00     0.178 HD
BRANCH   4   6
HETATM    6  C4  UNL     1     -22.753   1.792  14.735  1.00  0.00     0.708 A
HETATM    7  N2  UNL     1     -23.278   2.049  15.945  1.00  0.00    -0.021 N
HETATM    8  C5  UNL     1     -24.608   2.173  16.050  1.00  0.00     0.707 A
ATOM      9  H2  UNL     1     -22.679   2.147  16.764  1.00  0.00     0.203 HD
HETATM   10  N4  UNL     1     -25.422   2.048  14.987  1.00  0.00    -0.022 N
HETATM   11  C8  UNL     1     -24.911   1.788  13.758  1.00  0.00     0.707 A
ATOM     12  H4  UNL     1     -26.430   2.150  15.105  1.00  0.00     0.203 HD
HETATM   13  N7  UNL     1     -23.573   1.669  13.677  1.00  0.00    -0.021 N
ATOM     14  H7  UNL     1     -23.160   1.474  12.765  1.00  0.00     0.203 HD
BRANCH   8  15
HETATM   15  N3  UNL     1     -25.089   2.418  17.209  1.00  0.00    -0.225 N
ATOM     16  H3  UNL     1     -24.681   1.936  18.009  1.00  0.00     0.177 HD
BRANCH  15  17
HETATM   17  C6  UNL     1     -26.179   3.338  17.454  1.00  0.00     0.133 C
HETATM   18  C7  UNL     1     -27.178   2.772  18.422  1.00  0.00     0.027 C
ENDBRANCH  15  17
ENDBRANCH   8  15
BRANCH  11  19
HETATM   19  N5  UNL     1     -25.670   1.664  12.719  1.00  0.00    -0.225 N
ATOM     20  H5  UNL     1     -25.484   0.899  12.071  1.00  0.00     0.177 HD
BRANCH  19  21
HETATM   21  C9  UNL     1     -26.762   2.551  12.431  1.00  0.00     0.142 C
BRANCH  21  22
HETATM   22  C10 UNL     1     -28.055   1.819  12.181  1.00  0.00     0.058 C
BRANCH  22  23
HETATM   23  C11 UNL     1     -28.776   1.468  13.404  1.00  0.00    -0.054 A
HETATM   24  C12 UNL     1     -29.400   0.250  13.549  1.00  0.00     0.024 A
HETATM   25  C13 UNL     1     -30.084  -0.060  14.733  1.00  0.00     0.091 A
HETATM   26  N6  UNL     1     -30.138   0.822  15.731  1.00  0.00    -0.362 N
HETATM   27  C21 UNL     1     -29.525   2.007  15.575  1.00  0.00     0.091 A
HETATM   28  C22 UNL     1     -28.836   2.373  14.438  1.00  0.00     0.024 A
BRANCH  26  29
HETATM   29  C14 UNL     1     -30.824   0.576  16.981  1.00  0.00     0.166 C
BRANCH  29  30
HETATM   30  C15 UNL     1     -30.239  -0.504  17.766  1.00  0.00    -0.040 A
HETATM   31  C16 UNL     1     -28.927  -0.457  18.147  1.00  0.00     0.009 A
HETATM   32  C17 UNL     1     -28.406  -1.493  18.888  1.00  0.00     0.001 A
HETATM   33  C18 UNL     1     -29.185  -2.565  19.248  1.00  0.00     0.000 A
HETATM   34  C19 UNL     1     -30.497  -2.632  18.879  1.00  0.00     0.001 A
HETATM   35  C20 UNL     1     -31.018  -1.574  18.124  1.00  0.00     0.009 A
ENDBRANCH  29  30
ENDBRANCH  26  29
ENDBRANCH  22  23
ENDBRANCH  21  22
ENDBRANCH  19  21
ENDBRANCH  11  19
ENDBRANCH   4   6
ENDBRANCH   3   4
TORSDOF 10
ENDMDL