MODEL 3
REMARK VINA RESULT: -6.568522191      2.084      2.771
REMARK  8 active torsions:
REMARK  status: ('A' for Active; 'I' for Inactive)
REMARK    1  A    between atoms: C2_2  and  C3_3
REMARK    2  A    between atoms: C3_3  and  C4_4
REMARK    3  A    between atoms: C4_4  and  C5_5
REMARK    4  A    between atoms: N3_18  and  C13_19
REMARK    5  A    between atoms: C13_19  and  C14_20
REMARK    6  A    between atoms: C14_20  and  C15_21
REMARK    7  A    between atoms: C15_21  and  S1_22
REMARK    8  A    between atoms: S1_22  and  N4_23
ROOT
HETATM    1  C5  UNL     1     -29.410   0.158  17.375  1.00  0.00     0.041 A
HETATM    2  C6  UNL     1     -28.241   0.574  16.739  1.00  0.00     0.085 A
HETATM    3  N1  UNL     1     -27.040   0.947  17.224  1.00  0.00    -0.351 N
ATOM      4  H1  UNL     1     -26.803   0.973  18.215  1.00  0.00     0.166 HD
HETATM    5  C7  UNL     1     -26.202   1.277  16.236  1.00  0.00     0.062 A
HETATM    6  C8  UNL     1     -24.886   1.717  16.248  1.00  0.00     0.037 A
HETATM    7  C9  UNL     1     -24.273   1.987  15.065  1.00  0.00     0.077 A
HETATM    8  C10 UNL     1     -24.988   1.808  13.914  1.00  0.00     0.245 A
HETATM    9  O1  UNL     1     -24.412   2.060  12.810  1.00  0.00    -0.268 OA
HETATM   10  N2  UNL     1     -26.271   1.381  13.859  1.00  0.00    -0.320 N
ATOM     11  H2  UNL     1     -26.759   1.266  12.971  1.00  0.00     0.169 HD
HETATM   12  C11 UNL     1     -26.870   1.118  15.028  1.00  0.00     0.091 A
HETATM   13  C12 UNL     1     -28.140   0.678  15.356  1.00  0.00     0.094 A
HETATM   14  N3  UNL     1     -29.229   0.358  14.656  1.00  0.00    -0.333 N
HETATM   15  C16 UNL     1     -30.386  -0.051  15.276  1.00  0.00     0.082 A
HETATM   16  C17 UNL     1     -31.595  -0.373  14.465  1.00  0.00     0.089 C
HETATM   17  N5  UNL     1     -30.462  -0.145  16.607  1.00  0.00    -0.343 N
HETATM   18  C18 UNL     1     -31.726  -0.605  17.193  1.00  0.00     0.157 C
ENDROOT
BRANCH  14  19
HETATM   19  C13 UNL     1     -29.260   0.407  13.214  1.00  0.00     0.131 C
BRANCH  19  20
HETATM   20  C14 UNL     1     -29.595   1.783  12.679  1.00  0.00     0.037 C
BRANCH  20  21
HETATM   21  C15 UNL     1     -28.995   2.113  11.358  1.00  0.00     0.164 C
BRANCH  21  22
HETATM   22  S1  UNL     1     -27.775   3.346  11.294  1.00  0.00     0.224 S
HETATM   23  O2  UNL     1     -28.288   4.471  10.408  1.00  0.00    -0.206 OA
HETATM   24  O3  UNL     1     -27.506   3.974  12.634  1.00  0.00    -0.206 OA
BRANCH  22  25
HETATM   25  N4  UNL     1     -26.287   2.825  10.564  1.00  0.00    -0.328 N
ATOM     26  H42 UNL     1     -26.081   2.980   9.576  1.00  0.00     0.168 HD
ATOM     27  H41 UNL     1     -25.652   2.357  11.211  1.00  0.00     0.168 HD
ENDBRANCH  22  25
ENDBRANCH  21  22
ENDBRANCH  20  21
ENDBRANCH  19  20
ENDBRANCH  14  19
BRANCH   1  28
HETATM   28  C4  UNL     1     -29.418   0.069  18.855  1.00  0.00     0.059 C
BRANCH  28  29
HETATM   29  C3  UNL     1     -28.463  -1.009  19.291  1.00  0.00     0.006 C
BRANCH  29  30
HETATM   30  C2  UNL     1     -29.007  -2.396  19.058  1.00  0.00    -0.004 C
HETATM   31  C1  UNL     1     -28.974  -3.262  20.269  1.00  0.00     0.005 C
ENDBRANCH  29  30
ENDBRANCH  28  29
ENDBRANCH   1  28
TORSDOF 8
ENDMDL