MODEL 4
REMARK VINA RESULT: -6.119708158      3.324      7.629
REMARK  9 active torsions:
REMARK  status: ('A' for Active; 'I' for Inactive)
REMARK    1  A    between atoms: C2_2  and  C3_3
REMARK    2  A    between atoms: C3_3  and  C4_4
REMARK    3  A    between atoms: C4_4  and  C5_5
REMARK    4  A    between atoms: C5_5  and  C6_6
REMARK    5  A    between atoms: C6_6  and  C7_7
REMARK    6  A    between atoms: N1_10  and  N2_12
REMARK    7  A    between atoms: N4_17  and  C10_18
REMARK    8  A    between atoms: C10_18  and  C13_21
REMARK    9  A    between atoms: C14_22  and  C15_23
ROOT
HETATM    1  C7  UNL     1     -26.710   1.376  16.290  1.00  0.00     0.085 C
HETATM    2  C8  UNL     1     -25.301   1.697  15.840  1.00  0.00     0.092 C
HETATM    3  C9  UNL     1     -25.528   1.823  14.367  1.00  0.00     0.104 C
HETATM    4  N1  UNL     1     -24.780   1.458  13.392  1.00  0.00    -0.275 N
ATOM      5  H1  UNL     1     -25.124   1.637  12.448  1.00  0.00     0.189 HD
HETATM    6  N4  UNL     1     -26.788   2.450  14.224  1.00  0.00    -0.285 N
HETATM    7  C20 UNL     1     -27.518   2.304  15.460  1.00  0.00     0.231 C
HETATM    8  O1  UNL     1     -28.596   2.828  15.790  1.00  0.00    -0.273 OA
ENDROOT
BRANCH   6   9
HETATM    9  C10 UNL     1     -27.288   3.126  13.067  1.00  0.00     0.098 C
HETATM   10  C11 UNL     1     -26.294   3.232  11.950  1.00  0.00     0.053 C
HETATM   11  C12 UNL     1     -27.729   4.555  13.391  1.00  0.00     0.053 C
BRANCH   9  12
HETATM   12  C13 UNL     1     -28.473   2.356  12.613  1.00  0.00    -0.068 C
HETATM   13  C14 UNL     1     -29.448   1.741  12.257  1.00  0.00    -0.045 C
BRANCH  13  14
HETATM   14  C15 UNL     1     -30.624   1.022  11.846  1.00  0.00     0.103 A
HETATM   15  C16 UNL     1     -31.203   1.041  10.594  1.00  0.00     0.130 A
HETATM   16  N5  UNL     1     -32.303   0.233  10.596  1.00  0.00    -0.348 N
HETATM   17  C17 UNL     1     -33.187  -0.028   9.493  1.00  0.00     0.157 C
HETATM   18  C18 UNL     1     -32.409  -0.281  11.828  1.00  0.00     0.079 A
HETATM   19  C19 UNL     1     -33.476  -1.213  12.248  1.00  0.00     0.089 C
HETATM   20  N6  UNL     1     -31.400   0.193  12.584  1.00  0.00    -0.338 N
ATOM     21  H6  UNL     1     -31.243  -0.038  13.564  1.00  0.00     0.168 HD
ENDBRANCH  13  14
ENDBRANCH   9  12
ENDBRANCH   6   9
BRANCH   4  22
HETATM   22  N2  UNL     1     -23.553   0.844  13.510  1.00  0.00    -0.248 N
HETATM   23  N3  UNL     1     -22.534   1.451  13.028  1.00  0.00    -0.331 N
ATOM     24  H32 UNL     1     -22.644   2.358  12.574  1.00  0.00     0.178 HD
ATOM     25  H31 UNL     1     -21.625   0.997  13.115  1.00  0.00     0.178 HD
ATOM     26  H2  UNL     1     -23.458  -0.063  13.965  1.00  0.00     0.207 HD
ENDBRANCH   4  22
BRANCH   1  27
HETATM   27  C6  UNL     1     -26.906   1.616  17.764  1.00  0.00     0.014 C
BRANCH  27  28
HETATM   28  C5  UNL     1     -27.478   0.436  18.478  1.00  0.00     0.001 C
BRANCH  28  29
HETATM   29  C4  UNL     1     -28.775  -0.046  17.904  1.00  0.00     0.000 C
BRANCH  29  30
HETATM   30  C3  UNL     1     -29.088  -1.478  18.208  1.00  0.00    -0.000 C
BRANCH  30  31
HETATM   31  C2  UNL     1     -29.088  -1.739  19.702  1.00  0.00    -0.005 C
HETATM   32  C1  UNL     1     -29.414  -3.181  19.996  1.00  0.00     0.005 C
ENDBRANCH  30  31
ENDBRANCH  29  30
ENDBRANCH  28  29
ENDBRANCH  27  28
ENDBRANCH   1  27
TORSDOF 9
ENDMDL