MODEL 2
REMARK VINA RESULT: -6.219884404      0.650      1.320
REMARK  9 active torsions:
REMARK  status: ('A' for Active; 'I' for Inactive)
REMARK    1  A    between atoms: C3_3  and  C4_4
REMARK    2  A    between atoms: C4_4  and  N1_6
REMARK    3  A    between atoms: N1_6  and  C6_8
REMARK    4  A    between atoms: N2_10  and  C8_11
REMARK    5  A    between atoms: C8_11  and  C9_12
REMARK    6  A    between atoms: C10_13  and  C11_14
REMARK    7  A    between atoms: C11_14  and  N3_15
REMARK    8  A    between atoms: C16_22  and  N5_23
REMARK       I    between atoms: N5_23  and  C17_25
REMARK       I    between atoms: C17_25  and  N6_27
REMARK    9  A    between atoms: N6_27  and  C18_29
ROOT
HETATM    1  C1  UNL     1     -25.018   5.748   9.319  1.00  0.00     0.097 C
HETATM    2  C2  UNL     1     -25.931   5.375  10.039  1.00  0.00    -0.186 C
HETATM    3  C3  UNL     1     -27.037   4.920  10.878  1.00  0.00     0.104 C
ENDROOT
BRANCH   3   4
HETATM    4  C4  UNL     1     -27.147   3.418  10.822  1.00  0.00     0.088 C
HETATM    5  C5  UNL     1     -26.897   2.909   9.415  1.00  0.00     0.033 C
BRANCH   4   6
HETATM    6  N1  UNL     1     -26.378   2.733  11.804  1.00  0.00    -0.381 N
ATOM      7  H1  UNL     1     -25.368   2.736  11.665  1.00  0.00     0.160 HD
BRANCH   6   8
HETATM    8  C6  UNL     1     -26.845   2.046  12.950  1.00  0.00     0.089 A
HETATM    9  C7  UNL     1     -28.139   2.172  13.427  1.00  0.00     0.125 A
HETATM   10  N2  UNL     1     -28.583   1.521  14.538  1.00  0.00    -0.340 N
HETATM   11  C15 UNL     1     -27.692   0.735  15.164  1.00  0.00     0.185 A
HETATM   12  N4  UNL     1     -26.424   0.593  14.723  1.00  0.00    -0.336 N
HETATM   13  C16 UNL     1     -25.961   1.222  13.633  1.00  0.00     0.138 A
ATOM     14  H4  UNL     1     -25.792  -0.018  15.242  1.00  0.00     0.168 HD
BRANCH  10  15
HETATM   15  C8  UNL     1     -29.943   1.671  15.012  1.00  0.00     0.223 C
BRANCH  15  16
HETATM   16  C9  UNL     1     -30.773   0.788  14.160  1.00  0.00    -0.085 C
HETATM   17  C10 UNL     1     -31.431   0.061  13.457  1.00  0.00    -0.077 C
BRANCH  17  18
HETATM   18  C11 UNL     1     -32.208  -0.831  12.595  1.00  0.00     0.329 C
BRANCH  18  19
HETATM   19  N3  UNL     1     -32.787  -0.133  11.466  1.00  0.00    -0.069 N
HETATM   20  C12 UNL     1     -31.779   0.615  10.763  1.00  0.00     0.272 C
HETATM   21  C13 UNL     1     -33.339  -1.121  10.557  1.00  0.00     0.272 C
HETATM   22  C14 UNL     1     -33.812   0.781  11.914  1.00  0.00     0.272 C
ENDBRANCH  18  19
ENDBRANCH  17  18
ENDBRANCH  15  16
ENDBRANCH  10  15
BRANCH  13  23
HETATM   23  N5  UNL     1     -24.741   1.054  13.253  1.00  0.00    -0.293 N
HETATM   24  C17 UNL     1     -23.635   1.717  13.784  1.00  0.00     0.322 C
HETATM   25  O1  UNL     1     -23.039   2.571  13.081  1.00  0.00    -0.247 OA
HETATM   26  N6  UNL     1     -23.143   1.472  15.092  1.00  0.00    -0.339 N
ATOM     27  H6  UNL     1     -23.620   0.779  15.670  1.00  0.00     0.164 HD
ATOM     28  H5  UNL     1     -24.571   0.382  12.504  1.00  0.00     0.172 HD
BRANCH  26  29
HETATM   29  C18 UNL     1     -21.996   2.160  15.644  1.00  0.00     0.078 C
HETATM   30  C19 UNL     1     -22.372   2.556  17.077  1.00  0.00     0.032 C
HETATM   31  C20 UNL     1     -20.823   1.221  15.680  1.00  0.00     0.032 C
ENDBRANCH  26  29
ENDBRANCH  13  23
ENDBRANCH   6   8
ENDBRANCH   4   6
ENDBRANCH   3   4
TORSDOF 9
ENDMDL