MODEL 1
REMARK VINA RESULT: -6.307719438      0.000      0.000
REMARK  10 active torsions:
REMARK  status: ('A' for Active; 'I' for Inactive)
REMARK    1  A    between atoms: C3_4  and  C4_5
REMARK    2  A    between atoms: C5_6  and  C6_7
REMARK    3  A    between atoms: C9_12  and  N3_13
REMARK    4  A    between atoms: C10_16  and  C11_17
REMARK    5  A    between atoms: C12_18  and  C13_19
REMARK    6  A    between atoms: C13_19  and  C14_20
REMARK    7  A    between atoms: C14_20  and  N4_21
REMARK    8  A    between atoms: C17_24  and  N5_25
REMARK    9  A    between atoms: N5_25  and  C19_27
REMARK   10  A    between atoms: C19_27  and  C20_28
ROOT
HETATM    1  C1  UNL     1     -28.257   0.237  18.166  1.00  0.00     0.124 C
HETATM    2  C2  UNL     1     -29.405   0.090  17.773  1.00  0.00    -0.067 C
HETATM    3  N1  UNL     1     -30.722  -0.066  17.296  1.00  0.00    -0.269 N
HETATM    4  C3  UNL     1     -31.712  -0.359  18.196  1.00  0.00     0.063 A
HETATM    5  C8  UNL     1     -32.955  -0.489  17.636  1.00  0.00     0.120 A
HETATM    6  N2  UNL     1     -33.190  -0.340  16.295  1.00  0.00    -0.348 N
ATOM      7  H2  UNL     1     -34.138  -0.448  15.932  1.00  0.00     0.167 HD
HETATM    8  C9  UNL     1     -32.194  -0.056  15.459  1.00  0.00     0.136 A
HETATM    9  C10 UNL     1     -30.935   0.083  15.980  1.00  0.00     0.144 A
ENDROOT
BRANCH   4  10
HETATM   10  C4  UNL     1     -31.398  -0.504  19.585  1.00  0.00     0.032 C
HETATM   11  C5  UNL     1     -30.961  -1.434  20.335  1.00  0.00     0.002 C
BRANCH  11  12
HETATM   12  C6  UNL     1     -30.563  -2.802  20.170  1.00  0.00    -0.010 C
HETATM   13  C7  UNL     1     -29.420  -3.099  19.538  1.00  0.00     0.011 C
ENDBRANCH  11  12
ENDBRANCH   4  10
BRANCH   9  14
HETATM   14  C11 UNL     1     -29.847   0.393  15.073  1.00  0.00    -0.044 C
HETATM   15  C12 UNL     1     -28.925   0.639  14.326  1.00  0.00    -0.098 C
BRANCH  15  16
HETATM   16  C13 UNL     1     -27.798   0.913  13.432  1.00  0.00     0.114 C
BRANCH  16  17
HETATM   17  C14 UNL     1     -27.146   2.240  13.728  1.00  0.00     0.139 C
BRANCH  17  18
HETATM   18  N4  UNL     1     -25.789   2.074  14.210  1.00  0.00    -0.365 N
HETATM   19  C15 UNL     1     -24.712   2.143  13.376  1.00  0.00     0.092 A
HETATM   20  C16 UNL     1     -23.431   1.986  13.828  1.00  0.00     0.046 A
HETATM   21  C17 UNL     1     -23.187   1.750  15.174  1.00  0.00     0.032 A
HETATM   22  C22 UNL     1     -24.279   1.686  15.986  1.00  0.00     0.046 A
HETATM   23  C23 UNL     1     -25.588   1.848  15.504  1.00  0.00     0.092 A
BRANCH  21  24
HETATM   24  N5  UNL     1     -21.865   1.595  15.640  1.00  0.00    -0.382 N
HETATM   25  C18 UNL     1     -20.901   0.947  14.763  1.00  0.00     0.150 C
BRANCH  24  26
HETATM   26  C19 UNL     1     -21.411   2.038  16.924  1.00  0.00     0.149 C
BRANCH  26  27
HETATM   27  C20 UNL     1     -20.151   1.283  17.272  1.00  0.00    -0.018 C
HETATM   28  C21 UNL     1     -20.004   0.862  18.511  1.00  0.00     0.008 C
ENDBRANCH  26  27
ENDBRANCH  24  26
ENDBRANCH  21  24
ENDBRANCH  17  18
ENDBRANCH  16  17
ENDBRANCH  15  16
ENDBRANCH   9  14
BRANCH   8  29
HETATM   29  N3  UNL     1     -32.399   0.091  14.173  1.00  0.00    -0.383 N
ATOM     30  H32 UNL     1     -31.758  -0.324  13.497  1.00  0.00     0.157 HD
ATOM     31  H31 UNL     1     -33.195   0.620  13.817  1.00  0.00     0.157 HD
ENDBRANCH   8  29
TORSDOF 10
ENDMDL