MODEL 1
REMARK VINA RESULT: -7.016063501      0.000      0.000
REMARK  8 active torsions:
REMARK  status: ('A' for Active; 'I' for Inactive)
REMARK    1  A    between atoms: C3_3  and  C4_4
REMARK    2  A    between atoms: N1_8  and  C8_9
REMARK    3  A    between atoms: C8_9  and  C9_10
REMARK    4  A    between atoms: C9_10  and  C10_11
REMARK    5  A    between atoms: C10_11  and  O1_12
REMARK    6  A    between atoms: O1_12  and  C11_13
REMARK    7  A    between atoms: C11_13  and  C12_14
REMARK    8  A    between atoms: C12_14  and  N2_15
ROOT
HETATM    1  C1  UNL     1     -29.509  -3.531  20.183  1.00  0.00     0.112 C
HETATM    2  C2  UNL     1     -30.033  -2.573  19.199  1.00  0.00    -0.105 C
HETATM    3  C3  UNL     1     -30.461  -1.799  18.380  1.00  0.00    -0.066 C
ENDROOT
BRANCH   3   4
HETATM    4  C4  UNL     1     -30.970  -0.873  17.385  1.00  0.00     0.033 A
HETATM    5  C5  UNL     1     -32.330  -0.722  17.185  1.00  0.00     0.023 A
HETATM    6  C6  UNL     1     -32.747   0.177  16.222  1.00  0.00     0.019 A
HETATM    7  C7  UNL     1     -31.831   0.904  15.478  1.00  0.00     0.090 A
HETATM    8  N1  UNL     1     -30.507   0.749  15.679  1.00  0.00    -0.365 N
HETATM    9  C21 UNL     1     -30.125  -0.120  16.611  1.00  0.00     0.111 A
BRANCH   8  10
HETATM   10  C8  UNL     1     -29.620   1.522  14.885  1.00  0.00     0.130 C
BRANCH  10  11
HETATM   11  C9  UNL     1     -28.171   1.224  15.033  1.00  0.00     0.046 C
BRANCH  11  12
HETATM   12  C10 UNL     1     -27.762   0.430  13.767  1.00  0.00     0.169 C
BRANCH  12  13
HETATM   13  O1  UNL     1     -26.684   1.022  13.159  1.00  0.00    -0.389 OA
BRANCH  13  14
HETATM   14  C11 UNL     1     -26.021   1.850  14.028  1.00  0.00     0.187 C
BRANCH  14  15
HETATM   15  C12 UNL     1     -24.891   2.552  13.326  1.00  0.00     0.154 C
BRANCH  15  16
HETATM   16  N2  UNL     1     -23.658   1.984  13.911  1.00  0.00    -0.363 N
HETATM   17  C13 UNL     1     -22.895   1.198  13.135  1.00  0.00     0.092 A
HETATM   18  C14 UNL     1     -21.737   0.639  13.613  1.00  0.00     0.048 A
HETATM   19  C15 UNL     1     -21.380   0.912  14.925  1.00  0.00     0.063 A
HETATM   20  N3  UNL     1     -20.242   0.365  15.400  1.00  0.00    -0.191 N
HETATM   21  C19 UNL     1     -22.172   1.723  15.717  1.00  0.00     0.023 A
HETATM   22  C16 UNL     1     -19.888   0.623  16.668  1.00  0.00     0.678 A
ATOM     23  H3  UNL     1     -19.664  -0.232  14.808  1.00  0.00     0.184 HD
HETATM   24  N4  UNL     1     -18.788   0.085  17.103  1.00  0.00    -0.234 N
HETATM   25  N5  UNL     1     -20.619   1.402  17.483  1.00  0.00    -0.197 N
ATOM     26  H42 UNL     1     -18.233  -0.507  16.486  1.00  0.00     0.174 HD
ATOM     27  H41 UNL     1     -18.519   0.281  18.067  1.00  0.00     0.174 HD
HETATM   28  C17 UNL     1     -20.172   1.640  18.853  1.00  0.00     0.174 C
HETATM   29  C18 UNL     1     -21.754   1.949  17.009  1.00  0.00     0.123 A
HETATM   30  C20 UNL     1     -23.322   2.256  15.184  1.00  0.00     0.105 A
ENDBRANCH  15  16
ENDBRANCH  14  15
ENDBRANCH  13  14
ENDBRANCH  12  13
ENDBRANCH  11  12
ENDBRANCH  10  11
ENDBRANCH   8  10
ENDBRANCH   3   4
TORSDOF 8
ENDMDL