MODEL 1
REMARK VINA RESULT: -6.603665100      0.000      0.000
REMARK  8 active torsions:
REMARK  status: ('A' for Active; 'I' for Inactive)
REMARK    1  A    between atoms: C3_5  and  S1_6
REMARK    2  A    between atoms: S1_6  and  N2_9
REMARK    3  A    between atoms: N2_9  and  C4_11
REMARK    4  A    between atoms: C4_11  and  C5_12
REMARK    5  A    between atoms: C8_17  and  C9_18
REMARK    6  A    between atoms: C9_18  and  C10_19
REMARK    7  A    between atoms: C10_19  and  C11_20
REMARK    8  A    between atoms: C11_20  and  N4_21
ROOT
HETATM    1  N2  UNL     1     -27.014   0.274  14.236  1.00  0.00    -0.310 N
ATOM      2  H2  UNL     1     -26.843  -0.691  13.952  1.00  0.00     0.172 HD
ENDROOT
BRANCH   1   3
HETATM    3  S1  UNL     1     -26.038   1.641  13.779  1.00  0.00     0.276 S
HETATM    4  O1  UNL     1     -26.755   2.862  14.267  1.00  0.00    -0.199 OA
HETATM    5  O2  UNL     1     -26.033   1.708  12.277  1.00  0.00    -0.199 OA
BRANCH   3   6
HETATM    6  C3  UNL     1     -24.464   1.573  14.483  1.00  0.00     0.172 A
HETATM    7  N1  UNL     1     -23.324   1.207  13.821  1.00  0.00    -0.334 N
HETATM    8  C2  UNL     1     -22.273   1.278  14.648  1.00  0.00     0.080 A
ATOM      9  H1  UNL     1     -23.281   0.921  12.843  1.00  0.00     0.168 HD
HETATM   10  C1  UNL     1     -20.844   0.951  14.281  1.00  0.00     0.089 C
HETATM   11  N5  UNL     1     -22.753   1.688  15.824  1.00  0.00    -0.342 N
HETATM   12  C15 UNL     1     -24.082   1.873  15.751  1.00  0.00     0.049 A
HETATM   13  C17 UNL     1     -21.883   1.895  16.992  1.00  0.00     0.157 C
HETATM   14  C16 UNL     1     -24.898   2.324  16.884  1.00  0.00     0.071 C
ENDBRANCH   3   6
ENDBRANCH   1   3
BRANCH   1  15
HETATM   15  C4  UNL     1     -28.107   0.714  15.086  1.00  0.00     0.173 C
BRANCH  15  16
HETATM   16  C5  UNL     1     -29.440   0.407  14.555  1.00  0.00    -0.013 A
HETATM   17  C6  UNL     1     -29.746   0.390  13.193  1.00  0.00     0.097 A
HETATM   18  N3  UNL     1     -31.055   0.146  13.043  1.00  0.00    -0.374 N
HETATM   19  C7  UNL     1     -31.621  -0.000  14.270  1.00  0.00     0.099 A
ATOM     20  H3  UNL     1     -31.546   0.080  12.152  1.00  0.00     0.164 HD
HETATM   21  C8  UNL     1     -30.638   0.156  15.222  1.00  0.00    -0.012 A
BRANCH  21  22
HETATM   22  C9  UNL     1     -30.787   0.096  16.652  1.00  0.00     0.011 C
BRANCH  22  23
HETATM   23  C10 UNL     1     -30.603  -0.840  17.521  1.00  0.00     0.002 C
BRANCH  23  24
HETATM   24  C11 UNL     1     -29.416  -1.194  18.264  1.00  0.00     0.263 C
BRANCH  24  25
HETATM   25  N4  UNL     1     -29.661  -1.640  19.627  1.00  0.00    -0.075 N
HETATM   26  C12 UNL     1     -31.049  -1.467  19.970  1.00  0.00     0.272 C
HETATM   27  C13 UNL     1     -28.876  -0.891  20.585  1.00  0.00     0.272 C
HETATM   28  C14 UNL     1     -29.371  -3.051  19.771  1.00  0.00     0.272 C
ENDBRANCH  24  25
ENDBRANCH  23  24
ENDBRANCH  22  23
ENDBRANCH  21  22
ENDBRANCH  15  16
ENDBRANCH   1  15
TORSDOF 8
ENDMDL