MODEL 5
REMARK VINA RESULT: -5.631657452      0.757      1.366
REMARK  8 active torsions:
REMARK  status: ('A' for Active; 'I' for Inactive)
REMARK    1  A    between atoms: C2_2  and  N1_3
REMARK    2  A    between atoms: N1_3  and  C3_4
REMARK       I    between atoms: N1_3  and  C5_6
REMARK    3  A    between atoms: C5_6  and  C6_8
REMARK    4  A    between atoms: C6_8  and  N2_9
REMARK    5  A    between atoms: N2_9  and  C7_11
REMARK    6  A    between atoms: C10_20  and  N6_21
REMARK    7  A    between atoms: N6_21  and  C11_22
REMARK    8  A    between atoms: N6_21  and  C13_24
ROOT
HETATM    1  C7  UNL     1     -26.084   2.123  12.998  1.00  0.00     0.132 A
HETATM    2  N3  UNL     1     -24.759   2.087  13.357  1.00  0.00    -0.283 N
ATOM      3  H3  UNL     1     -23.986   2.419  12.781  1.00  0.00     0.188 HD
HETATM    4  N4  UNL     1     -24.637   1.561  14.557  1.00  0.00    -0.283 N
ATOM      5  H4  UNL     1     -23.763   1.417  15.062  1.00  0.00     0.188 HD
HETATM    6  C8  UNL     1     -25.878   1.242  15.005  1.00  0.00     0.137 A
HETATM    7  N5  UNL     1     -26.563   0.718  16.030  1.00  0.00    -0.337 N
ATOM      8  H5  UNL     1     -26.129   0.375  16.887  1.00  0.00     0.167 HD
HETATM    9  C9  UNL     1     -27.876   0.694  15.806  1.00  0.00     0.083 A
HETATM   10  C10 UNL     1     -28.956   0.264  16.567  1.00  0.00     0.041 A
HETATM   11  C15 UNL     1     -30.192   0.410  16.017  1.00  0.00     0.043 A
HETATM   12  C16 UNL     1     -30.314   0.964  14.758  1.00  0.00     0.092 A
HETATM   13  N7  UNL     1     -29.260   1.381  14.016  1.00  0.00    -0.358 N
HETATM   14  C17 UNL     1     -29.540   1.951  12.692  1.00  0.00     0.156 C
HETATM   15  C18 UNL     1     -28.053   1.249  14.531  1.00  0.00     0.080 A
HETATM   16  C19 UNL     1     -26.803   1.594  14.026  1.00  0.00     0.084 A
ENDROOT
BRANCH   1  17
HETATM   17  N2  UNL     1     -26.527   2.581  11.885  1.00  0.00    -0.366 N
ATOM     18  H2  UNL     1     -27.292   2.079  11.435  1.00  0.00     0.161 HD
BRANCH  17  19
HETATM   19  C6  UNL     1     -26.018   3.748  11.236  1.00  0.00     0.224 C
BRANCH  19  20
HETATM   20  C5  UNL     1     -26.359   3.729   9.794  1.00  0.00     0.237 C
HETATM   21  N1  UNL     1     -26.545   4.939   9.066  1.00  0.00    -0.351 N
HETATM   22  O1  UNL     1     -26.483   2.621   9.212  1.00  0.00    -0.272 OA
BRANCH  21  23
HETATM   23  C2  UNL     1     -26.876   4.879   7.653  1.00  0.00     0.121 C
HETATM   24  C1  UNL     1     -28.337   5.135   7.441  1.00  0.00     0.026 C
ENDBRANCH  21  23
BRANCH  21  25
HETATM   25  C3  UNL     1     -26.416   6.217   9.693  1.00  0.00     0.121 C
HETATM   26  C4  UNL     1     -25.083   6.881   9.427  1.00  0.00     0.026 C
ENDBRANCH  21  25
ENDBRANCH  19  20
ENDBRANCH  17  19
ENDBRANCH   1  17
BRANCH  10  27
HETATM   27  N6  UNL     1     -28.689  -0.318  17.834  1.00  0.00    -0.282 NA
BRANCH  27  28
HETATM   28  C11 UNL     1     -28.803   0.708  18.885  1.00  0.00     0.091 C
HETATM   29  C12 UNL     1     -27.638   0.728  19.809  1.00  0.00     0.021 C
ENDBRANCH  27  28
BRANCH  27  30
HETATM   30  C13 UNL     1     -29.797  -1.233  18.169  1.00  0.00     0.091 C
HETATM   31  C14 UNL     1     -29.344  -2.507  18.815  1.00  0.00     0.021 C
ENDBRANCH  27  30
ENDBRANCH  10  27
TORSDOF 8
ENDMDL