MODEL 1
REMARK VINA RESULT: -6.762791630      0.000      0.000
REMARK  10 active torsions:
REMARK  status: ('A' for Active; 'I' for Inactive)
REMARK    1  A    between atoms: C2_2  and  C3_3
REMARK    2  A    between atoms: C3_3  and  C4_4
REMARK    3  A    between atoms: C4_4  and  C5_5
REMARK    4  A    between atoms: C5_5  and  N1_6
REMARK    5  A    between atoms: N2_9  and  C8_10
REMARK    6  A    between atoms: C8_10  and  C9_11
REMARK    7  A    between atoms: C10_12  and  C11_13
REMARK    8  A    between atoms: C11_13  and  C12_14
REMARK    9  A    between atoms: C12_14  and  N3_15
REMARK   10  A    between atoms: C18_23  and  N5_24
ROOT
HETATM    1  N1  UNL     1     -24.433   1.907  14.609  1.00  0.00    -0.362 N
HETATM    2  C6  UNL     1     -25.521   1.401  15.203  1.00  0.00     0.107 A
HETATM    3  C7  UNL     1     -26.743   1.486  14.568  1.00  0.00     0.110 A
HETATM    4  N2  UNL     1     -26.794   2.076  13.370  1.00  0.00    -0.335 N
HETATM    5  C19 UNL     1     -25.689   2.587  12.773  1.00  0.00     0.132 A
HETATM    6  C20 UNL     1     -25.849   3.201  11.487  1.00  0.00     0.119 C
HETATM    7  N6  UNL     1     -25.973   3.689  10.445  1.00  0.00    -0.190 NA
HETATM    8  C21 UNL     1     -24.468   2.504  13.404  1.00  0.00     0.131 A
ENDROOT
BRANCH   4   9
HETATM    9  C8  UNL     1     -28.077   2.165  12.704  1.00  0.00     0.223 C
BRANCH   9  10
HETATM   10  C9  UNL     1     -29.020   1.375  13.519  1.00  0.00    -0.086 C
HETATM   11  C10 UNL     1     -29.804   0.744  14.182  1.00  0.00    -0.103 C
BRANCH  11  12
HETATM   12  C11 UNL     1     -30.773  -0.003  14.981  1.00  0.00     0.115 C
BRANCH  12  13
HETATM   13  C12 UNL     1     -30.819   0.534  16.413  1.00  0.00     0.159 C
BRANCH  13  14
HETATM   14  N3  UNL     1     -30.454  -0.474  17.365  1.00  0.00    -0.187 N
HETATM   15  C13 UNL     1     -29.240  -0.477  17.924  1.00  0.00     0.027 A
HETATM   16  C14 UNL     1     -28.208   0.528  17.632  1.00  0.00     0.069 C
HETATM   17  C15 UNL     1     -28.911  -1.475  18.843  1.00  0.00     0.050 A
HETATM   18  C16 UNL     1     -29.831  -2.433  19.157  1.00  0.00     0.024 A
HETATM   19  C17 UNL     1     -29.477  -3.498  20.138  1.00  0.00     0.068 C
HETATM   20  N4  UNL     1     -31.032  -2.391  18.573  1.00  0.00    -0.196 N
HETATM   21  C18 UNL     1     -31.359  -1.425  17.681  1.00  0.00     0.678 A
ATOM     22  H4  UNL     1     -31.723  -3.105  18.806  1.00  0.00     0.184 HD
BRANCH  21  23
HETATM   23  N5  UNL     1     -32.544  -1.504  17.193  1.00  0.00    -0.234 N
ATOM     24  H52 UNL     1     -32.621  -1.303  16.196  1.00  0.00     0.174 HD
ATOM     25  H51 UNL     1     -33.380  -1.742  17.726  1.00  0.00     0.174 HD
ENDBRANCH  21  23
ENDBRANCH  13  14
ENDBRANCH  12  13
ENDBRANCH  11  12
ENDBRANCH   9  10
ENDBRANCH   4   9
BRANCH   1  26
HETATM   26  C5  UNL     1     -23.158   1.793  15.323  1.00  0.00     0.128 C
BRANCH  26  27
HETATM   27  C4  UNL     1     -22.217   0.884  14.627  1.00  0.00     0.020 C
BRANCH  27  28
HETATM   28  C3  UNL     1     -20.923   0.613  15.266  1.00  0.00     0.001 C
BRANCH  28  29
HETATM   29  C2  UNL     1     -20.513   1.359  16.472  1.00  0.00    -0.004 C
HETATM   30  C1  UNL     1     -19.763   0.597  17.515  1.00  0.00     0.005 C
ENDBRANCH  28  29
ENDBRANCH  27  28
ENDBRANCH  26  27
ENDBRANCH   1  26
TORSDOF 10
ENDMDL