MODEL 5
REMARK VINA RESULT: -4.920573887      5.298     10.037
REMARK  12 active torsions:
REMARK  status: ('A' for Active; 'I' for Inactive)
REMARK    1  A    between atoms: C3_3  and  C4_4
REMARK    2  A    between atoms: C5_5  and  C6_6
REMARK    3  A    between atoms: C7_7  and  C8_8
REMARK    4  A    between atoms: C10_10  and  N1_11
REMARK       I    between atoms: N1_11  and  C11_13
REMARK    5  A    between atoms: C11_13  and  C12_15
REMARK    6  A    between atoms: C12_15  and  C13_16
REMARK    7  A    between atoms: C13_16  and  O2_17
REMARK    8  A    between atoms: C13_16  and  N2_19
REMARK    9  A    between atoms: N2_19  and  C15_21
REMARK   10  A    between atoms: C15_21  and  C16_22
REMARK   11  A    between atoms: C16_22  and  C17_23
REMARK   12  A    between atoms: C17_23  and  N3_24
ROOT
HETATM    1  C1  UNL     1     -25.406   4.400  10.057  1.00  0.00     0.113 C
HETATM    2  C2  UNL     1     -26.198   3.612  11.011  1.00  0.00    -0.097 C
HETATM    3  C3  UNL     1     -26.871   2.976  11.793  1.00  0.00    -0.015 C
ENDROOT
BRANCH   3   4
HETATM    4  C4  UNL     1     -27.682   2.246  12.700  1.00  0.00    -0.001 C
HETATM    5  C5  UNL     1     -28.373   1.646  13.486  1.00  0.00    -0.001 C
BRANCH   5   6
HETATM    6  C6  UNL     1     -29.192   0.961  14.428  1.00  0.00    -0.007 C
HETATM    7  C7  UNL     1     -29.888   0.393  15.253  1.00  0.00    -0.033 C
BRANCH   7   8
HETATM    8  C8  UNL     1     -30.696  -0.257  16.244  1.00  0.00     0.105 A
HETATM    9  C9  UNL     1     -30.381  -0.413  17.594  1.00  0.00     0.090 A
HETATM   10  C10 UNL     1     -31.402  -1.083  18.229  1.00  0.00     0.125 A
HETATM   11  N4  UNL     1     -32.316  -1.325  17.278  1.00  0.00    -0.284 N
HETATM   12  N5  UNL     1     -31.898  -0.835  16.096  1.00  0.00    -0.291 N
ATOM     13  H4  UNL     1     -33.201  -1.811  17.429  1.00  0.00     0.188 HD
ATOM     14  H5  UNL     1     -32.418  -0.893  15.221  1.00  0.00     0.188 HD
BRANCH  10  15
HETATM   15  N1  UNL     1     -31.461  -1.401  19.466  1.00  0.00    -0.312 N
HETATM   16  C11 UNL     1     -30.374  -1.341  20.347  1.00  0.00     0.227 C
HETATM   17  O1  UNL     1     -29.478  -2.213  20.282  1.00  0.00    -0.273 OA
ATOM     18  H1  UNL     1     -32.357  -1.720  19.835  1.00  0.00     0.170 HD
BRANCH  16  19
HETATM   19  C12 UNL     1     -30.255  -0.274  21.358  1.00  0.00     0.167 C
BRANCH  19  20
HETATM   20  C13 UNL     1     -28.855   0.191  21.544  1.00  0.00     0.364 C
BRANCH  20  21
HETATM   21  O2  UNL     1     -28.125  -0.426  22.514  1.00  0.00    -0.367 OA
ATOM     22  H2  UNL     1     -28.358  -0.232  23.414  1.00  0.00     0.212 HD
ENDBRANCH  20  21
BRANCH  20  23
HETATM   23  N2  UNL     1     -28.779   1.657  21.837  1.00  0.00     0.113 N
HETATM   24  C14 UNL     1     -27.366   1.903  22.212  1.00  0.00     0.313 C
BRANCH  23  25
HETATM   25  C15 UNL     1     -29.003   2.363  20.596  1.00  0.00     0.277 C
BRANCH  25  26
HETATM   26  C16 UNL     1     -27.880   2.539  19.672  1.00  0.00     0.058 C
BRANCH  26  27
HETATM   27  C17 UNL     1     -28.206   2.390  18.235  1.00  0.00     0.237 C
BRANCH  27  28
HETATM   28  N3  UNL     1     -27.258   3.097  17.375  1.00  0.00    -0.079 N
HETATM   29  C18 UNL     1     -27.920   3.939  16.396  1.00  0.00     0.271 C
HETATM   30  C19 UNL     1     -26.444   3.942  18.222  1.00  0.00     0.271 C
HETATM   31  C20 UNL     1     -26.372   2.159  16.704  1.00  0.00     0.271 C
ENDBRANCH  27  28
ENDBRANCH  26  27
ENDBRANCH  25  26
ENDBRANCH  23  25
ENDBRANCH  20  23
ENDBRANCH  19  20
ENDBRANCH  16  19
ENDBRANCH  10  15
ENDBRANCH   7   8
ENDBRANCH   5   6
ENDBRANCH   3   4
TORSDOF 12
ENDMDL