MODEL 1
REMARK VINA RESULT: -6.259397947      0.000      0.000
REMARK  8 active torsions:
REMARK  status: ('A' for Active; 'I' for Inactive)
REMARK    1  A    between atoms: C2_2  and  O1_3
REMARK    2  A    between atoms: O1_3  and  C3_4
REMARK    3  A    between atoms: C3_4  and  C4_5
REMARK    4  A    between atoms: C4_5  and  N1_6
REMARK    5  A    between atoms: C8_10  and  C9_11
REMARK    6  A    between atoms: C13_20  and  C14_21
REMARK    7  A    between atoms: C14_21  and  N4_22
REMARK    8  A    between atoms: C17_29  and  C18_30
ROOT
HETATM    1  C9  UNL     1     -29.067   0.304  17.425  1.00  0.00     0.047 A
HETATM    2  C10 UNL     1     -29.161  -0.945  17.944  1.00  0.00     0.048 A
HETATM    3  C11 UNL     1     -30.055  -1.216  18.953  1.00  0.00     0.039 A
HETATM    4  C12 UNL     1     -30.111  -2.494  19.467  1.00  0.00     0.113 A
HETATM    5  N2  UNL     1     -29.327  -3.392  18.959  1.00  0.00    -0.385 N
ATOM      6  H21 UNL     1     -29.369  -4.337  19.339  1.00  0.00     0.157 HD
ATOM      7  H22 UNL     1     -28.670  -3.210  18.200  1.00  0.00     0.157 HD
HETATM    8  N3  UNL     1     -30.963  -2.730  20.451  1.00  0.00    -0.330 N
ATOM      9  H3  UNL     1     -31.027  -3.668  20.848  1.00  0.00     0.168 HD
HETATM   10  C13 UNL     1     -31.744  -1.755  20.932  1.00  0.00     0.111 A
HETATM   11  N5  UNL     1     -31.732  -0.462  20.461  1.00  0.00    -0.337 N
HETATM   12  C15 UNL     1     -32.488   0.548  21.089  1.00  0.00     0.158 C
HETATM   13  C16 UNL     1     -30.878  -0.187  19.449  1.00  0.00     0.072 A
HETATM   14  C17 UNL     1     -30.797   1.082  18.925  1.00  0.00     0.039 A
HETATM   15  N6  UNL     1     -29.864   1.252  17.916  1.00  0.00    -0.352 N
HETATM   16  C20 UNL     1     -29.762   2.625  17.363  1.00  0.00     0.156 C
ENDROOT
BRANCH   1  17
HETATM   17  C8  UNL     1     -28.131   0.638  16.356  1.00  0.00     0.006 A
HETATM   18  C7  UNL     1     -28.485   0.553  15.032  1.00  0.00     0.016 A
HETATM   19  C6  UNL     1     -27.588   0.885  14.024  1.00  0.00     0.018 A
HETATM   20  C5  UNL     1     -26.322   1.305  14.417  1.00  0.00     0.090 A
HETATM   21  N1  UNL     1     -25.963   1.392  15.709  1.00  0.00    -0.364 N
HETATM   22  C21 UNL     1     -26.864   1.060  16.668  1.00  0.00     0.104 A
BRANCH  21  23
HETATM   23  C4  UNL     1     -24.629   1.836  16.020  1.00  0.00     0.154 C
BRANCH  23  24
HETATM   24  C3  UNL     1     -23.688   1.703  14.843  1.00  0.00     0.187 C
BRANCH  24  25
HETATM   25  O1  UNL     1     -22.685   2.680  14.861  1.00  0.00    -0.390 OA
BRANCH  25  26
HETATM   26  C2  UNL     1     -21.763   2.293  15.833  1.00  0.00     0.163 C
HETATM   27  C1  UNL     1     -20.874   1.168  15.383  1.00  0.00     0.033 C
ENDBRANCH  25  26
ENDBRANCH  24  25
ENDBRANCH  23  24
ENDBRANCH  21  23
ENDBRANCH   1  17
BRANCH  14  28
HETATM   28  C18 UNL     1     -31.733   2.128  19.257  1.00  0.00     0.055 C
HETATM   29  C19 UNL     1     -32.905   2.243  18.271  1.00  0.00     0.011 C
ENDBRANCH  14  28
BRANCH  10  30
HETATM   30  C14 UNL     1     -32.721  -2.030  22.031  1.00  0.00     0.306 C
BRANCH  30  31
HETATM   31  N4  UNL     1     -33.068  -3.445  21.925  1.00  0.00    -0.073 N
ATOM     32  H43 UNL     1     -33.393  -3.715  20.996  1.00  0.00     0.274 HD
ATOM     33  H42 UNL     1     -32.258  -4.065  21.959  1.00  0.00     0.274 HD
ATOM     34  H41 UNL     1     -33.749  -3.627  22.661  1.00  0.00     0.274 HD
ENDBRANCH  30  31
ENDBRANCH  10  30
TORSDOF 8
ENDMDL