MODEL 3
REMARK VINA RESULT: -6.814552172      1.255      1.626
REMARK  4 active torsions:
REMARK  status: ('A' for Active; 'I' for Inactive)
REMARK    1  A    between atoms: N1_6  and  C6_7
REMARK    2  A    between atoms: C6_7  and  C7_8
REMARK    3  A    between atoms: C7_8  and  C8_9
REMARK    4  A    between atoms: C9_10  and  N2_11
ROOT
HETATM    1  C8  UNL     1      13.756 -11.176  21.351  1.00  0.00     0.056 A
HETATM    2  C9  UNL     1      12.496 -10.937  21.621  1.00  0.00     0.129 A
HETATM    3  N4  UNL     1      12.221  -9.652  21.081  1.00  0.00    -0.337 N
ATOM      4  H4  UNL     1      11.329  -9.158  21.113  1.00  0.00     0.168 HD
HETATM    5  C11 UNL     1      13.422  -9.187  20.488  1.00  0.00     0.182 A
HETATM    6  N5  UNL     1      14.336 -10.084  20.643  1.00  0.00    -0.353 N
ATOM      7  H5  UNL     1      15.301 -10.022  20.318  1.00  0.00     0.166 HD
ENDROOT
BRANCH   1   8
HETATM    8  C7  UNL     1      14.507 -12.392  21.713  1.00  0.00     0.081 C
BRANCH   8   9
HETATM    9  C6  UNL     1      15.459 -12.835  20.605  1.00  0.00     0.134 C
BRANCH   9  10
HETATM   10  N1  UNL     1      16.742 -12.999  21.170  1.00  0.00    -0.359 N
HETATM   11  C4  UNL     1      17.819 -12.576  20.513  1.00  0.00     0.008 A
HETATM   12  C3  UNL     1      19.080 -12.730  21.069  1.00  0.00     0.033 A
HETATM   13  C5  UNL     1      17.690 -11.959  19.220  1.00  0.00     0.068 C
HETATM   14  C2  UNL     1      19.242 -13.330  22.319  1.00  0.00    -0.041 A
HETATM   15  C1  UNL     1      20.605 -13.490  22.906  1.00  0.00     0.049 C
HETATM   16  C13 UNL     1      18.099 -13.756  22.967  1.00  0.00     0.032 A
HETATM   17  C12 UNL     1      16.847 -13.590  22.390  1.00  0.00     0.110 A
HETATM   18 BR1  UNL     1      18.319 -14.574  24.672  1.00  0.00    -0.049 Br
ENDBRANCH   9  10
ENDBRANCH   8   9
ENDBRANCH   1   8
BRANCH   2  19
HETATM   19  N2  UNL     1      11.646 -11.836  22.318  1.00  0.00    -0.339 N
HETATM   20  C10 UNL     1      11.076 -11.516  23.425  1.00  0.00     0.191 C
HETATM   21  N3  UNL     1      11.327 -10.210  23.945  1.00  0.00    -0.097 NA
ATOM     22  H2  UNL     1      11.481 -12.764  21.927  1.00  0.00     0.167 HD
ENDBRANCH   2  19
TORSDOF 4
ENDMDL