MODEL 3
REMARK VINA RESULT: -6.089969441      1.127      2.178
REMARK  6 active torsions:
REMARK  status: ('A' for Active; 'I' for Inactive)
REMARK    1  A    between atoms: C2_2  and  N1_3
REMARK    2  A    between atoms: N1_3  and  C3_4
REMARK    3  A    between atoms: N1_3  and  C5_6
REMARK    4  A    between atoms: C5_6  and  C6_7
REMARK    5  A    between atoms: C6_7  and  N2_8
REMARK       I    between atoms: C7_10  and  N4_12
REMARK    6  A    between atoms: N4_12  and  C8_13
ROOT
HETATM    1  N2  UNL     1      13.664 -12.788  22.020  1.00  0.00    -0.351 N
ATOM      2  H2  UNL     1      14.004 -12.801  22.981  1.00  0.00     0.163 HD
HETATM    3  C7  UNL     1      14.539 -12.794  21.038  1.00  0.00     0.265 C
HETATM    4  N3  UNL     1      13.941 -12.764  19.714  1.00  0.00    -0.049 NA
HETATM    5  N4  UNL     1      15.839 -12.888  21.210  1.00  0.00    -0.354 NA
ENDROOT
BRANCH   1   6
HETATM    6  C6  UNL     1      12.261 -12.765  21.787  1.00  0.00     0.153 C
BRANCH   6   7
HETATM    7  C5  UNL     1      11.482 -11.810  22.571  1.00  0.00     0.292 C
BRANCH   7   8
HETATM    8  N1  UNL     1      12.025 -10.520  22.862  1.00  0.00     0.089 N
BRANCH   8   9
HETATM    9  C2  UNL     1      11.974  -9.749  21.623  1.00  0.00     0.268 C
HETATM   10  C1  UNL     1      13.399  -9.407  21.161  1.00  0.00     0.037 C
ENDBRANCH   8   9
BRANCH   8  11
HETATM   11  C3  UNL     1      11.448  -9.868  23.988  1.00  0.00     0.268 C
HETATM   12  C4  UNL     1      12.061  -8.477  24.182  1.00  0.00     0.037 C
ENDBRANCH   8  11
ENDBRANCH   7   8
ENDBRANCH   6   7
ENDBRANCH   1   6
BRANCH   5  13
HETATM   13  C8  UNL     1      16.972 -12.974  21.343  1.00  0.00     0.199 A
HETATM   14  C9  UNL     1      17.878 -12.566  20.328  1.00  0.00     0.154 A
HETATM   15  N5  UNL     1      19.200 -12.612  20.460  1.00  0.00    -0.364 N
HETATM   16  C10 UNL     1      20.108 -12.161  19.395  1.00  0.00     0.155 C
HETATM   17  C11 UNL     1      19.697 -13.070  21.615  1.00  0.00     0.127 A
HETATM   18  C12 UNL     1      18.876 -13.489  22.659  1.00  0.00     0.097 A
HETATM   19 BR1  UNL     1      19.619 -14.144  24.285  1.00  0.00    -0.030 Br
HETATM   20  N6  UNL     1      17.547 -13.438  22.511  1.00  0.00    -0.323 N
ATOM     21  H6  UNL     1      16.947 -13.747  23.274  1.00  0.00     0.169 HD
ENDBRANCH   5  13
TORSDOF 6
ENDMDL