MODEL 5
REMARK VINA RESULT: -6.881601449      1.292      1.716
REMARK  6 active torsions:
REMARK  status: ('A' for Active; 'I' for Inactive)
REMARK    1  A    between atoms: N1_1  and  N2_4
REMARK    2  A    between atoms: C1_6  and  C2_7
REMARK    3  A    between atoms: C1_6  and  C9_16
REMARK    4  A    between atoms: C2_7  and  C3_8
REMARK    5  A    between atoms: C3_8  and  N3_9
REMARK    6  A    between atoms: C9_16  and  N4_17
ROOT
HETATM    1  N2  UNL     1      12.803 -14.460  21.837  1.00  0.00    -0.314 N
ATOM      2  H2  UNL     1      11.800 -14.416  22.020  1.00  0.00     0.185 HD
HETATM    3  C1  UNL     1      13.208 -13.453  21.228  1.00  0.00     0.022 C
ENDROOT
BRANCH   3   4
HETATM    4  C2  UNL     1      14.600 -13.243  20.833  1.00  0.00     0.076 C
BRANCH   4   5
HETATM    5  C3  UNL     1      15.474 -12.559  21.829  1.00  0.00     0.133 C
BRANCH   5   6
HETATM    6  N3  UNL     1      16.876 -13.004  21.687  1.00  0.00    -0.365 N
HETATM    7  C4  UNL     1      17.369 -13.979  22.477  1.00  0.00     0.090 A
HETATM    8  C5  UNL     1      18.678 -14.409  22.361  1.00  0.00     0.019 A
HETATM    9  C6  UNL     1      19.514 -13.844  21.426  1.00  0.00     0.022 A
HETATM   10  C7  UNL     1      18.997 -12.847  20.624  1.00  0.00     0.026 A
HETATM   11 BR1  UNL     1      20.126 -12.044  19.321  1.00  0.00    -0.050 Br
HETATM   12  C8  UNL     1      17.679 -12.440  20.768  1.00  0.00     0.109 A
ENDBRANCH   5   6
ENDBRANCH   4   5
ENDBRANCH   3   4
BRANCH   3  13
HETATM   13  C9  UNL     1      12.222 -12.381  20.884  1.00  0.00     0.181 C
BRANCH  13  14
HETATM   14  N4  UNL     1      12.023 -11.429  21.953  1.00  0.00    -0.361 N
HETATM   15  C10 UNL     1      11.267 -11.669  23.039  1.00  0.00     0.090 A
HETATM   16  C11 UNL     1      11.087 -10.747  24.053  1.00  0.00     0.017 A
HETATM   17  C12 UNL     1      11.703  -9.513  23.972  1.00  0.00     0.003 A
HETATM   18  C13 UNL     1      12.475  -9.259  22.872  1.00  0.00     0.017 A
HETATM   19  C14 UNL     1      12.620 -10.215  21.889  1.00  0.00     0.090 A
ENDBRANCH  13  14
ENDBRANCH   3  13
BRANCH   1  20
HETATM   20  N1  UNL     1      13.354 -15.597  22.319  1.00  0.00    -0.345 N
ATOM     21  H12 UNL     1      13.093 -16.394  21.737  1.00  0.00     0.176 HD
ATOM     22  H11 UNL     1      13.954 -15.850  23.104  1.00  0.00     0.176 HD
ENDBRANCH   1  20
TORSDOF 6
ENDMDL