MODEL 5
REMARK VINA RESULT: -7.493767905      1.173      1.321
REMARK  6 active torsions:
REMARK  status: ('A' for Active; 'I' for Inactive)
REMARK    1  A    between atoms: N3_16  and  C11_17
REMARK    2  A    between atoms: C11_17  and  C12_18
REMARK    3  A    between atoms: C12_18  and  C13_19
REMARK    4  A    between atoms: C13_19  and  C14_20
REMARK    5  A    between atoms: C14_20  and  N4_21
REMARK    6  A    between atoms: C16_25  and  C17_26
ROOT
HETATM    1  C1  UNL     1      14.524 -14.238  20.448  1.00  0.00     0.150 C
HETATM    2  N1  UNL     1      15.834 -13.825  20.423  1.00  0.00    -0.378 N
HETATM    3  C2  UNL     1      16.314 -12.949  19.424  1.00  0.00     0.094 A
HETATM    4  C3  UNL     1      17.621 -12.814  19.899  1.00  0.00    -0.020 A
HETATM    5  C4  UNL     1      18.656 -12.074  19.417  1.00  0.00     0.052 A
HETATM    6  C5  UNL     1      19.903 -12.099  20.132  1.00  0.00     0.117 A
HETATM    7  F1  UNL     1      20.919 -11.392  19.696  1.00  0.00    -0.206 F
HETATM    8  C6  UNL     1      20.086 -12.845  21.289  1.00  0.00     0.049 A
HETATM    9  C7  UNL     1      18.956 -13.495  21.589  1.00  0.00    -0.025 A
HETATM   10  C8  UNL     1      17.809 -13.488  20.949  1.00  0.00     0.087 A
HETATM   11  C9  UNL     1      16.952 -14.518  21.971  1.00  0.00     0.115 A
HETATM   12  N2  UNL     1      16.513 -15.380  22.940  1.00  0.00    -0.327 N
ATOM     13  H2  UNL     1      15.561 -15.747  22.945  1.00  0.00     0.165 HD
HETATM   14  C10 UNL     1      17.416 -15.715  23.890  1.00  0.00     0.320 A
HETATM   15  O1  UNL     1      17.412 -16.395  24.831  1.00  0.00    -0.247 OA
HETATM   16  N3  UNL     1      18.413 -14.931  23.336  1.00  0.00    -0.317 N
HETATM   17  C16 UNL     1      18.129 -14.328  22.348  1.00  0.00     0.110 A
HETATM   18  C17 UNL     1      16.596 -14.232  21.386  1.00  0.00     0.112 A
ENDROOT
BRANCH  16  19
HETATM   19  C11 UNL     1      19.726 -14.873  23.942  1.00  0.00     0.129 C
BRANCH  19  20
HETATM   20  C12 UNL     1      19.639 -13.879  25.037  1.00  0.00     0.022 C
BRANCH  20  21
HETATM   21  C13 UNL     1      20.792 -12.993  25.210  1.00  0.00     0.021 C
BRANCH  21  22
HETATM   22  C14 UNL     1      22.042 -13.672  25.709  1.00  0.00     0.120 C
BRANCH  22  23
HETATM   23  N4  UNL     1      23.143 -13.105  24.927  1.00  0.00    -0.388 N
HETATM   24  C15 UNL     1      23.754 -13.842  24.028  1.00  0.00     0.185 C
HETATM   25  N5  UNL     1      23.382 -15.192  23.778  1.00  0.00    -0.097 NA
ATOM     26  H4  UNL     1      23.434 -12.139  25.079  1.00  0.00     0.159 HD
ENDBRANCH  22  23
ENDBRANCH  21  22
ENDBRANCH  20  21
ENDBRANCH  19  20
ENDBRANCH  16  19
TORSDOF 6
ENDMDL