MODEL 3
REMARK VINA RESULT: -7.603926472      1.282      1.467
REMARK  5 active torsions:
REMARK  status: ('A' for Active; 'I' for Inactive)
REMARK    1  A    between atoms: O1_1  and  C1_3
REMARK    2  A    between atoms: C1_3  and  C2_4
REMARK    3  A    between atoms: C1_3  and  C9_13
REMARK    4  A    between atoms: C9_13  and  C10_15
REMARK    5  A    between atoms: C11_16  and  C12_17
ROOT
HETATM    1  C1  UNL     1      16.832 -12.897  21.275  1.00  0.00     0.186 C
ENDROOT
BRANCH   1   2
HETATM    2  O1  UNL     1      16.548 -13.643  22.428  1.00  0.00    -0.388 OA
ATOM      3  H1  UNL     1      16.711 -14.566  22.278  1.00  0.00     0.210 HD
ENDBRANCH   1   2
BRANCH   1   4
HETATM    4  C2  UNL     1      15.805 -11.858  21.061  1.00  0.00     0.052 A
HETATM    5  C3  UNL     1      14.531 -11.743  21.397  1.00  0.00     0.016 A
HETATM    6  C4  UNL     1      13.362 -12.216  22.003  1.00  0.00     0.016 A
HETATM    7  C8  UNL     1      14.509 -10.514  20.775  1.00  0.00     0.044 A
HETATM    8  C5  UNL     1      12.212 -11.466  21.976  1.00  0.00     0.001 A
HETATM    9  C6  UNL     1      12.177 -10.241  21.359  1.00  0.00     0.002 A
HETATM   10  C7  UNL     1      13.334  -9.769  20.758  1.00  0.00     0.030 A
HETATM   11  N1  UNL     1      15.742 -10.596  20.435  1.00  0.00    -0.356 N
ATOM     12  H1  UNL     1      16.398 -10.002  19.928  1.00  0.00     0.166 HD
ENDBRANCH   1   4
BRANCH   1  13
HETATM   13  C9  UNL     1      18.213 -12.292  21.467  1.00  0.00     0.115 C
HETATM   14 BR1  UNL     1      19.449 -12.880  20.129  1.00  0.00    -0.084 Br
BRANCH  13  15
HETATM   15  C10 UNL     1      18.694 -12.790  22.813  1.00  0.00    -0.007 C
HETATM   16  C11 UNL     1      19.971 -13.028  22.937  1.00  0.00     0.008 C
BRANCH  16  17
HETATM   17  C12 UNL     1      20.515 -13.512  24.207  1.00  0.00    -0.036 A
HETATM   18  C13 UNL     1      21.117 -14.733  24.373  1.00  0.00     0.011 A
HETATM   19  C14 UNL     1      21.622 -15.152  25.609  1.00  0.00     0.001 A
HETATM   20  C15 UNL     1      21.534 -14.348  26.723  1.00  0.00     0.000 A
HETATM   21  C16 UNL     1      20.929 -13.122  26.558  1.00  0.00     0.001 A
HETATM   22  C17 UNL     1      20.430 -12.700  25.349  1.00  0.00     0.011 A
ENDBRANCH  16  17
ENDBRANCH  13  15
ENDBRANCH   1  13
TORSDOF 5
ENDMDL