MODEL 5
REMARK VINA RESULT: -5.440025876      4.009      5.638
REMARK  5 active torsions:
REMARK  status: ('A' for Active; 'I' for Inactive)
REMARK    1  A    between atoms: N1_5  and  C5_6
REMARK    2  A    between atoms: C5_6  and  C6_7
REMARK    3  A    between atoms: C6_7  and  C7_8
REMARK    4  A    between atoms: N2_12  and  C9_13
REMARK    5  A    between atoms: C9_13  and  C10_14
ROOT
HETATM    1  C1  UNL     1      11.862 -11.288  22.081  1.00  0.00     0.037 C
HETATM    2  C2  UNL     1      12.962 -11.873  21.214  1.00  0.00     0.059 C
HETATM    3  C3  UNL     1      13.260 -10.857  20.130  1.00  0.00     0.037 C
HETATM    4  C4  UNL     1      12.472 -13.160  20.630  1.00  0.00     0.153 C
HETATM    5  N1  UNL     1      13.465 -14.172  20.505  1.00  0.00    -0.355 N
HETATM    6  C8  UNL     1      14.843 -13.890  20.779  1.00  0.00     0.188 C
HETATM    7  S1  UNL     1      16.054 -14.920  20.402  1.00  0.00    -0.039 SA
HETATM    8  N2  UNL     1      15.181 -12.643  21.415  1.00  0.00    -0.260 N
HETATM    9  N3  UNL     1      14.134 -11.991  22.040  1.00  0.00    -0.125 NA
ENDROOT
BRANCH   5  10
HETATM   10  C5  UNL     1      13.098 -15.510  20.097  1.00  0.00     0.126 C
BRANCH  10  11
HETATM   11  C6  UNL     1      12.545 -16.322  21.242  1.00  0.00     0.031 C
BRANCH  11  12
HETATM   12  C7  UNL     1      11.446 -17.228  20.715  1.00  0.00     0.086 C
HETATM   13 BR1  UNL     1      11.012 -16.755  18.881  1.00  0.00    -0.096 Br
ENDBRANCH  11  12
ENDBRANCH  10  11
ENDBRANCH   5  10
BRANCH   8  14
HETATM   14  C9  UNL     1      16.551 -12.189  21.347  1.00  0.00     0.260 C
BRANCH  14  15
HETATM   15  C10 UNL     1      16.915 -11.572  20.069  1.00  0.00     0.193 C
HETATM   16  O1  UNL     1      16.315 -10.546  19.688  1.00  0.00    -0.647 OA
HETATM   17  O2  UNL     1      17.908 -12.110  19.291  1.00  0.00    -0.647 OA
ENDBRANCH  14  15
ENDBRANCH   8  14
TORSDOF 5
ENDMDL