MODEL 1
REMARK VINA RESULT: -6.986314432      0.000      0.000
REMARK  5 active torsions:
REMARK  status: ('A' for Active; 'I' for Inactive)
REMARK    1  A    between atoms: C2_4  and  C3_5
REMARK    2  A    between atoms: C3_5  and  O1_6
REMARK    3  A    between atoms: O1_6  and  C4_7
REMARK    4  A    between atoms: C8_13  and  C9_14
REMARK    5  A    between atoms: N3_15  and  N4_17
ROOT
HETATM    1  C4  UNL     1      16.326 -12.116  20.226  1.00  0.00     0.088 A
HETATM    2  C5  UNL     1      15.691 -10.902  20.111  1.00  0.00     0.068 A
HETATM    3  C6  UNL     1      14.416 -10.680  20.624  1.00  0.00     0.046 A
HETATM    4  N2  UNL     1      13.603  -9.620  20.642  1.00  0.00    -0.364 N
ATOM      5  H2  UNL     1      13.821  -8.710  20.236  1.00  0.00     0.165 HD
HETATM    6  C7  UNL     1      12.453  -9.927  21.274  1.00  0.00     0.102 A
HETATM    7  C8  UNL     1      12.491 -11.211  21.686  1.00  0.00     0.009 A
HETATM    8  C10 UNL     1      13.753 -11.694  21.269  1.00  0.00     0.005 A
HETATM    9  C11 UNL     1      14.375 -12.911  21.389  1.00  0.00     0.036 A
HETATM   10  C12 UNL     1      15.638 -13.120  20.879  1.00  0.00     0.045 A
HETATM   11 BR1  UNL     1      16.391 -14.862  21.116  1.00  0.00    -0.048 Br
ENDROOT
BRANCH   7  12
HETATM   12  C9  UNL     1      11.540 -12.030  22.399  1.00  0.00     0.122 C
HETATM   13  N3  UNL     1      10.800 -11.591  23.315  1.00  0.00    -0.297 N
ATOM     14  H3  UNL     1      10.186 -12.300  23.716  1.00  0.00     0.187 HD
BRANCH  13  15
HETATM   15  N4  UNL     1      10.650 -10.368  23.879  1.00  0.00    -0.250 N
HETATM   16  N5  UNL     1      11.361 -10.028  24.871  1.00  0.00    -0.331 N
ATOM     17  H52 UNL     1      12.046 -10.690  25.235  1.00  0.00     0.178 HD
ATOM     18  H51 UNL     1      11.249  -9.107  25.297  1.00  0.00     0.178 HD
ATOM     19  H4  UNL     1       9.960  -9.717  23.504  1.00  0.00     0.207 HD
ENDBRANCH  13  15
ENDBRANCH   7  12
BRANCH   1  20
HETATM   20  O1  UNL     1      17.582 -12.397  19.742  1.00  0.00    -0.345 OA
BRANCH  20  21
HETATM   21  C3  UNL     1      18.801 -11.951  20.245  1.00  0.00     0.219 C
BRANCH  21  22
HETATM   22  C2  UNL     1      19.867 -12.973  20.294  1.00  0.00     0.081 C
HETATM   23  N1  UNL     1      20.149 -13.561  21.415  1.00  0.00    -0.404 N
HETATM   24  C1  UNL     1      19.462 -13.258  22.628  1.00  0.00     0.145 C
ATOM     25  H1  UNL     1      20.888 -14.264  21.430  1.00  0.00     0.158 HD
ENDBRANCH  21  22
ENDBRANCH  20  21
ENDBRANCH   1  20
TORSDOF 5
ENDMDL