MODEL 5
REMARK VINA RESULT: -5.520889484      4.486      7.241
REMARK  6 active torsions:
REMARK  status: ('A' for Active; 'I' for Inactive)
REMARK    1  A    between atoms: N1_2  and  C3_4
REMARK    2  A    between atoms: N1_2  and  C5_8
REMARK    3  A    between atoms: C3_4  and  C4_5
REMARK    4  A    between atoms: C4_5  and  O1_6
REMARK    5  A    between atoms: C5_8  and  C6_9
REMARK    6  A    between atoms: C6_9  and  N2_10
ROOT
HETATM    1  C5  UNL     1      20.636 -14.507  24.772  1.00  0.00     0.158 C
HETATM    2  C7  UNL     1      20.252 -13.131  24.311  1.00  0.00     0.079 C
HETATM    3  C8  UNL     1      19.980 -13.701  22.938  1.00  0.00     0.071 C
HETATM    4  C9  UNL     1      20.546 -15.013  23.356  1.00  0.00     0.079 C
HETATM    5  O2  UNL     1      20.674 -13.005  21.958  1.00  0.00    -0.373 OA
HETATM    6  C10 UNL     1      19.776 -12.696  20.944  1.00  0.00     0.137 C
HETATM    7  C11 UNL     1      19.303 -13.983  20.342  1.00  0.00     0.034 C
HETATM    8  C12 UNL     1      18.347 -14.602  21.377  1.00  0.00     0.011 C
HETATM    9  C13 UNL     1      18.538 -13.662  22.543  1.00  0.00     0.037 C
HETATM   10  C14 UNL     1      18.538 -12.322  21.782  1.00  0.00     0.093 C
HETATM   11 BR1  UNL     1      17.001 -12.143  20.661  1.00  0.00    -0.088 Br
ENDROOT
BRANCH   1  12
HETATM   12  N1  UNL     1      21.934 -14.541  25.383  1.00  0.00    -0.062 N
HETATM   13  C1  UNL     1      21.774 -14.670  26.816  1.00  0.00     0.273 C
HETATM   14  C2  UNL     1      22.780 -15.593  24.915  1.00  0.00     0.273 C
BRANCH  12  15
HETATM   15  C3  UNL     1      22.587 -13.271  25.142  1.00  0.00     0.263 C
BRANCH  15  16
HETATM   16  C4  UNL     1      23.739 -13.394  24.168  1.00  0.00     0.192 C
BRANCH  16  17
HETATM   17  O1  UNL     1      24.673 -12.405  24.556  1.00  0.00    -0.399 OA
ATOM     18  H1  UNL     1      25.046 -12.713  25.373  1.00  0.00     0.209 HD
ENDBRANCH  16  17
ENDBRANCH  15  16
ENDBRANCH  12  15
ENDBRANCH   1  12
BRANCH   1  19
HETATM   19  C6  UNL     1      19.582 -15.138  25.624  1.00  0.00     0.269 C
BRANCH  19  20
HETATM   20  N2  UNL     1      19.067 -16.385  25.101  1.00  0.00    -0.077 N
ATOM     21  H23 UNL     1      19.068 -17.104  25.825  1.00  0.00     0.274 HD
ATOM     22  H22 UNL     1      18.064 -16.312  24.930  1.00  0.00     0.274 HD
ATOM     23  H21 UNL     1      19.549 -16.717  24.266  1.00  0.00     0.274 HD
ENDBRANCH  19  20
ENDBRANCH   1  19
TORSDOF 6
ENDMDL