MODEL 4
REMARK VINA RESULT: -8.385277745      1.180      2.208
REMARK  14 active torsions:
REMARK  status: ('A' for Active; 'I' for Inactive)
REMARK    1  A    between atoms: N1_1  and  C1_4
REMARK    2  A    between atoms: C2_7  and  C3_8
REMARK    3  A    between atoms: C3_8  and  C4_9
REMARK    4  A    between atoms: C4_9  and  C5_10
REMARK    5  A    between atoms: C5_10  and  N3_11
REMARK    6  A    between atoms: C9_15  and  C10_16
REMARK    7  A    between atoms: C10_16  and  C11_17
REMARK    8  A    between atoms: C12_18  and  C13_19
REMARK    9  A    between atoms: C13_19  and  C14_20
REMARK   10  A    between atoms: C14_20  and  C15_21
REMARK   11  A    between atoms: C16_22  and  C17_23
REMARK   12  A    between atoms: C17_23  and  C18_24
REMARK   13  A    between atoms: C18_24  and  N4_25
REMARK   14  A    between atoms: N6_32  and  N7_33
ROOT
HETATM    1  N3  UNL     1      26.078  -1.803  14.386  1.00  0.00    -0.366 N
HETATM    2  C6  UNL     1      25.967  -1.857  15.741  1.00  0.00     0.090 A
HETATM    3  C7  UNL     1      26.985  -1.415  16.545  1.00  0.00     0.018 A
HETATM    4  C8  UNL     1      28.111  -0.920  15.911  1.00  0.00     0.011 A
HETATM    5  C9  UNL     1      28.202  -0.875  14.543  1.00  0.00    -0.032 A
HETATM    6  C22 UNL     1      27.156  -1.328  13.758  1.00  0.00     0.098 A
ENDROOT
BRANCH   1   7
HETATM    7  C5  UNL     1      24.966  -2.282  13.585  1.00  0.00     0.128 C
BRANCH   7   8
HETATM    8  C4  UNL     1      23.653  -1.634  13.963  1.00  0.00     0.028 C
BRANCH   8   9
HETATM    9  C3  UNL     1      22.743  -2.656  14.528  1.00  0.00     0.082 C
BRANCH   9  10
HETATM   10  C2  UNL     1      21.913  -2.275  15.661  1.00  0.00     0.137 A
HETATM   11  N2  UNL     1      20.793  -1.498  15.524  1.00  0.00    -0.176 N
HETATM   12  C1  UNL     1      20.267  -1.275  16.715  1.00  0.00     0.693 A
ATOM     13  H2  UNL     1      20.422  -1.147  14.641  1.00  0.00     0.185 HD
HETATM   14  N8  UNL     1      21.019  -1.888  17.637  1.00  0.00    -0.110 N
HETATM   15  N6  UNL     1      22.016  -2.490  16.975  1.00  0.00    -0.176 N
ATOM     16  H8  UNL     1      20.863  -1.895  18.645  1.00  0.00     0.208 HD
BRANCH  12  17
HETATM   17  N1  UNL     1      19.198  -0.584  17.016  1.00  0.00    -0.233 N
ATOM     18  H12 UNL     1      19.239   0.355  17.410  1.00  0.00     0.174 HD
ATOM     19  H11 UNL     1      18.220  -0.852  16.912  1.00  0.00     0.174 HD
ENDBRANCH  12  17
BRANCH  15  20
HETATM   20  N7  UNL     1      23.005  -3.195  17.656  1.00  0.00    -0.322 N
ATOM     21  H72 UNL     1      23.964  -3.222  17.309  1.00  0.00     0.179 HD
ATOM     22  H71 UNL     1      22.910  -3.755  18.504  1.00  0.00     0.179 HD
ENDBRANCH  15  20
ENDBRANCH   9  10
ENDBRANCH   8   9
ENDBRANCH   7   8
ENDBRANCH   1   7
BRANCH   5  23
HETATM   23  C10 UNL     1      29.431  -0.334  13.920  1.00  0.00     0.133 C
BRANCH  23  24
HETATM   24  C11 UNL     1      30.493  -0.124  14.928  1.00  0.00    -0.102 C
HETATM   25  C12 UNL     1      31.357   0.045  15.757  1.00  0.00    -0.105 C
BRANCH  25  26
HETATM   26  C13 UNL     1      32.403   0.244  16.754  1.00  0.00     0.106 C
BRANCH  26  27
HETATM   27  C14 UNL     1      31.913  -0.066  18.162  1.00  0.00     0.106 C
BRANCH  27  28
HETATM   28  C15 UNL     1      31.029   0.997  18.634  1.00  0.00    -0.106 C
HETATM   29  C16 UNL     1      30.288   1.878  19.032  1.00  0.00    -0.105 C
BRANCH  29  30
HETATM   30  C17 UNL     1      29.381   2.924  19.493  1.00  0.00     0.115 C
BRANCH  30  31
HETATM   31  C18 UNL     1      29.367   2.963  20.994  1.00  0.00     0.160 C
BRANCH  31  32
HETATM   32  N4  UNL     1      30.344   3.906  21.485  1.00  0.00    -0.303 N
HETATM   33  C19 UNL     1      31.617   3.605  21.788  1.00  0.00     0.111 A
HETATM   34  C20 UNL     1      32.245   4.776  22.226  1.00  0.00     0.037 A
HETATM   35  C21 UNL     1      31.279   5.749  22.159  1.00  0.00     0.108 A
HETATM   36  N5  UNL     1      30.143   5.187  21.707  1.00  0.00    -0.310 N
ATOM     37  H5  UNL     1      29.262   5.679  21.558  1.00  0.00     0.186 HD
ENDBRANCH  31  32
ENDBRANCH  30  31
ENDBRANCH  29  30
ENDBRANCH  27  28
ENDBRANCH  26  27
ENDBRANCH  25  26
ENDBRANCH  23  24
ENDBRANCH   5  23
TORSDOF 14
ENDMDL