MODEL 4
REMARK VINA RESULT: -6.500451174      2.258      3.790
REMARK  11 active torsions:
REMARK  status: ('A' for Active; 'I' for Inactive)
REMARK    1  A    between atoms: C3_4  and  C4_5
REMARK    2  A    between atoms: C5_6  and  C6_7
REMARK    3  A    between atoms: C6_7  and  O1_9
REMARK    4  A    between atoms: C6_7  and  C8_11
REMARK    5  A    between atoms: C8_11  and  C9_12
REMARK    6  A    between atoms: C9_12  and  N2_13
REMARK    7  A    between atoms: N2_13  and  C12_16
REMARK    8  A    between atoms: C12_16  and  C13_17
REMARK    9  A    between atoms: C13_17  and  C14_18
REMARK   10  A    between atoms: C14_18  and  N3_19
REMARK   11  A    between atoms: C22_30  and  N6_31
ROOT
HETATM    1  C8  UNL     1      26.677  -4.525  18.056  1.00  0.00     0.079 C
ENDROOT
BRANCH   1   2
HETATM    2  C6  UNL     1      25.357  -4.751  18.801  1.00  0.00     0.119 C
HETATM    3  C7  UNL     1      24.993  -6.219  18.805  1.00  0.00     0.060 C
BRANCH   2   4
HETATM    4  C5  UNL     1      24.357  -3.970  18.070  1.00  0.00    -0.063 C
HETATM    5  C4  UNL     1      23.543  -3.331  17.450  1.00  0.00    -0.062 C
BRANCH   5   6
HETATM    6  C3  UNL     1      22.590  -2.576  16.692  1.00  0.00     0.038 A
HETATM    7  C2  UNL     1      22.767  -2.262  15.361  1.00  0.00     0.130 A
HETATM    8  N1  UNL     1      21.884  -1.561  14.647  1.00  0.00    -0.305 N
HETATM    9  C1  UNL     1      22.147  -1.277  13.262  1.00  0.00     0.177 C
HETATM   10  N7  UNL     1      20.771  -1.142  15.259  1.00  0.00    -0.284 N
HETATM   11  C22 UNL     1      20.539  -1.416  16.557  1.00  0.00     0.114 A
ATOM     12  H7  UNL     1      20.083  -0.603  14.732  1.00  0.00     0.188 HD
HETATM   13  C21 UNL     1      21.447  -2.146  17.318  1.00  0.00     0.071 A
BRANCH  11  14
HETATM   14  N6  UNL     1      19.456  -0.993  17.101  1.00  0.00    -0.384 N
ATOM     15  H62 UNL     1      18.561  -1.226  16.670  1.00  0.00     0.157 HD
ATOM     16  H61 UNL     1      19.508  -0.434  17.953  1.00  0.00     0.157 HD
ENDBRANCH  11  14
ENDBRANCH   5   6
ENDBRANCH   2   4
BRANCH   2  17
HETATM   17  O1  UNL     1      25.555  -4.274  20.095  1.00  0.00    -0.378 OA
ATOM     18  H1  UNL     1      24.990  -4.703  20.727  1.00  0.00     0.211 HD
ENDBRANCH   2  17
ENDBRANCH   1   2
BRANCH   1  19
HETATM   19  C9  UNL     1      27.154  -3.158  18.433  1.00  0.00     0.240 C
BRANCH  19  20
HETATM   20  N2  UNL     1      27.993  -2.538  17.440  1.00  0.00    -0.074 N
HETATM   21  C10 UNL     1      29.382  -2.818  17.783  1.00  0.00     0.272 C
HETATM   22  C11 UNL     1      27.710  -3.097  16.137  1.00  0.00     0.272 C
BRANCH  20  23
HETATM   23  C12 UNL     1      27.805  -1.125  17.512  1.00  0.00     0.238 C
BRANCH  23  24
HETATM   24  C13 UNL     1      29.022  -0.367  17.985  1.00  0.00     0.056 C
BRANCH  24  25
HETATM   25  C14 UNL     1      28.541   0.614  19.058  1.00  0.00     0.249 C
BRANCH  25  26
HETATM   26  N3  UNL     1      29.248   0.433  20.297  1.00  0.00    -0.009 N
HETATM   27  C15 UNL     1      29.296   1.620  21.109  1.00  0.00     0.283 C
HETATM   28  C16 UNL     1      30.576  -0.093  20.081  1.00  0.00     0.267 C
HETATM   29  C17 UNL     1      30.811  -0.876  21.354  1.00  0.00     0.160 C
HETATM   30  N4  UNL     1      29.465  -1.353  21.687  1.00  0.00    -0.320 N
HETATM   31  C18 UNL     1      28.775  -2.272  22.382  1.00  0.00     0.111 A
HETATM   32  C20 UNL     1      28.552  -0.566  21.054  1.00  0.00     0.285 A
HETATM   33  C19 UNL     1      27.421  -2.088  22.203  1.00  0.00     0.108 A
HETATM   34  N5  UNL     1      27.331  -1.017  21.370  1.00  0.00    -0.330 N
ATOM     35  H5  UNL     1      26.457  -0.613  21.034  1.00  0.00     0.168 HD
ENDBRANCH  25  26
ENDBRANCH  24  25
ENDBRANCH  23  24
ENDBRANCH  20  23
ENDBRANCH  19  20
ENDBRANCH   1  19
TORSDOF 11
ENDMDL