MODEL 5
REMARK VINA RESULT: -6.017016139      2.018      3.308
REMARK  14 active torsions:
REMARK  status: ('A' for Active; 'I' for Inactive)
REMARK    1  A    between atoms: C2_2  and  C3_3
REMARK    2  A    between atoms: C3_3  and  C4_4
REMARK    3  A    between atoms: C4_4  and  C5_5
REMARK    4  A    between atoms: C5_5  and  C6_6
REMARK    5  A    between atoms: C6_6  and  C7_7
REMARK    6  A    between atoms: C10_10  and  C11_11
REMARK    7  A    between atoms: C11_11  and  N1_12
REMARK    8  A    between atoms: C13_16  and  C14_17
REMARK    9  A    between atoms: C15_18  and  C16_19
REMARK   10  A    between atoms: C17_20  and  C18_21
REMARK   11  A    between atoms: C18_21  and  O1_22
REMARK   12  A    between atoms: C21_26  and  N3_27
REMARK   13  A    between atoms: N3_27  and  N4_29
REMARK   14  A    between atoms: C22_36  and  N7_37
ROOT
HETATM    1  C7  UNL     1      24.173  -2.405  16.038  1.00  0.00    -0.015 C
HETATM    2  C8  UNL     1      25.345  -1.939  15.509  1.00  0.00     0.011 C
HETATM    3  C9  UNL     1      26.578  -1.787  16.143  1.00  0.00     0.013 C
HETATM    4  C10 UNL     1      27.103  -2.598  17.159  1.00  0.00     0.006 C
HETATM    5  C21 UNL     1      26.338  -3.265  18.078  1.00  0.00     0.130 C
HETATM    6  N6  UNL     1      25.018  -3.590  18.023  1.00  0.00    -0.327 N
ATOM      7  H6  UNL     1      24.725  -4.346  18.643  1.00  0.00     0.169 HD
HETATM    8  C22 UNL     1      24.053  -3.058  17.272  1.00  0.00     0.106 C
ENDROOT
BRANCH   4   9
HETATM    9  C11 UNL     1      28.552  -2.752  17.222  1.00  0.00     0.172 C
BRANCH   9  10
HETATM   10  N1  UNL     1      29.290  -1.513  17.276  1.00  0.00    -0.340 N
HETATM   11  C12 UNL     1      30.017  -0.926  16.319  1.00  0.00     0.184 A
HETATM   12  N2  UNL     1      30.560   0.226  16.809  1.00  0.00    -0.344 N
HETATM   13  C13 UNL     1      30.168   0.364  18.093  1.00  0.00     0.111 A
ATOM     14  H2  UNL     1      31.158   0.871  16.294  1.00  0.00     0.167 HD
HETATM   15  C19 UNL     1      29.379  -0.731  18.359  1.00  0.00     0.044 A
HETATM   16  C20 UNL     1      28.732  -0.963  19.674  1.00  0.00     0.071 C
BRANCH  13  17
HETATM   17  C14 UNL     1      30.478   1.406  19.023  1.00  0.00    -0.033 C
HETATM   18  C15 UNL     1      30.725   2.279  19.821  1.00  0.00    -0.008 C
BRANCH  18  19
HETATM   19  C16 UNL     1      30.997   3.288  20.774  1.00  0.00    -0.013 C
HETATM   20  C17 UNL     1      31.253   4.144  21.584  1.00  0.00    -0.067 C
BRANCH  20  21
HETATM   21  C18 UNL     1      31.583   5.193  22.551  1.00  0.00     0.258 C
BRANCH  21  22
HETATM   22  O1  UNL     1      32.287   4.704  23.649  1.00  0.00    -0.389 OA
ATOM     23  H1  UNL     1      31.762   4.125  24.190  1.00  0.00     0.210 HD
ENDBRANCH  21  22
ENDBRANCH  20  21
ENDBRANCH  18  19
ENDBRANCH  13  17
ENDBRANCH   9  10
ENDBRANCH   4   9
BRANCH   5  24
HETATM   24  N3  UNL     1      26.945  -3.634  19.154  1.00  0.00    -0.271 N
ATOM     25  H3  UNL     1      27.963  -3.689  19.117  1.00  0.00     0.190 HD
BRANCH  24  26
HETATM   26  N4  UNL     1      26.345  -3.962  20.347  1.00  0.00    -0.248 N
HETATM   27  N5  UNL     1      26.701  -3.430  21.443  1.00  0.00    -0.331 N
ATOM     28  H52 UNL     1      27.454  -2.742  21.420  1.00  0.00     0.178 HD
ATOM     29  H51 UNL     1      26.256  -3.672  22.328  1.00  0.00     0.178 HD
ATOM     30  H4  UNL     1      25.593  -4.651  20.352  1.00  0.00     0.207 HD
ENDBRANCH  24  26
ENDBRANCH   5  24
BRANCH   1  31
HETATM   31  C6  UNL     1      22.901  -2.275  15.311  1.00  0.00     0.042 C
BRANCH  31  32
HETATM   32  C5  UNL     1      22.618  -0.963  14.689  1.00  0.00     0.005 C
BRANCH  32  33
HETATM   33  C4  UNL     1      21.312  -0.357  15.031  1.00  0.00     0.000 C
BRANCH  33  34
HETATM   34  C3  UNL     1      20.404  -1.284  15.824  1.00  0.00    -0.000 C
BRANCH  34  35
HETATM   35  C2  UNL     1      19.805  -0.560  17.025  1.00  0.00    -0.005 C
HETATM   36  C1  UNL     1      19.912  -1.365  18.278  1.00  0.00     0.005 C
ENDBRANCH  34  35
ENDBRANCH  33  34
ENDBRANCH  32  33
ENDBRANCH  31  32
ENDBRANCH   1  31
BRANCH   8  37
HETATM   37  N7  UNL     1      22.838  -3.135  17.698  1.00  0.00    -0.385 N
ATOM     38  H72 UNL     1      22.396  -2.285  18.049  1.00  0.00     0.157 HD
ATOM     39  H71 UNL     1      22.442  -4.074  17.636  1.00  0.00     0.157 HD
ENDBRANCH   8  37
TORSDOF 14
ENDMDL