MODEL 3
REMARK VINA RESULT: -6.124711896      3.263      8.287
REMARK  13 active torsions:
REMARK  status: ('A' for Active; 'I' for Inactive)
REMARK    1  A    between atoms: C3_3  and  C4_4
REMARK    2  A    between atoms: C4_4  and  C5_5
REMARK    3  A    between atoms: C5_5  and  C6_6
REMARK    4  A    between atoms: C6_6  and  C7_7
REMARK    5  A    between atoms: C8_8  and  C9_9
REMARK    6  A    between atoms: C9_9  and  N1_10
REMARK    7  A    between atoms: C15_16  and  N2_17
REMARK    8  A    between atoms: N2_17  and  N3_18
REMARK    9  A    between atoms: C16_21  and  O1_22
REMARK   10  A    between atoms: C17_24  and  O2_25
REMARK   11  A    between atoms: C18_27  and  N4_28
REMARK   12  A    between atoms: N4_28  and  C21_31
REMARK   13  A    between atoms: N5_34  and  O3_35
ROOT
HETATM    1  C1  UNL     1      32.102   6.383  23.274  1.00  0.00     0.012 C
HETATM    2  C2  UNL     1      31.779   5.462  22.568  1.00  0.00    -0.117 C
HETATM    3  C3  UNL     1      31.398   4.345  21.728  1.00  0.00     0.093 C
ENDROOT
BRANCH   3   4
HETATM    4  C4  UNL     1      29.893   4.257  21.591  1.00  0.00     0.013 C
BRANCH   4   5
HETATM    5  C5  UNL     1      29.476   2.904  21.071  1.00  0.00     0.013 C
BRANCH   5   6
HETATM    6  C6  UNL     1      29.254   2.933  19.571  1.00  0.00     0.094 C
BRANCH   6   7
HETATM    7  C7  UNL     1      30.116   1.980  18.883  1.00  0.00    -0.105 C
HETATM    8  C8  UNL     1      30.812   1.190  18.334  1.00  0.00    -0.086 C
BRANCH   8   9
HETATM    9  C9  UNL     1      31.652   0.204  17.665  1.00  0.00     0.221 C
BRANCH   9  10
HETATM   10  N1  UNL     1      30.916  -0.406  16.582  1.00  0.00    -0.355 N
HETATM   11  C10 UNL     1      31.562  -0.805  15.473  1.00  0.00     0.094 A
HETATM   12  C11 UNL     1      30.904  -1.392  14.410  1.00  0.00     0.049 A
HETATM   13  C12 UNL     1      29.511  -1.571  14.508  1.00  0.00     0.070 A
HETATM   14  C13 UNL     1      28.851  -1.160  15.648  1.00  0.00     0.010 A
HETATM   15  N5  UNL     1      29.034  -2.187  13.318  1.00  0.00    -0.226 N
HETATM   16  C14 UNL     1      29.585  -0.576  16.678  1.00  0.00     0.102 A
HETATM   17  C15 UNL     1      27.439  -1.223  16.002  1.00  0.00     0.166 C
HETATM   18  C16 UNL     1      26.604  -2.189  15.238  1.00  0.00     0.176 C
HETATM   19  C17 UNL     1      26.724  -1.966  13.724  1.00  0.00     0.201 C
HETATM   20  C18 UNL     1      27.808  -2.859  13.135  1.00  0.00     0.348 C
BRANCH  17  21
HETATM   21  N2  UNL     1      27.274  -1.560  17.423  1.00  0.00    -0.136 NA
BRANCH  21  22
HETATM   22  N3  UNL     1      25.929  -1.854  17.716  1.00  0.00    -0.348 N
ATOM     23  H32 UNL     1      25.471  -2.728  17.457  1.00  0.00     0.172 HD
ATOM     24  H31 UNL     1      25.488  -1.082  18.215  1.00  0.00     0.172 HD
ENDBRANCH  21  22
ENDBRANCH  17  21
BRANCH  18  25
HETATM   25  O1  UNL     1      26.883  -3.485  15.611  1.00  0.00    -0.391 OA
ATOM     26  H1  UNL     1      26.553  -3.666  16.484  1.00  0.00     0.210 HD
ENDBRANCH  18  25
BRANCH  19  27
HETATM   27  O2  UNL     1      27.039  -0.613  13.586  1.00  0.00    -0.389 OA
ATOM     28  H2  UNL     1      26.205  -0.162  13.638  1.00  0.00     0.210 HD
ENDBRANCH  19  27
BRANCH  20  29
HETATM   29  N4  UNL     1      27.502  -3.422  11.895  1.00  0.00    -0.039 N
HETATM   30  C19 UNL     1      28.076  -4.785  11.861  1.00  0.00     0.276 C
HETATM   31  C20 UNL     1      26.047  -3.664  11.862  1.00  0.00     0.276 C
BRANCH  29  32
HETATM   32  C21 UNL     1      27.833  -2.826  10.669  1.00  0.00     0.331 C
HETATM   33  C22 UNL     1      27.183  -3.426   9.486  1.00  0.00    -0.089 C
HETATM   34  C23 UNL     1      26.668  -3.902   8.512  1.00  0.00     0.013 C
ENDBRANCH  29  32
ENDBRANCH  20  29
BRANCH  15  35
HETATM   35  O3  UNL     1      29.929  -2.064  12.293  1.00  0.00    -0.285 OA
ATOM     36  H3  UNL     1      29.565  -2.370  11.471  1.00  0.00     0.245 HD
ENDBRANCH  15  35
ENDBRANCH   9  10
ENDBRANCH   8   9
ENDBRANCH   6   7
ENDBRANCH   5   6
ENDBRANCH   4   5
ENDBRANCH   3   4
TORSDOF 13
ENDMDL