MODEL 4
REMARK VINA RESULT: -6.725376871      1.917      2.513
REMARK  10 active torsions:
REMARK  status: ('A' for Active; 'I' for Inactive)
REMARK    1  A    between atoms: C2_2  and  C3_3
REMARK    2  A    between atoms: N1_6  and  C6_7
REMARK    3  A    between atoms: C6_7  and  C7_8
REMARK    4  A    between atoms: C8_9  and  C9_10
REMARK    5  A    between atoms: C11_12  and  C12_13
REMARK    6  A    between atoms: C12_13  and  C13_14
REMARK    7  A    between atoms: C13_14  and  N2_15
REMARK    8  A    between atoms: C17_21  and  N4_22
REMARK       I    between atoms: N4_22  and  C18_24
REMARK    9  A    between atoms: C21_32  and  C22_33
REMARK   10  A    between atoms: C23_34  and  N8_35
ROOT
HETATM    1  C7  UNL     1      27.439  -2.637  15.065  1.00  0.00     0.075 A
HETATM    2  C8  UNL     1      27.719  -2.882  13.759  1.00  0.00    -0.006 A
HETATM    3  C11 UNL     1      26.804  -2.679  12.705  1.00  0.00     0.036 A
HETATM    4  N3  UNL     1      25.586  -2.210  12.996  1.00  0.00    -0.194 N
ATOM      5  H3  UNL     1      24.901  -2.049  12.259  1.00  0.00     0.184 HD
HETATM    6  C17 UNL     1      25.287  -1.959  14.269  1.00  0.00     0.687 A
HETATM    7  N7  UNL     1      26.165  -2.157  15.284  1.00  0.00    -0.185 N
HETATM    8  C19 UNL     1      25.726  -1.900  16.622  1.00  0.00     0.175 C
ENDROOT
BRANCH   1   9
HETATM    9  C6  UNL     1      28.240  -2.888  16.220  1.00  0.00     0.126 C
BRANCH   9  10
HETATM   10  N1  UNL     1      29.354  -2.127  16.649  1.00  0.00    -0.339 N
HETATM   11  C5  UNL     1      30.629  -2.374  16.305  1.00  0.00     0.096 A
HETATM   12  C4  UNL     1      31.663  -1.536  16.641  1.00  0.00     0.026 A
HETATM   13  C3  UNL     1      31.451  -0.381  17.359  1.00  0.00    -0.037 A
HETATM   14  C21 UNL     1      30.156  -0.112  17.719  1.00  0.00     0.041 A
HETATM   15  C20 UNL     1      29.174  -0.990  17.350  1.00  0.00     0.117 A
BRANCH  13  16
HETATM   16  C2  UNL     1      32.546   0.542  17.737  1.00  0.00     0.036 C
HETATM   17  C1  UNL     1      33.897  -0.137  17.715  1.00  0.00     0.010 C
ENDBRANCH  13  16
BRANCH  14  18
HETATM   18  C22 UNL     1      29.818   1.083  18.486  1.00  0.00    -0.042 C
HETATM   19  C23 UNL     1      29.553   2.082  19.105  1.00  0.00     0.009 C
BRANCH  19  20
HETATM   20  N8  UNL     1      29.266   3.249  19.815  1.00  0.00    -0.359 N
ATOM     21  H82 UNL     1      29.985   2.528  19.753  1.00  0.00     0.166 HD
ATOM     22  H81 UNL     1      29.042   4.103  20.326  1.00  0.00     0.166 HD
ENDBRANCH  19  20
ENDBRANCH  14  18
ENDBRANCH   9  10
ENDBRANCH   1   9
BRANCH   2  23
HETATM   23  C9  UNL     1      29.067  -3.288  13.315  1.00  0.00     0.038 C
HETATM   24  C10 UNL     1      29.877  -2.042  12.920  1.00  0.00     0.010 C
ENDBRANCH   2  23
BRANCH   3  25
HETATM   25  C12 UNL     1      27.074  -3.019  11.297  1.00  0.00     0.086 C
BRANCH  25  26
HETATM   26  C13 UNL     1      26.217  -4.137  10.763  1.00  0.00     0.242 C
BRANCH  26  27
HETATM   27  N2  UNL     1      26.376  -4.192   9.325  1.00  0.00    -0.078 N
HETATM   28  C14 UNL     1      27.470  -5.097   8.964  1.00  0.00     0.271 C
HETATM   29  C15 UNL     1      25.183  -4.758   8.676  1.00  0.00     0.271 C
HETATM   30  C16 UNL     1      26.624  -2.920   8.716  1.00  0.00     0.271 C
ENDBRANCH  26  27
ENDBRANCH  25  26
ENDBRANCH   3  25
BRANCH   6  31
HETATM   31  N4  UNL     1      24.097  -1.493  14.527  1.00  0.00    -0.163 N
HETATM   32  C18 UNL     1      22.936  -2.144  14.104  1.00  0.00     0.200 C
HETATM   33  N5  UNL     1      22.436  -2.072  12.916  1.00  0.00    -0.373 N
HETATM   34  N6  UNL     1      22.243  -2.952  15.070  1.00  0.00    -0.063 NA
ATOM     35  H52 UNL     1      22.928  -1.498  12.230  1.00  0.00     0.158 HD
ATOM     36  H51 UNL     1      21.588  -2.547  12.607  1.00  0.00     0.158 HD
ATOM     37  H4  UNL     1      24.011  -0.625  15.056  1.00  0.00     0.187 HD
ENDBRANCH   6  31
TORSDOF 10
ENDMDL