MODEL 3
REMARK VINA RESULT: -9.249126236      2.782      7.017
REMARK  9 active torsions:
REMARK  status: ('A' for Active; 'I' for Inactive)
REMARK    1  A    between atoms: C4_5  and  C5_6
REMARK    2  A    between atoms: C5_6  and  C6_7
REMARK    3  A    between atoms: C6_7  and  C7_8
REMARK    4  A    between atoms: C7_8  and  C8_9
REMARK    5  A    between atoms: C8_9  and  C9_10
REMARK    6  A    between atoms: N3_18  and  C16_20
REMARK    7  A    between atoms: C16_20  and  C17_21
REMARK       I    between atoms: C17_21  and  N4_23
REMARK    8  A    between atoms: N4_23  and  C18_25
REMARK    9  A    between atoms: C19_30  and  N7_31
ROOT
HETATM    1  C1  UNL     1      27.797  -1.328  18.523  1.00  0.00     0.154 C
HETATM    2  N1  UNL     1      27.046  -1.487  17.293  1.00  0.00    -0.370 N
HETATM    3  C2  UNL     1      27.596  -1.115  16.160  1.00  0.00     0.103 A
HETATM    4  C3  UNL     1      26.914  -1.240  14.888  1.00  0.00     0.002 A
HETATM    5  C4  UNL     1      27.377  -0.900  13.720  1.00  0.00    -0.012 C
HETATM    6  C15 UNL     1      25.550  -1.820  14.972  1.00  0.00     0.041 A
HETATM    7  N3  UNL     1      24.877  -1.967  13.899  1.00  0.00    -0.380 N
ATOM      8  H3  UNL     1      25.285  -1.685  13.008  1.00  0.00     0.160 HD
HETATM    9  C20 UNL     1      24.993  -2.216  16.268  1.00  0.00     0.047 A
HETATM   10  C21 UNL     1      25.740  -2.040  17.351  1.00  0.00     0.092 A
ENDROOT
BRANCH   7  11
HETATM   11  C16 UNL     1      23.556  -2.522  13.924  1.00  0.00     0.223 C
BRANCH  11  12
HETATM   12  C17 UNL     1      22.549  -1.493  13.546  1.00  0.00     0.253 C
HETATM   13  O1  UNL     1      22.032  -1.537  12.421  1.00  0.00    -0.271 OA
HETATM   14  N4  UNL     1      22.170  -0.463  14.447  1.00  0.00    -0.156 N
ATOM     15  H4  UNL     1      22.587   0.463  14.357  1.00  0.00     0.187 HD
BRANCH  14  16
HETATM   16  C18 UNL     1      21.306  -0.685  15.376  1.00  0.00     0.714 A
HETATM   17  N5  UNL     1      20.272   0.091  15.711  1.00  0.00    -0.117 N
HETATM   18  N6  UNL     1      19.617  -0.489  16.721  1.00  0.00    -0.118 N
ATOM     19  H5  UNL     1      20.025   0.977  15.271  1.00  0.00     0.206 HD
HETATM   20  C19 UNL     1      20.229  -1.641  17.035  1.00  0.00     0.705 A
ATOM     21  H6  UNL     1      18.785  -0.116  17.179  1.00  0.00     0.206 HD
HETATM   22  N8  UNL     1      21.272  -1.750  16.196  1.00  0.00    -0.020 N
ATOM     23  H8  UNL     1      21.937  -2.523  16.183  1.00  0.00     0.203 HD
BRANCH  20  24
HETATM   24  N7  UNL     1      19.860  -2.446  17.960  1.00  0.00    -0.233 N
ATOM     25  H72 UNL     1      19.052  -3.069  17.976  1.00  0.00     0.174 HD
ATOM     26  H71 UNL     1      20.342  -2.583  18.848  1.00  0.00     0.174 HD
ENDBRANCH  20  24
ENDBRANCH  14  16
ENDBRANCH  11  12
ENDBRANCH   7  11
BRANCH   5  27
HETATM   27  C5  UNL     1      28.728  -0.317  13.572  1.00  0.00     0.028 C
BRANCH  27  28
HETATM   28  C6  UNL     1      29.573  -1.247  12.768  1.00  0.00     0.004 C
BRANCH  28  29
HETATM   29  C7  UNL     1      28.818  -2.431  12.304  1.00  0.00     0.006 C
BRANCH  29  30
HETATM   30  C8  UNL     1      28.944  -2.746  10.831  1.00  0.00     0.057 C
BRANCH  30  31
HETATM   31  C9  UNL     1      27.666  -3.280  10.363  1.00  0.00     0.010 A
HETATM   32  C10 UNL     1      26.791  -3.779  11.340  1.00  0.00     0.025 A
HETATM   33  C11 UNL     1      25.569  -4.288  10.965  1.00  0.00     0.003 A
HETATM   34  C12 UNL     1      25.236  -4.294   9.638  1.00  0.00     0.017 A
HETATM   35  C13 UNL     1      26.130  -3.794   8.730  1.00  0.00     0.090 A
HETATM   36  N2  UNL     1      27.349  -3.283   9.077  1.00  0.00    -0.364 N
HETATM   37  C14 UNL     1      28.230  -2.774   8.097  1.00  0.00     0.155 C
ENDBRANCH  30  31
ENDBRANCH  29  30
ENDBRANCH  28  29
ENDBRANCH  27  28
ENDBRANCH   5  27
TORSDOF 9
ENDMDL