MODEL 2
REMARK VINA RESULT: -7.824462342      1.224      1.513
REMARK  8 active torsions:
REMARK  status: ('A' for Active; 'I' for Inactive)
REMARK    1  A    between atoms: O1_2  and  C2_3
REMARK    2  A    between atoms: N1_4  and  C3_5
REMARK    3  A    between atoms: C3_5  and  C4_6
REMARK    4  A    between atoms: N3_15  and  C11_16
REMARK    5  A    between atoms: C11_16  and  C12_17
REMARK    6  A    between atoms: C12_17  and  C13_18
REMARK    7  A    between atoms: C13_18  and  N4_19
REMARK    8  A    between atoms: C17_23  and  C18_24
ROOT
HETATM    1  C13 UNL     1      27.071  -1.196  14.962  1.00  0.00     0.129 C
ENDROOT
BRANCH   1   2
HETATM    2  C12 UNL     1      28.046  -2.345  14.975  1.00  0.00     0.042 C
BRANCH   2   3
HETATM    3  C11 UNL     1      27.865  -3.215  16.200  1.00  0.00     0.154 C
BRANCH   3   4
HETATM    4  N3  UNL     1      27.990  -2.458  17.434  1.00  0.00    -0.255 N
HETATM    5  C2  UNL     1      29.182  -2.091  17.939  1.00  0.00     0.243 A
HETATM    6  N1  UNL     1      28.914  -1.417  19.069  1.00  0.00    -0.302 N
HETATM    7  C10 UNL     1      27.561  -1.378  19.241  1.00  0.00     0.203 A
HETATM    8  N2  UNL     1      27.005  -2.034  18.209  1.00  0.00    -0.291 N
ATOM      9  H2  UNL     1      26.008  -2.180  18.052  1.00  0.00     0.188 HD
BRANCH   5  10
HETATM   10  O1  UNL     1      30.465  -2.320  17.460  1.00  0.00    -0.326 OA
HETATM   11  C1  UNL     1      31.186  -1.421  16.667  1.00  0.00     0.213 C
ENDBRANCH   5  10
BRANCH   6  12
HETATM   12  C3  UNL     1      29.884  -0.824  19.965  1.00  0.00     0.172 C
BRANCH  12  13
HETATM   13  C4  UNL     1      29.725   0.628  20.082  1.00  0.00    -0.040 A
HETATM   14  C5  UNL     1      29.421   1.207  21.309  1.00  0.00     0.009 A
HETATM   15  C6  UNL     1      29.263   2.571  21.460  1.00  0.00     0.001 A
HETATM   16  C7  UNL     1      29.409   3.408  20.364  1.00  0.00     0.000 A
HETATM   17  C8  UNL     1      29.708   2.833  19.161  1.00  0.00     0.001 A
HETATM   18  C9  UNL     1      29.868   1.463  19.006  1.00  0.00     0.009 A
ENDBRANCH  12  13
ENDBRANCH   6  12
ENDBRANCH   3   4
ENDBRANCH   2   3
ENDBRANCH   1   2
BRANCH   1  19
HETATM   19  N4  UNL     1      25.785  -1.695  14.533  1.00  0.00    -0.365 N
HETATM   20  C14 UNL     1      25.683  -2.228  13.309  1.00  0.00     0.090 A
HETATM   21  C15 UNL     1      24.467  -2.701  12.899  1.00  0.00     0.018 A
HETATM   22  C16 UNL     1      23.370  -2.617  13.765  1.00  0.00     0.018 A
HETATM   23  C17 UNL     1      23.460  -2.082  15.000  1.00  0.00     0.026 A
HETATM   24  C21 UNL     1      24.729  -1.613  15.364  1.00  0.00     0.105 A
BRANCH  23  25
HETATM   25  C18 UNL     1      22.362  -2.004  15.939  1.00  0.00     0.149 A
HETATM   26  N5  UNL     1      21.277  -1.193  15.733  1.00  0.00    -0.173 N
HETATM   27  C19 UNL     1      20.436  -1.295  16.753  1.00  0.00     0.692 A
ATOM     28  H5  UNL     1      21.136  -0.598  14.916  1.00  0.00     0.186 HD
HETATM   29  N6  UNL     1      19.287  -0.672  16.916  1.00  0.00    -0.233 N
HETATM   30  N7  UNL     1      20.989  -2.167  17.598  1.00  0.00    -0.129 N
ATOM     31  H62 UNL     1      18.864  -0.006  16.270  1.00  0.00     0.174 HD
ATOM     32  H61 UNL     1      18.641  -0.752  17.701  1.00  0.00     0.174 HD
HETATM   33  N8  UNL     1      22.167  -2.614  17.124  1.00  0.00    -0.266 N
ATOM     34  H7  UNL     1      20.575  -2.455  18.485  1.00  0.00     0.206 HD
HETATM   35  C20 UNL     1      23.024  -3.558  17.815  1.00  0.00     0.180 C
ENDBRANCH  23  25
ENDBRANCH   1  19
TORSDOF 8
ENDMDL