MODEL 2
REMARK VINA RESULT: -7.432900411      2.181      9.052
REMARK  9 active torsions:
REMARK  status: ('A' for Active; 'I' for Inactive)
REMARK    1  A    between atoms: C2_2  and  C3_3
REMARK    2  A    between atoms: C5_8  and  C6_9
REMARK    3  A    between atoms: C6_9  and  C7_10
REMARK    4  A    between atoms: C7_10  and  C8_11
REMARK    5  A    between atoms: C8_11  and  C9_12
REMARK    6  A    between atoms: C10_13  and  C11_14
REMARK    7  A    between atoms: C11_14  and  N2_15
REMARK    8  A    between atoms: C17_29  and  C18_30
REMARK    9  A    between atoms: C18_30  and  N6_31
ROOT
HETATM    1  C3  UNL     1      26.076  -1.560  13.635  1.00  0.00     0.135 C
HETATM    2  C4  UNL     1      27.282  -1.008  14.216  1.00  0.00     0.228 C
HETATM    3  O1  UNL     1      27.806  -0.082  13.499  1.00  0.00    -0.273 OA
HETATM    4  N1  UNL     1      27.957  -1.318  15.412  1.00  0.00    -0.354 N
ATOM      5  H1  UNL     1      28.975  -1.307  15.353  1.00  0.00     0.162 HD
HETATM    6  C5  UNL     1      27.431  -1.642  16.681  1.00  0.00     0.110 C
HETATM    7  C16 UNL     1      26.107  -2.353  16.653  1.00  0.00     0.258 C
HETATM    8  N5  UNL     1      25.106  -1.613  15.910  1.00  0.00    -0.063 N
ATOM      9  H51 UNL     1      25.268  -0.606  15.942  1.00  0.00     0.278 HD
ATOM     10  H52 UNL     1      24.195  -1.627  16.369  1.00  0.00     0.278 HD
HETATM   11  C17 UNL     1      25.047  -2.120  14.552  1.00  0.00     0.241 C
ENDROOT
BRANCH   6  12
HETATM   12  C6  UNL     1      28.385  -2.462  17.487  1.00  0.00     0.028 C
BRANCH  12  13
HETATM   13  C7  UNL     1      27.681  -3.399  18.410  1.00  0.00     0.014 C
BRANCH  13  14
HETATM   14  C8  UNL     1      28.492  -3.394  19.722  1.00  0.00     0.094 C
BRANCH  14  15
HETATM   15  C9  UNL     1      28.625  -2.039  20.251  1.00  0.00    -0.105 C
HETATM   16  C10 UNL     1      28.758  -0.916  20.693  1.00  0.00    -0.086 C
BRANCH  16  17
HETATM   17  C11 UNL     1      28.940   0.452  21.214  1.00  0.00     0.223 C
BRANCH  17  18
HETATM   18  N2  UNL     1      29.768   1.148  20.255  1.00  0.00    -0.329 N
HETATM   19  C12 UNL     1      30.454   0.599  19.311  1.00  0.00     0.141 A
HETATM   20  C13 UNL     1      31.167   1.612  18.539  1.00  0.00     0.116 A
HETATM   21  N3  UNL     1      31.958   1.442  17.510  1.00  0.00    -0.384 N
HETATM   22  N4  UNL     1      30.845   2.868  19.114  1.00  0.00    -0.328 N
ATOM     23  H32 UNL     1      32.189   0.539  17.097  1.00  0.00     0.157 HD
ATOM     24  H31 UNL     1      32.455   2.150  16.971  1.00  0.00     0.157 HD
HETATM   25  C14 UNL     1      29.954   2.556  20.204  1.00  0.00     0.100 A
ATOM     26  H4  UNL     1      31.172   3.789  18.821  1.00  0.00     0.169 HD
HETATM   27  C15 UNL     1      29.430   3.464  20.991  1.00  0.00     0.064 C
ENDBRANCH  17  18
ENDBRANCH  16  17
ENDBRANCH  14  15
ENDBRANCH  13  14
ENDBRANCH  12  13
ENDBRANCH   6  12
BRANCH   1  28
HETATM   28  C2  UNL     1      26.496  -2.604  12.618  1.00  0.00    -0.021 C
HETATM   29  C1  UNL     1      27.076  -3.729  13.013  1.00  0.00     0.008 C
ENDBRANCH   1  28
BRANCH  11  30
HETATM   30  C18 UNL     1      23.673  -2.188  14.004  1.00  0.00     0.102 C
BRANCH  30  31
HETATM   31  N6  UNL     1      22.566  -1.952  14.832  1.00  0.00    -0.345 N
HETATM   32  C19 UNL     1      22.069  -2.769  15.782  1.00  0.00     0.095 A
HETATM   33  C20 UNL     1      20.997  -2.519  16.573  1.00  0.00     0.018 A
HETATM   34  C21 UNL     1      20.329  -1.329  16.417  1.00  0.00     0.003 A
HETATM   35  C22 UNL     1      20.795  -0.466  15.465  1.00  0.00     0.018 A
HETATM   36  C23 UNL     1      21.903  -0.774  14.679  1.00  0.00     0.095 A
ENDBRANCH  30  31
ENDBRANCH  11  30
TORSDOF 9
ENDMDL