MODEL 2
REMARK VINA RESULT: -7.062206902      1.364      1.460
REMARK  9 active torsions:
REMARK  status: ('A' for Active; 'I' for Inactive)
REMARK    1  A    between atoms: N1_6  and  C6_7
REMARK    2  A    between atoms: N2_11  and  C10_12
REMARK    3  A    between atoms: C10_12  and  C11_13
REMARK    4  A    between atoms: C11_13  and  C12_14
REMARK    5  A    between atoms: C12_14  and  C13_15
REMARK    6  A    between atoms: C13_15  and  O1_16
REMARK    7  A    between atoms: N5_23  and  C17_24
REMARK    8  A    between atoms: C17_24  and  C18_25
REMARK    9  A    between atoms: N6_29  and  N7_30
ROOT
HETATM    1  C1  UNL     1      32.105   0.611  17.155  1.00  0.00     0.068 C
HETATM    2  C2  UNL     1      31.023  -0.291  16.660  1.00  0.00     0.012 A
HETATM    3  C3  UNL     1      30.495  -0.106  15.406  1.00  0.00     0.050 A
HETATM    4  C4  UNL     1      29.472  -0.937  14.928  1.00  0.00     0.017 A
HETATM    5  C5  UNL     1      28.894  -0.531  13.595  1.00  0.00     0.068 C
HETATM    6  N1  UNL     1      28.975  -1.931  15.659  1.00  0.00    -0.298 N
HETATM    7  C16 UNL     1      29.521  -2.085  16.903  1.00  0.00     0.202 A
HETATM    8  N4  UNL     1      28.936  -3.077  17.712  1.00  0.00    -0.062 NA
HETATM    9  N5  UNL     1      30.516  -1.294  17.396  1.00  0.00    -0.321 N
ENDROOT
BRANCH   6  10
HETATM   10  C6  UNL     1      28.035  -2.871  15.197  1.00  0.00     0.129 C
HETATM   11  C7  UNL     1      26.652  -2.569  14.942  1.00  0.00     0.052 A
HETATM   12  C8  UNL     1      26.203  -2.750  13.622  1.00  0.00     0.048 A
HETATM   13  N3  UNL     1      25.744  -2.125  15.778  1.00  0.00    -0.346 N
HETATM   14  C9  UNL     1      24.916  -2.480  13.250  1.00  0.00     0.094 A
HETATM   15  N2  UNL     1      24.015  -2.026  14.136  1.00  0.00    -0.353 N
HETATM   16  C14 UNL     1      24.451  -1.858  15.383  1.00  0.00     0.185 A
HETATM   17  C15 UNL     1      26.005  -1.878  17.175  1.00  0.00     0.157 C
BRANCH  15  18
HETATM   18  C10 UNL     1      22.637  -1.735  13.748  1.00  0.00     0.129 C
BRANCH  18  19
HETATM   19  C11 UNL     1      22.053  -0.742  14.762  1.00  0.00     0.022 C
BRANCH  19  20
HETATM   20  C12 UNL     1      20.621  -1.161  15.101  1.00  0.00     0.028 C
BRANCH  20  21
HETATM   21  C13 UNL     1      20.430  -1.202  16.596  1.00  0.00     0.164 C
BRANCH  21  22
HETATM   22  O1  UNL     1      19.120  -0.815  16.951  1.00  0.00    -0.401 OA
ATOM     23  H1  UNL     1      18.521  -1.551  16.897  1.00  0.00     0.209 HD
ENDBRANCH  21  22
ENDBRANCH  20  21
ENDBRANCH  19  20
ENDBRANCH  18  19
ENDBRANCH  15  18
ENDBRANCH   6  10
BRANCH   9  24
HETATM   24  C17 UNL     1      31.010  -1.499  18.730  1.00  0.00     0.171 C
BRANCH  24  25
HETATM   25  C18 UNL     1      30.268  -0.848  19.819  1.00  0.00    -0.022 A
HETATM   26  C19 UNL     1      29.634   0.352  19.696  1.00  0.00     0.012 A
HETATM   27  C20 UNL     1      28.973   0.926  20.793  1.00  0.00     0.020 A
HETATM   28  C21 UNL     1      28.962   0.273  22.008  1.00  0.00     0.115 A
HETATM   29  N6  UNL     1      29.596  -0.915  22.108  1.00  0.00    -0.285 N
HETATM   30  C22 UNL     1      30.229  -1.471  21.073  1.00  0.00     0.123 A
BRANCH  29  31
HETATM   31  N7  UNL     1      29.567  -1.552  23.358  1.00  0.00    -0.339 N
ATOM     32  H72 UNL     1      29.810  -2.538  23.447  1.00  0.00     0.177 HD
ATOM     33  H71 UNL     1      29.295  -0.985  24.161  1.00  0.00     0.177 HD
ENDBRANCH  29  31
ENDBRANCH  24  25
ENDBRANCH   9  24
TORSDOF 9
ENDMDL