MODEL 2
REMARK VINA RESULT: -8.358026883      1.007      1.311
REMARK  9 active torsions:
REMARK  status: ('A' for Active; 'I' for Inactive)
REMARK    1  A    between atoms: C3_3  and  C4_4
REMARK    2  A    between atoms: C4_4  and  C5_5
REMARK    3  A    between atoms: C5_5  and  C6_6
REMARK    4  A    between atoms: C6_6  and  C7_7
REMARK    5  A    between atoms: C7_7  and  N1_8
REMARK    6  A    between atoms: C10_11  and  C11_12
REMARK    7  A    between atoms: C11_12  and  N2_13
REMARK    8  A    between atoms: C15_24  and  C16_25
REMARK    9  A    between atoms: C16_25  and  C17_26
ROOT
HETATM    1  C1  UNL     1      29.502   3.652  21.014  1.00  0.00     0.012 C
HETATM    2  C2  UNL     1      29.448   2.491  20.664  1.00  0.00    -0.117 C
HETATM    3  C3  UNL     1      29.391   1.083  20.264  1.00  0.00     0.093 C
ENDROOT
BRANCH   3   4
HETATM    4  C4  UNL     1      28.665   0.996  18.937  1.00  0.00     0.012 C
BRANCH   4   5
HETATM    5  C5  UNL     1      28.872  -0.312  18.252  1.00  0.00     0.002 C
BRANCH   5   6
HETATM    6  C6  UNL     1      27.655  -1.139  18.041  1.00  0.00     0.020 C
BRANCH   6   7
HETATM    7  C7  UNL     1      27.421  -1.674  16.678  1.00  0.00     0.128 C
BRANCH   7   8
HETATM    8  N1  UNL     1      26.034  -1.877  16.316  1.00  0.00    -0.357 N
HETATM    9  C8  UNL     1      25.086  -2.303  17.164  1.00  0.00     0.092 A
HETATM   10  C9  UNL     1      23.757  -2.503  16.820  1.00  0.00     0.026 A
HETATM   11  C10 UNL     1      23.336  -2.259  15.532  1.00  0.00    -0.035 A
HETATM   12  C14 UNL     1      24.298  -1.822  14.651  1.00  0.00     0.038 A
HETATM   13  C15 UNL     1      25.621  -1.633  15.032  1.00  0.00     0.036 A
BRANCH  11  14
HETATM   14  C11 UNL     1      21.918  -2.459  15.112  1.00  0.00     0.189 C
BRANCH  14  15
HETATM   15  N2  UNL     1      21.125  -1.413  15.692  1.00  0.00    -0.269 N
HETATM   16  C12 UNL     1      20.292  -1.462  16.746  1.00  0.00     0.218 A
HETATM   17  N3  UNL     1      19.748  -0.231  16.946  1.00  0.00    -0.185 N
HETATM   18  C13 UNL     1      20.260   0.583  15.994  1.00  0.00     0.691 A
ATOM     19  H3  UNL     1      19.082   0.028  17.673  1.00  0.00     0.185 HD
HETATM   20  N4  UNL     1      19.986   1.836  15.849  1.00  0.00    -0.233 N
HETATM   21  N5  UNL     1      21.089  -0.167  15.254  1.00  0.00    -0.129 N
ATOM     22  H42 UNL     1      19.355   2.406  16.413  1.00  0.00     0.174 HD
ATOM     23  H41 UNL     1      20.372   2.449  15.131  1.00  0.00     0.174 HD
ATOM     24  H5  UNL     1      21.623   0.179  14.457  1.00  0.00     0.206 HD
ENDBRANCH  14  15
ENDBRANCH  11  14
BRANCH  13  25
HETATM   25  C16 UNL     1      26.605  -1.192  14.064  1.00  0.00     0.059 C
BRANCH  25  26
HETATM   26  C17 UNL     1      27.121  -1.967  13.128  1.00  0.00     0.037 A
HETATM   27  C18 UNL     1      26.410  -2.920  12.460  1.00  0.00     0.049 A
HETATM   28  C19 UNL     1      27.010  -3.700  11.499  1.00  0.00     0.062 A
HETATM   29  C20 UNL     1      28.340  -3.556  11.169  1.00  0.00     0.066 A
HETATM   30  C23 UNL     1      27.036  -4.740  10.489  1.00  0.00     0.258 A
HETATM   31  C21 UNL     1      29.035  -2.586  11.858  1.00  0.00     0.121 A
HETATM   32  N7  UNL     1      28.431  -4.471  10.256  1.00  0.00    -0.321 N
HETATM   33  N6  UNL     1      28.439  -1.836  12.790  1.00  0.00    -0.359 N
HETATM   34  C22 UNL     1      29.212  -0.827  13.489  1.00  0.00     0.156 C
ATOM     35  H7  UNL     1      29.162  -4.837   9.647  1.00  0.00     0.169 HD
HETATM   36  O1  UNL     1      26.181  -5.541  10.019  1.00  0.00    -0.267 OA
ENDBRANCH  25  26
ENDBRANCH  13  25
ENDBRANCH   7   8
ENDBRANCH   6   7
ENDBRANCH   5   6
ENDBRANCH   4   5
ENDBRANCH   3   4
TORSDOF 9
ENDMDL