MODEL 5
REMARK VINA RESULT: -6.890095066      1.779      4.406
REMARK  8 active torsions:
REMARK  status: ('A' for Active; 'I' for Inactive)
REMARK    1  A    between atoms: N2_6  and  C5_7
REMARK    2  A    between atoms: C5_7  and  C6_8
REMARK    3  A    between atoms: C6_8  and  C7_9
REMARK    4  A    between atoms: C7_9  and  C8_10
REMARK    5  A    between atoms: C8_10  and  C9_11
REMARK    6  A    between atoms: C9_11  and  N3_12
REMARK    7  A    between atoms: C17_21  and  C18_22
REMARK    8  A    between atoms: C18_22  and  O2_23
ROOT
HETATM    1  C1  UNL     1     -24.233   1.479  15.726  1.00  0.00     0.150 C
HETATM    2  N1  UNL     1     -24.306   2.082  14.419  1.00  0.00    -0.375 N
HETATM    3  C2  UNL     1     -23.085   2.459  13.753  1.00  0.00     0.150 C
HETATM    4  C3  UNL     1     -25.447   2.274  13.871  1.00  0.00     0.119 A
HETATM    5  C4  UNL     1     -26.721   1.905  14.516  1.00  0.00     0.142 A
HETATM    6  N2  UNL     1     -27.849   2.111  13.938  1.00  0.00    -0.319 N
HETATM    7  C15 UNL     1     -27.950   2.701  12.655  1.00  0.00     0.274 A
HETATM    8  O1  UNL     1     -29.050   2.900  12.098  1.00  0.00    -0.266 OA
HETATM    9  C16 UNL     1     -26.741   3.115  11.909  1.00  0.00     0.102 A
HETATM   10  C17 UNL     1     -26.826   3.659  10.728  1.00  0.00     0.047 C
HETATM   11  N5  UNL     1     -25.509   2.871  12.581  1.00  0.00    -0.337 N
ATOM     12  H5  UNL     1     -24.638   3.135  12.120  1.00  0.00     0.167 HD
ENDROOT
BRANCH   6  13
HETATM   13  C5  UNL     1     -29.086   1.730  14.608  1.00  0.00     0.132 C
BRANCH  13  14
HETATM   14  C6  UNL     1     -29.444   0.306  14.378  1.00  0.00     0.020 C
BRANCH  14  15
HETATM   15  C7  UNL     1     -30.655  -0.071  15.183  1.00  0.00     0.003 C
BRANCH  15  16
HETATM   16  C8  UNL     1     -30.414   0.038  16.649  1.00  0.00     0.020 C
BRANCH  16  17
HETATM   17  C9  UNL     1     -31.153  -1.001  17.467  1.00  0.00     0.128 C
BRANCH  17  18
HETATM   18  N3  UNL     1     -30.449  -1.432  18.643  1.00  0.00    -0.366 N
HETATM   19  C10 UNL     1     -30.018  -0.524  19.569  1.00  0.00     0.090 A
HETATM   20  C11 UNL     1     -29.349  -0.915  20.709  1.00  0.00     0.017 A
HETATM   21  C12 UNL     1     -29.095  -2.249  20.949  1.00  0.00     0.003 A
HETATM   22  C13 UNL     1     -29.537  -3.166  20.004  1.00  0.00     0.017 A
HETATM   23  C14 UNL     1     -30.201  -2.720  18.880  1.00  0.00     0.090 A
ENDBRANCH  17  18
ENDBRANCH  16  17
ENDBRANCH  15  16
ENDBRANCH  14  15
ENDBRANCH  13  14
ENDBRANCH   6  13
BRANCH  10  24
HETATM   24  C18 UNL     1     -25.702   4.103   9.905  1.00  0.00     0.103 C
HETATM   25  C19 UNL     1     -25.746   5.601   9.647  1.00  0.00     0.071 C
HETATM   26  C20 UNL     1     -25.531   5.635   8.137  1.00  0.00     0.235 C
HETATM   27  N4  UNL     1     -26.328   4.497   7.721  1.00  0.00    -0.072 N
HETATM   28  C21 UNL     1     -25.798   3.434   8.556  1.00  0.00     0.274 C
ATOM     29  H42 UNL     1     -27.337   4.631   7.782  1.00  0.00     0.277 HD
ATOM     30  H41 UNL     1     -26.316   4.305   6.719  1.00  0.00     0.277 HD
BRANCH  24  31
HETATM   31  O2  UNL     1     -24.455   3.842  10.456  1.00  0.00    -0.384 OA
ATOM     32  H2  UNL     1     -24.025   4.605  10.825  1.00  0.00     0.211 HD
ENDBRANCH  24  31
ENDBRANCH  10  24
TORSDOF 8
ENDMDL