MODEL 4
REMARK VINA RESULT: -5.798391410      2.987      4.829
REMARK  12 active torsions:
REMARK  status: ('A' for Active; 'I' for Inactive)
REMARK    1  A    between atoms: N1_2  and  C4_5
REMARK    2  A    between atoms: C4_5  and  C5_6
REMARK    3  A    between atoms: C5_6  and  N2_7
REMARK    4  A    between atoms: N3_11  and  C10_13
REMARK    5  A    between atoms: C10_13  and  C11_14
REMARK    6  A    between atoms: C11_14  and  N4_15
REMARK    7  A    between atoms: N4_15  and  C12_17
REMARK    8  A    between atoms: C12_17  and  C13_18
REMARK    9  A    between atoms: C14_19  and  C15_20
REMARK   10  A    between atoms: C15_20  and  N5_21
REMARK   11  A    between atoms: N5_21  and  C16_23
REMARK   12  A    between atoms: C21_30  and  O1_31
ROOT
HETATM    1  C10 UNL     1     -29.605   0.724  19.525  1.00  0.00     0.261 C
ENDROOT
BRANCH   1   2
HETATM    2  N3  UNL     1     -30.790   0.134  18.999  1.00  0.00    -0.015 N
HETATM    3  C8  UNL     1     -31.678   1.223  18.545  1.00  0.00     0.270 C
HETATM    4  C7  UNL     1     -30.976   1.567  17.229  1.00  0.00     0.270 C
HETATM    5  N2  UNL     1     -30.763   0.248  16.667  1.00  0.00    -0.015 N
HETATM    6  C6  UNL     1     -29.555   0.327  15.876  1.00  0.00     0.278 C
HETATM    7  C21 UNL     1     -30.520  -0.620  17.773  1.00  0.00     0.530 C
HETATM    8  C9  UNL     1     -31.454  -0.692  19.955  1.00  0.00     0.278 C
BRANCH   5   9
HETATM    9  C5  UNL     1     -31.927  -0.077  15.894  1.00  0.00     0.270 C
BRANCH   9  10
HETATM   10  C4  UNL     1     -31.616  -0.406  14.457  1.00  0.00     0.264 C
BRANCH  10  11
HETATM   11  N1  UNL     1     -32.580   0.177  13.550  1.00  0.00    -0.077 N
HETATM   12  C1  UNL     1     -31.970   1.309  12.877  1.00  0.00     0.271 C
HETATM   13  C2  UNL     1     -33.783   0.623  14.227  1.00  0.00     0.271 C
HETATM   14  C3  UNL     1     -32.940  -0.785  12.528  1.00  0.00     0.271 C
ENDBRANCH  10  11
ENDBRANCH   9  10
ENDBRANCH   5   9
BRANCH   7  15
HETATM   15  O1  UNL     1     -31.346  -1.725  17.702  1.00  0.00    -0.348 OA
ATOM     16  H1  UNL     1     -31.162  -2.318  18.421  1.00  0.00     0.213 HD
ENDBRANCH   7  15
ENDBRANCH   1   2
BRANCH   1  17
HETATM   17  C11 UNL     1     -28.330  -0.028  19.397  1.00  0.00     0.142 C
BRANCH  17  18
HETATM   18  N4  UNL     1     -27.170   0.701  19.036  1.00  0.00    -0.410 N
ATOM     19  H4  UNL     1     -26.238   0.402  19.324  1.00  0.00     0.154 HD
BRANCH  18  20
HETATM   20  C12 UNL     1     -27.372   1.874  18.248  1.00  0.00     0.208 C
BRANCH  20  21
HETATM   21  C13 UNL     1     -26.368   1.858  17.162  1.00  0.00    -0.086 C
HETATM   22  C14 UNL     1     -25.563   1.828  16.269  1.00  0.00    -0.085 C
BRANCH  22  23
HETATM   23  C15 UNL     1     -24.590   1.782  15.154  1.00  0.00     0.215 C
BRANCH  23  24
HETATM   24  N5  UNL     1     -23.424   2.579  15.462  1.00  0.00    -0.366 N
ATOM     25  H5  UNL     1     -23.460   3.592  15.346  1.00  0.00     0.162 HD
BRANCH  24  26
HETATM   26  C16 UNL     1     -22.354   2.033  15.875  1.00  0.00     0.101 A
HETATM   27  C17 UNL     1     -21.665   1.070  15.139  1.00  0.00     0.048 A
HETATM   28  C18 UNL     1     -20.508   0.492  15.605  1.00  0.00     0.005 A
HETATM   29  C19 UNL     1     -20.000   0.862  16.833  1.00  0.00     0.017 A
HETATM   30  C20 UNL     1     -20.711   1.822  17.534  1.00  0.00     0.089 A
HETATM   31  N6  UNL     1     -21.838   2.377  17.068  1.00  0.00    -0.353 N
ATOM     32  H6  UNL     1     -22.318   3.078  17.633  1.00  0.00     0.166 HD
ENDBRANCH  24  26
ENDBRANCH  23  24
ENDBRANCH  22  23
ENDBRANCH  20  21
ENDBRANCH  18  20
ENDBRANCH  17  18
ENDBRANCH   1  17
TORSDOF 12
ENDMDL