MODEL 5
REMARK VINA RESULT: -5.877386958      1.301      1.612
REMARK  14 active torsions:
REMARK  status: ('A' for Active; 'I' for Inactive)
REMARK    1  A    between atoms: N2_4  and  C4_6
REMARK    2  A    between atoms: C4_6  and  C5_7
REMARK    3  A    between atoms: C5_7  and  C6_8
REMARK    4  A    between atoms: C6_8  and  C7_9
REMARK    5  A    between atoms: C7_9  and  N3_10
REMARK    6  A    between atoms: C9_14  and  N5_15
REMARK    7  A    between atoms: N5_15  and  C10_17
REMARK    8  A    between atoms: N7_20  and  C11_21
REMARK    9  A    between atoms: C11_21  and  C12_22
REMARK   10  A    between atoms: C12_22  and  C13_23
REMARK   11  A    between atoms: C13_23  and  C14_24
REMARK   12  A    between atoms: C14_24  and  C15_25
REMARK   13  A    between atoms: C15_25  and  C16_26
REMARK   14  A    between atoms: C16_26  and  N8_27
ROOT
HETATM    1  N3  UNL     1     -26.320   2.195  15.304  1.00  0.00    -0.260 N
HETATM    2  C8  UNL     1     -27.500   2.788  15.097  1.00  0.00     0.219 A
HETATM    3  N4  UNL     1     -27.630   3.092  13.811  1.00  0.00    -0.185 N
ATOM      4  H4  UNL     1     -28.431   3.549  13.374  1.00  0.00     0.185 HD
HETATM    5  C9  UNL     1     -26.464   2.667  13.172  1.00  0.00     0.702 A
HETATM    6  N7  UNL     1     -25.699   2.126  14.128  1.00  0.00    -0.120 N
ENDROOT
BRANCH   1   7
HETATM    7  C7  UNL     1     -25.790   1.716  16.537  1.00  0.00     0.244 C
BRANCH   7   8
HETATM    8  C6  UNL     1     -26.916   1.441  17.465  1.00  0.00    -0.083 C
BRANCH   8   9
HETATM    9  C5  UNL     1     -27.818   1.207  18.232  1.00  0.00    -0.076 C
BRANCH   9  10
HETATM   10  C4  UNL     1     -28.905   0.945  19.146  1.00  0.00     0.337 C
BRANCH  10  11
HETATM   11  N2  UNL     1     -29.610  -0.230  18.747  1.00  0.00    -0.026 N
HETATM   12  C2  UNL     1     -29.995  -0.181  17.382  1.00  0.00     0.292 C
HETATM   13  N1  UNL     1     -31.222   0.032  17.196  1.00  0.00    -0.373 N
HETATM   14  C1  UNL     1     -31.936   0.140  15.939  1.00  0.00     0.150 C
HETATM   15  C18 UNL     1     -31.888   0.168  18.448  1.00  0.00     0.151 C
HETATM   16  C17 UNL     1     -30.893  -0.358  19.435  1.00  0.00     0.265 C
HETATM   17  C3  UNL     1     -28.876  -1.455  18.952  1.00  0.00     0.281 C
ENDBRANCH  10  11
ENDBRANCH   9  10
ENDBRANCH   8   9
ENDBRANCH   7   8
ENDBRANCH   1   7
BRANCH   6  18
HETATM   18  C11 UNL     1     -24.429   1.543  13.920  1.00  0.00     0.168 C
BRANCH  18  19
HETATM   19  C12 UNL     1     -23.255   2.444  13.800  1.00  0.00     0.022 C
BRANCH  19  20
HETATM   20  C13 UNL     1     -22.408   2.241  15.040  1.00  0.00     0.002 C
BRANCH  20  21
HETATM   21  C14 UNL     1     -21.647   0.963  15.064  1.00  0.00     0.002 C
BRANCH  21  22
HETATM   22  C15 UNL     1     -20.477   1.038  16.013  1.00  0.00     0.027 C
BRANCH  22  23
HETATM   23  C16 UNL     1     -20.816   1.941  17.190  1.00  0.00     0.229 C
BRANCH  23  24
HETATM   24  N8  UNL     1     -19.642   2.257  17.968  1.00  0.00    -0.079 N
ATOM     25  H83 UNL     1     -18.841   1.694  17.681  1.00  0.00     0.274 HD
ATOM     26  H82 UNL     1     -19.277   3.180  17.735  1.00  0.00     0.274 HD
ATOM     27  H81 UNL     1     -19.822   2.167  18.968  1.00  0.00     0.274 HD
ENDBRANCH  23  24
ENDBRANCH  22  23
ENDBRANCH  21  22
ENDBRANCH  20  21
ENDBRANCH  19  20
ENDBRANCH  18  19
ENDBRANCH   6  18
BRANCH   5  28
HETATM   28  N5  UNL     1     -26.358   2.866  11.930  1.00  0.00    -0.167 N
ATOM     29  H5  UNL     1     -26.658   2.052  11.393  1.00  0.00     0.186 HD
BRANCH  28  30
HETATM   30  C10 UNL     1     -25.950   3.883  11.116  1.00  0.00     0.199 C
HETATM   31  N6  UNL     1     -24.655   3.956  10.478  1.00  0.00    -0.069 NA
HETATM   32  S1  UNL     1     -26.953   5.164  10.837  1.00  0.00    -0.044 SA
ENDBRANCH  28  30
ENDBRANCH   5  28
TORSDOF 14
ENDMDL