MODEL 4
REMARK VINA RESULT: -6.755767727      2.154      3.054
REMARK  11 active torsions:
REMARK  status: ('A' for Active; 'I' for Inactive)
REMARK    1  A    between atoms: C2_2  and  C3_3
REMARK    2  A    between atoms: C3_3  and  C4_4
REMARK    3  A    between atoms: C4_4  and  C5_5
REMARK    4  A    between atoms: C5_5  and  C6_6
REMARK    5  A    between atoms: C6_6  and  N1_7
REMARK    6  A    between atoms: C8_9  and  C9_10
REMARK    7  A    between atoms: C9_10  and  C10_11
REMARK    8  A    between atoms: C11_12  and  C12_13
REMARK    9  A    between atoms: C12_13  and  C14_15
REMARK   10  A    between atoms: C12_13  and  N4_21
REMARK   11  A    between atoms: N2_16  and  N3_18
ROOT
HETATM    1  C12 UNL     1     -22.545   1.725  15.205  1.00  0.00     0.147 C
HETATM    2  C13 UNL     1     -22.348   3.042  14.514  1.00  0.00     0.061 C
ENDROOT
BRANCH   1   3
HETATM    3  C11 UNL     1     -23.818   1.739  15.967  1.00  0.00    -0.067 C
HETATM    4  C10 UNL     1     -24.850   1.746  16.593  1.00  0.00    -0.099 C
BRANCH   4   5
HETATM    5  C9  UNL     1     -26.103   1.750  17.355  1.00  0.00     0.135 C
BRANCH   5   6
HETATM    6  C8  UNL     1     -27.242   2.222  16.518  1.00  0.00    -0.016 A
HETATM    7  C7  UNL     1     -27.602   1.625  15.331  1.00  0.00     0.101 A
HETATM    8  N1  UNL     1     -28.629   2.042  14.565  1.00  0.00    -0.346 N
HETATM    9  C19 UNL     1     -29.346   3.088  14.964  1.00  0.00     0.080 A
HETATM   10  N8  UNL     1     -29.031   3.717  16.134  1.00  0.00    -0.351 N
HETATM   11  C20 UNL     1     -30.486   3.580  14.146  1.00  0.00     0.089 C
HETATM   12  C17 UNL     1     -28.009   3.313  16.910  1.00  0.00     0.101 A
HETATM   13  C18 UNL     1     -29.826   4.855  16.550  1.00  0.00     0.156 C
BRANCH   8  14
HETATM   14  C6  UNL     1     -28.911   1.318  13.325  1.00  0.00     0.130 C
BRANCH  14  15
HETATM   15  C5  UNL     1     -29.453  -0.042  13.728  1.00  0.00     0.020 C
BRANCH  15  16
HETATM   16  C4  UNL     1     -30.943  -0.126  13.541  1.00  0.00     0.002 C
BRANCH  16  17
HETATM   17  C3  UNL     1     -31.727   0.076  14.809  1.00  0.00    -0.000 C
BRANCH  17  18
HETATM   18  C2  UNL     1     -30.911  -0.417  16.000  1.00  0.00    -0.005 C
HETATM   19  C1  UNL     1     -30.914   0.608  17.114  1.00  0.00     0.005 C
ENDBRANCH  17  18
ENDBRANCH  16  17
ENDBRANCH  15  16
ENDBRANCH  14  15
ENDBRANCH   8  14
ENDBRANCH   5   6
ENDBRANCH   4   5
ENDBRANCH   1   3
BRANCH   1  20
HETATM   20  C14 UNL     1     -22.533   0.636  14.210  1.00  0.00     0.125 C
HETATM   21  N2  UNL     1     -23.483   0.521  13.358  1.00  0.00    -0.319 N
ATOM     22  H2  UNL     1     -23.442  -0.244  12.684  1.00  0.00     0.185 HD
BRANCH  21  23
HETATM   23  N3  UNL     1     -24.577   1.395  13.308  1.00  0.00    -0.346 N
ATOM     24  H32 UNL     1     -25.438   1.097  13.766  1.00  0.00     0.176 HD
ATOM     25  H31 UNL     1     -24.543   2.302  12.841  1.00  0.00     0.176 HD
ENDBRANCH  21  23
ENDBRANCH   1  20
BRANCH   1  26
HETATM   26  N4  UNL     1     -21.480   1.453  16.155  1.00  0.00    -0.246 N
HETATM   27  C15 UNL     1     -20.444   0.633  16.067  1.00  0.00     0.220 A
HETATM   28  N5  UNL     1     -19.736   0.733  17.205  1.00  0.00    -0.185 N
HETATM   29  C16 UNL     1     -20.332   1.623  18.018  1.00  0.00     0.691 A
ATOM     30  H5  UNL     1     -18.883   0.215  17.418  1.00  0.00     0.185 HD
HETATM   31  N6  UNL     1     -19.906   1.950  19.190  1.00  0.00    -0.233 N
HETATM   32  N7  UNL     1     -21.408   2.048  17.334  1.00  0.00    -0.127 N
ATOM     33  H62 UNL     1     -19.089   1.628  19.710  1.00  0.00     0.174 HD
ATOM     34  H61 UNL     1     -20.358   2.625  19.807  1.00  0.00     0.174 HD
ATOM     35  H7  UNL     1     -22.078   2.736  17.678  1.00  0.00     0.206 HD
ENDBRANCH   1  26
TORSDOF 11
ENDMDL