MODEL 1
REMARK VINA RESULT: -7.587622853      0.000      0.000
REMARK  9 active torsions:
REMARK  status: ('A' for Active; 'I' for Inactive)
REMARK    1  A    between atoms: N1_6  and  C6_7
REMARK    2  A    between atoms: C6_7  and  C7_8
REMARK    3  A    between atoms: C10_11  and  C11_12
REMARK    4  A    between atoms: C11_12  and  C12_13
REMARK    5  A    between atoms: C12_13  and  N2_14
REMARK    6  A    between atoms: C16_19  and  N4_20
REMARK    7  A    between atoms: C18_27  and  C19_28
REMARK    8  A    between atoms: C19_28  and  C20_29
REMARK    9  A    between atoms: C20_29  and  N7_30
ROOT
HETATM    1  C7  UNL     1     -29.852   0.116  16.706  1.00  0.00    -0.017 A
HETATM    2  C8  UNL     1     -28.511   0.421  17.069  1.00  0.00     0.013 A
HETATM    3  C9  UNL     1     -27.583   0.736  16.118  1.00  0.00     0.026 A
HETATM    4  C10 UNL     1     -27.975   0.756  14.784  1.00  0.00     0.013 A
HETATM    5  N6  UNL     1     -29.227   0.469  14.442  1.00  0.00    -0.357 N
HETATM    6  C17 UNL     1     -29.616   0.536  13.053  1.00  0.00     0.156 C
HETATM    7  C18 UNL     1     -30.173   0.146  15.379  1.00  0.00     0.021 A
ENDROOT
BRANCH   4   8
HETATM    8  C11 UNL     1     -26.879   1.115  13.832  1.00  0.00     0.079 C
BRANCH   8   9
HETATM    9  C12 UNL     1     -26.102   2.252  14.346  1.00  0.00     0.154 C
BRANCH   9  10
HETATM   10  N2  UNL     1     -24.784   2.016  14.800  1.00  0.00    -0.287 N
HETATM   11  C13 UNL     1     -23.877   1.318  14.092  1.00  0.00     0.128 A
HETATM   12  C14 UNL     1     -22.629   1.146  14.605  1.00  0.00     0.127 A
HETATM   13  N3  UNL     1     -22.272   1.658  15.808  1.00  0.00    -0.196 N
HETATM   14  C15 UNL     1     -20.930   1.456  16.325  1.00  0.00     0.175 C
HETATM   15  C16 UNL     1     -23.199   2.348  16.489  1.00  0.00     0.692 A
HETATM   16  N5  UNL     1     -24.439   2.517  15.975  1.00  0.00    -0.130 N
ATOM     17  H5  UNL     1     -25.129   3.045  16.509  1.00  0.00     0.206 HD
BRANCH  15  18
HETATM   18  N4  UNL     1     -22.861   2.837  17.635  1.00  0.00    -0.233 N
ATOM     19  H42 UNL     1     -21.901   3.112  17.843  1.00  0.00     0.174 HD
ATOM     20  H41 UNL     1     -23.590   2.941  18.340  1.00  0.00     0.174 HD
ENDBRANCH  15  18
ENDBRANCH   9  10
ENDBRANCH   8   9
ENDBRANCH   4   8
BRANCH   7  21
HETATM   21  C19 UNL     1     -31.481  -0.318  14.923  1.00  0.00     0.085 C
BRANCH  21  22
HETATM   22  C20 UNL     1     -32.600   0.691  15.032  1.00  0.00     0.235 C
BRANCH  22  23
HETATM   23  N7  UNL     1     -33.884   0.226  15.369  1.00  0.00    -0.079 N
ATOM     24  H73 UNL     1     -34.496   1.026  15.530  1.00  0.00     0.274 HD
ATOM     25  H72 UNL     1     -34.316  -0.187  14.543  1.00  0.00     0.274 HD
ATOM     26  H71 UNL     1     -33.972  -0.424  16.151  1.00  0.00     0.274 HD
ENDBRANCH  22  23
ENDBRANCH  21  22
ENDBRANCH   7  21
BRANCH   1  27
HETATM   27  C6  UNL     1     -30.741  -0.031  17.855  1.00  0.00     0.168 C
BRANCH  27  28
HETATM   28  N1  UNL     1     -30.176  -0.854  18.941  1.00  0.00    -0.362 N
HETATM   29  C5  UNL     1     -30.251  -2.194  18.814  1.00  0.00     0.090 A
HETATM   30  C4  UNL     1     -29.750  -2.983  19.816  1.00  0.00     0.018 A
HETATM   31  C3  UNL     1     -29.173  -2.469  20.946  1.00  0.00     0.009 A
HETATM   32  C2  UNL     1     -29.101  -1.100  21.069  1.00  0.00    -0.046 A
HETATM   33  C1  UNL     1     -28.488  -0.455  22.271  1.00  0.00     0.049 C
HETATM   34  C21 UNL     1     -29.622  -0.351  20.030  1.00  0.00     0.097 A
ENDBRANCH  27  28
ENDBRANCH   1  27
TORSDOF 9
ENDMDL