MODEL 5
REMARK VINA RESULT: -6.547664476      1.684      1.942
REMARK  12 active torsions:
REMARK  status: ('A' for Active; 'I' for Inactive)
REMARK    1  A    between atoms: C3_4  and  C4_5
REMARK    2  A    between atoms: C4_5  and  C5_6
REMARK    3  A    between atoms: C5_6  and  C6_7
REMARK    4  A    between atoms: C8_11  and  N3_12
REMARK    5  A    between atoms: C10_21  and  C11_22
REMARK    6  A    between atoms: C11_22  and  N6_23
REMARK    7  A    between atoms: N6_23  and  C13_25
REMARK    8  A    between atoms: N6_23  and  C15_29
REMARK    9  A    between atoms: C13_25  and  C14_26
REMARK   10  A    between atoms: C14_26  and  O2_27
REMARK   11  A    between atoms: C15_29  and  C16_30
REMARK   12  A    between atoms: C16_30  and  N7_31
ROOT
HETATM    1  C1  UNL     1     -29.311   3.441  12.943  1.00  0.00     0.157 C
HETATM    2  N1  UNL     1     -27.878   3.129  12.832  1.00  0.00    -0.347 N
HETATM    3  C2  UNL     1     -27.060   2.838  13.841  1.00  0.00     0.130 A
HETATM    4  C3  UNL     1     -25.788   2.603  13.362  1.00  0.00     0.104 A
HETATM    5  N5  UNL     1     -25.883   2.763  12.046  1.00  0.00    -0.336 N
ATOM      6  H5  UNL     1     -25.110   2.658  11.388  1.00  0.00     0.168 HD
HETATM    7  C10 UNL     1     -27.144   3.083  11.707  1.00  0.00     0.110 A
ENDROOT
BRANCH   4   8
HETATM    8  C4  UNL     1     -24.590   2.258  14.078  1.00  0.00    -0.042 C
BRANCH   8   9
HETATM    9  C5  UNL     1     -23.574   1.981  14.666  1.00  0.00    -0.053 C
BRANCH   9  10
HETATM   10  C6  UNL     1     -22.365   1.627  15.359  1.00  0.00     0.102 A
HETATM   11  C7  UNL     1     -21.630   0.496  15.068  1.00  0.00     0.132 A
HETATM   12  N2  UNL     1     -20.494   0.184  15.734  1.00  0.00    -0.201 N
HETATM   13  C8  UNL     1     -20.058   0.990  16.709  1.00  0.00     0.678 A
ATOM     14  H2  UNL     1     -19.974  -0.661  15.495  1.00  0.00     0.183 HD
HETATM   15  N4  UNL     1     -20.741   2.115  17.036  1.00  0.00    -0.155 N
HETATM   16  C9  UNL     1     -21.889   2.437  16.368  1.00  0.00     0.279 A
ATOM     17  H4  UNL     1     -20.398   2.721  17.781  1.00  0.00     0.187 HD
HETATM   18  O1  UNL     1     -22.498   3.487  16.698  1.00  0.00    -0.266 OA
BRANCH  13  19
HETATM   19  N3  UNL     1     -18.979   0.690  17.338  1.00  0.00    -0.234 N
ATOM     20  H32 UNL     1     -18.387  -0.069  17.000  1.00  0.00     0.174 HD
ATOM     21  H31 UNL     1     -18.725   1.216  18.173  1.00  0.00     0.174 HD
ENDBRANCH  13  19
ENDBRANCH   9  10
ENDBRANCH   8   9
ENDBRANCH   4   8
BRANCH   7  22
HETATM   22  C11 UNL     1     -27.591   3.326  10.323  1.00  0.00     0.313 C
BRANCH  22  23
HETATM   23  N6  UNL     1     -27.434   4.682   9.876  1.00  0.00    -0.061 N
HETATM   24  C12 UNL     1     -28.773   5.109   9.426  1.00  0.00     0.273 C
BRANCH  23  25
HETATM   25  C13 UNL     1     -26.589   4.735   8.730  1.00  0.00     0.263 C
BRANCH  25  26
HETATM   26  C14 UNL     1     -25.607   3.609   8.602  1.00  0.00     0.192 C
BRANCH  26  27
HETATM   27  O2  UNL     1     -24.462   3.795   9.360  1.00  0.00    -0.399 OA
ATOM     28  H2  UNL     1     -24.367   3.157  10.056  1.00  0.00     0.209 HD
ENDBRANCH  26  27
ENDBRANCH  25  26
ENDBRANCH  23  25
BRANCH  23  29
HETATM   29  C15 UNL     1     -27.063   5.603  10.919  1.00  0.00     0.265 C
BRANCH  29  30
HETATM   30  C16 UNL     1     -26.212   6.723  10.366  1.00  0.00     0.264 C
BRANCH  30  31
HETATM   31  N7  UNL     1     -26.808   8.008  10.733  1.00  0.00    -0.077 N
HETATM   32  C17 UNL     1     -25.793   8.922  11.227  1.00  0.00     0.271 C
HETATM   33  C18 UNL     1     -27.803   7.872  11.763  1.00  0.00     0.271 C
HETATM   34  C19 UNL     1     -27.367   8.599   9.539  1.00  0.00     0.271 C
ENDBRANCH  30  31
ENDBRANCH  29  30
ENDBRANCH  23  29
ENDBRANCH  22  23
ENDBRANCH   7  22
TORSDOF 12
ENDMDL