MODEL 5
REMARK VINA RESULT: -7.116075301      1.326      1.568
REMARK  9 active torsions:
REMARK  status: ('A' for Active; 'I' for Inactive)
REMARK    1  A    between atoms: C2_2  and  C3_3
REMARK    2  A    between atoms: N1_6  and  C6_7
REMARK    3  A    between atoms: C6_7  and  C7_8
REMARK    4  A    between atoms: C7_8  and  C8_9
REMARK    5  A    between atoms: C8_9  and  C9_10
REMARK    6  A    between atoms: N2_13  and  C12_14
REMARK    7  A    between atoms: C14_16  and  C15_17
REMARK    8  A    between atoms: C15_17  and  N3_18
REMARK    9  A    between atoms: C20_27  and  N7_28
ROOT
HETATM    1  C9  UNL     1     -28.227   2.294  14.050  1.00  0.00     0.014 A
HETATM    2  C10 UNL     1     -28.668   1.471  13.023  1.00  0.00     0.042 A
HETATM    3  C11 UNL     1     -29.664   0.595  13.292  1.00  0.00     0.094 A
HETATM    4  N2  UNL     1     -30.218   0.515  14.517  1.00  0.00    -0.345 N
HETATM    5  C14 UNL     1     -29.812   1.298  15.537  1.00  0.00     0.105 A
HETATM    6  N6  UNL     1     -28.810   2.189  15.274  1.00  0.00    -0.343 N
HETATM    7  C19 UNL     1     -28.340   3.158  16.240  1.00  0.00     0.157 C
ENDROOT
BRANCH   1   8
HETATM    8  C8  UNL     1     -27.110   3.246  13.751  1.00  0.00     0.059 C
BRANCH   8   9
HETATM    9  C7  UNL     1     -25.845   2.517  13.443  1.00  0.00     0.027 C
BRANCH   9  10
HETATM   10  C6  UNL     1     -25.442   1.438  14.378  1.00  0.00     0.147 C
BRANCH  10  11
HETATM   11  N1  UNL     1     -24.179   1.595  15.035  1.00  0.00    -0.194 N
HETATM   12  C5  UNL     1     -24.113   2.217  16.252  1.00  0.00     0.111 A
HETATM   13  C4  UNL     1     -22.935   2.384  16.946  1.00  0.00     0.043 A
HETATM   14  C3  UNL     1     -21.764   1.906  16.397  1.00  0.00     0.027 A
HETATM   15  N8  UNL     1     -21.845   1.299  15.204  1.00  0.00    -0.196 N
HETATM   16  C20 UNL     1     -23.024   1.142  14.528  1.00  0.00     0.678 A
ATOM     17  H8  UNL     1     -20.990   0.938  14.781  1.00  0.00     0.184 HD
BRANCH  14  18
HETATM   18  C2  UNL     1     -20.454   2.062  17.112  1.00  0.00     0.053 C
HETATM   19  C1  UNL     1     -19.742   0.744  17.194  1.00  0.00     0.011 C
ENDBRANCH  14  18
BRANCH  16  20
HETATM   20  N7  UNL     1     -22.971   0.557  13.374  1.00  0.00    -0.234 N
ATOM     21  H72 UNL     1     -23.564   0.933  12.634  1.00  0.00     0.174 HD
ATOM     22  H71 UNL     1     -22.375  -0.254  13.212  1.00  0.00     0.174 HD
ENDBRANCH  16  20
ENDBRANCH  10  11
ENDBRANCH   9  10
ENDBRANCH   8   9
ENDBRANCH   1   8
BRANCH   5  23
HETATM   23  C15 UNL     1     -30.366   1.175  16.893  1.00  0.00     0.222 C
BRANCH  23  24
HETATM   24  N3  UNL     1     -29.728   0.225  17.770  1.00  0.00    -0.278 N
HETATM   25  C16 UNL     1     -30.191  -0.980  18.105  1.00  0.00     0.134 A
HETATM   26  C17 UNL     1     -29.316  -1.606  18.964  1.00  0.00     0.036 A
HETATM   27  C18 UNL     1     -29.454  -2.956  19.576  1.00  0.00     0.071 C
HETATM   28  N4  UNL     1     -28.313  -0.755  19.142  1.00  0.00    -0.287 N
HETATM   29  N5  UNL     1     -28.568   0.334  18.425  1.00  0.00    -0.020 NA
ATOM     30  H4  UNL     1     -27.491  -0.911  19.727  1.00  0.00     0.184 HD
ENDBRANCH  23  24
ENDBRANCH   5  23
BRANCH   4  31
HETATM   31  C12 UNL     1     -31.327  -0.395  14.651  1.00  0.00     0.125 C
HETATM   32  C13 UNL     1     -32.080  -0.439  13.300  1.00  0.00     0.027 C
ENDBRANCH   4  31
TORSDOF 9
ENDMDL