MODEL 2
REMARK VINA RESULT: -7.062179485      1.084      3.176
REMARK  11 active torsions:
REMARK  status: ('A' for Active; 'I' for Inactive)
REMARK    1  A    between atoms: C3_3  and  C4_4
REMARK    2  A    between atoms: C4_4  and  C5_5
REMARK    3  A    between atoms: C6_6  and  C7_7
REMARK    4  A    between atoms: C7_7  and  N1_8
REMARK    5  A    between atoms: N3_11  and  C9_12
REMARK    6  A    between atoms: C11_14  and  C12_15
REMARK    7  A    between atoms: C12_15  and  C13_16
REMARK    8  A    between atoms: C14_17  and  C15_18
REMARK    9  A    between atoms: C15_18  and  N4_19
REMARK   10  A    between atoms: N4_19  and  C16_21
REMARK   11  A    between atoms: N5_22  and  N6_24
ROOT
HETATM    1  C1  UNL     1     -30.531  -5.333  21.752  1.00  0.00     0.012 C
HETATM    2  C2  UNL     1     -29.998  -4.330  21.358  1.00  0.00    -0.117 C
HETATM    3  C3  UNL     1     -29.348  -3.104  20.900  1.00  0.00     0.105 C
ENDROOT
BRANCH   3   4
HETATM    4  C4  UNL     1     -29.244  -3.179  19.387  1.00  0.00     0.106 C
BRANCH   4   5
HETATM    5  C5  UNL     1     -29.679  -1.913  18.773  1.00  0.00    -0.100 C
HETATM    6  C6  UNL     1     -30.044  -0.883  18.299  1.00  0.00    -0.061 C
BRANCH   6   7
HETATM    7  C7  UNL     1     -30.505   0.376  17.748  1.00  0.00     0.164 C
BRANCH   7   8
HETATM    8  N1  UNL     1     -29.610   1.004  16.832  1.00  0.00    -0.287 N
HETATM    9  C8  UNL     1     -29.625   0.748  15.505  1.00  0.00     0.202 A
HETATM   10  N2  UNL     1     -30.590  -0.177  15.032  1.00  0.00    -0.062 NA
HETATM   11  N3  UNL     1     -28.796   1.303  14.610  1.00  0.00    -0.323 N
HETATM   12  C11 UNL     1     -27.871   2.184  15.031  1.00  0.00     0.037 A
HETATM   13  C17 UNL     1     -27.802   2.491  16.372  1.00  0.00     0.015 A
HETATM   14  C18 UNL     1     -26.887   3.390  16.877  1.00  0.00     0.016 A
HETATM   15  C22 UNL     1     -28.694   1.881  17.270  1.00  0.00     0.054 A
HETATM   16  C19 UNL     1     -26.833   3.694  18.222  1.00  0.00     0.001 A
HETATM   17  C20 UNL     1     -27.700   3.107  19.127  1.00  0.00     0.002 A
HETATM   18  C21 UNL     1     -28.621   2.206  18.629  1.00  0.00     0.031 A
BRANCH  11  19
HETATM   19  C9  UNL     1     -28.928   0.940  13.189  1.00  0.00     0.127 C
HETATM   20  C10 UNL     1     -29.785   1.927  12.430  1.00  0.00     0.027 C
ENDBRANCH  11  19
BRANCH  12  21
HETATM   21  C12 UNL     1     -26.928   2.813  14.096  1.00  0.00     0.152 C
BRANCH  21  22
HETATM   22  C13 UNL     1     -25.600   2.202  14.181  1.00  0.00    -0.099 C
HETATM   23  C14 UNL     1     -24.496   1.722  14.250  1.00  0.00    -0.087 C
BRANCH  23  24
HETATM   24  C15 UNL     1     -23.125   1.159  14.331  1.00  0.00     0.214 C
BRANCH  24  25
HETATM   25  N4  UNL     1     -22.333   2.013  15.172  1.00  0.00    -0.375 N
ATOM     26  H4  UNL     1     -21.485   2.445  14.805  1.00  0.00     0.161 HD
BRANCH  25  27
HETATM   27  C16 UNL     1     -22.728   2.252  16.504  1.00  0.00     0.195 C
HETATM   28  N5  UNL     1     -21.853   2.493  17.426  1.00  0.00    -0.283 N
ATOM     29  H5  UNL     1     -22.169   2.663  18.381  1.00  0.00     0.189 HD
BRANCH  28  30
HETATM   30  N6  UNL     1     -20.510   2.525  17.146  1.00  0.00    -0.248 N
HETATM   31  N7  UNL     1     -19.673   2.155  18.009  1.00  0.00    -0.331 N
ATOM     32  H72 UNL     1     -20.011   1.833  18.917  1.00  0.00     0.178 HD
ATOM     33  H71 UNL     1     -18.675   2.179  17.801  1.00  0.00     0.178 HD
ATOM     34  H6  UNL     1     -20.189   2.850  16.233  1.00  0.00     0.207 HD
ENDBRANCH  28  30
ENDBRANCH  25  27
ENDBRANCH  24  25
ENDBRANCH  23  24
ENDBRANCH  21  22
ENDBRANCH  12  21
ENDBRANCH   7   8
ENDBRANCH   6   7
ENDBRANCH   4   5
ENDBRANCH   3   4
TORSDOF 11
ENDMDL