MODEL 2
REMARK VINA RESULT: -7.307444722      1.680      2.547
REMARK  9 active torsions:
REMARK  status: ('A' for Active; 'I' for Inactive)
REMARK    1  A    between atoms: C4_5  and  C5_6
REMARK    2  A    between atoms: C5_6  and  C6_7
REMARK    3  A    between atoms: C6_7  and  C7_8
REMARK    4  A    between atoms: C7_8  and  C8_9
REMARK    5  A    between atoms: C8_9  and  N2_10
REMARK    6  A    between atoms: C11_13  and  C12_14
REMARK    7  A    between atoms: N3_15  and  O1_17
REMARK    8  A    between atoms: O1_17  and  C13_18
REMARK    9  A    between atoms: C16_26  and  N7_27
ROOT
HETATM    1  N2  UNL     1     -27.608   1.394  14.016  1.00  0.00    -0.341 N
HETATM    2  C9  UNL     1     -27.167   0.890  15.171  1.00  0.00     0.093 A
HETATM    3  C10 UNL     1     -25.883   1.048  15.632  1.00  0.00     0.032 A
HETATM    4  C11 UNL     1     -24.956   1.762  14.899  1.00  0.00     0.014 A
HETATM    5  C15 UNL     1     -25.402   2.286  13.705  1.00  0.00     0.105 A
HETATM    6  N6  UNL     1     -24.770   3.013  12.776  1.00  0.00    -0.187 N
ATOM      7  H6  UNL     1     -23.795   3.313  12.808  1.00  0.00     0.184 HD
HETATM    8  C16 UNL     1     -25.651   3.277  11.793  1.00  0.00     0.678 A
HETATM    9  N8  UNL     1     -26.818   2.722  12.106  1.00  0.00    -0.174 N
ATOM     10  H8  UNL     1     -27.665   2.763  11.539  1.00  0.00     0.186 HD
HETATM   11  C17 UNL     1     -26.700   2.096  13.289  1.00  0.00     0.151 A
ENDROOT
BRANCH   1  12
HETATM   12  C8  UNL     1     -28.942   1.268  13.483  1.00  0.00     0.130 C
BRANCH  12  13
HETATM   13  C7  UNL     1     -29.637  -0.006  13.796  1.00  0.00     0.021 C
BRANCH  13  14
HETATM   14  C6  UNL     1     -30.940   0.108  14.528  1.00  0.00     0.006 C
BRANCH  14  15
HETATM   15  C5  UNL     1     -30.741   0.837  15.813  1.00  0.00     0.039 C
BRANCH  15  16
HETATM   16  C4  UNL     1     -30.381  -0.074  16.940  1.00  0.00    -0.056 A
HETATM   17  C3  UNL     1     -29.186   0.089  17.609  1.00  0.00     0.024 A
HETATM   18  C2  UNL     1     -28.828  -0.753  18.669  1.00  0.00     0.090 A
HETATM   19  N1  UNL     1     -29.642  -1.745  19.064  1.00  0.00    -0.371 N
HETATM   20  C1  UNL     1     -29.274  -2.627  20.169  1.00  0.00     0.154 C
HETATM   21  C19 UNL     1     -30.805  -1.906  18.417  1.00  0.00     0.090 A
HETATM   22  C18 UNL     1     -31.205  -1.097  17.359  1.00  0.00     0.024 A
ENDBRANCH  15  16
ENDBRANCH  14  15
ENDBRANCH  13  14
ENDBRANCH  12  13
ENDBRANCH   1  12
BRANCH   4  23
HETATM   23  C12 UNL     1     -23.603   1.931  15.382  1.00  0.00     0.128 C
HETATM   24  N3  UNL     1     -22.531   1.556  14.824  1.00  0.00    -0.275 N
ATOM     25  H3  UNL     1     -22.624   1.077  13.929  1.00  0.00     0.193 HD
BRANCH  24  26
HETATM   26  O1  UNL     1     -21.278   1.725  15.291  1.00  0.00    -0.252 OA
BRANCH  26  27
HETATM   27  C13 UNL     1     -20.896   1.009  16.482  1.00  0.00     0.304 A
HETATM   28  C14 UNL     1     -20.363   1.879  17.530  1.00  0.00     0.129 A
HETATM   29  N4  UNL     1     -19.218   1.348  17.461  1.00  0.00    -0.312 N
HETATM   30  N5  UNL     1     -19.600   0.488  16.482  1.00  0.00    -0.101 NA
ATOM     31  H4  UNL     1     -18.339   1.506  17.955  1.00  0.00     0.181 HD
ENDBRANCH  26  27
ENDBRANCH  24  26
ENDBRANCH   4  23
BRANCH   8  32
HETATM   32  N7  UNL     1     -25.421   3.960  10.709  1.00  0.00    -0.234 N
ATOM     33  H72 UNL     1     -24.692   4.667  10.610  1.00  0.00     0.174 HD
ATOM     34  H71 UNL     1     -25.926   3.886   9.826  1.00  0.00     0.174 HD
ENDBRANCH   8  32
TORSDOF 9
ENDMDL