MODEL 3
REMARK VINA RESULT: -6.499784383      3.934      6.957
REMARK  10 active torsions:
REMARK  status: ('A' for Active; 'I' for Inactive)
REMARK    1  A    between atoms: C2_2  and  C3_3
REMARK    2  A    between atoms: C3_3  and  C4_4
REMARK    3  A    between atoms: C6_9  and  N2_10
REMARK    4  A    between atoms: N2_10  and  C7_12
REMARK    5  A    between atoms: C7_12  and  C10_15
REMARK    6  A    between atoms: C10_15  and  N3_16
REMARK    7  A    between atoms: C13_21  and  N5_22
REMARK    8  A    between atoms: N8_32  and  C16_33
REMARK    9  A    between atoms: C16_33  and  C17_34
REMARK   10  A    between atoms: C17_34  and  C18_35
ROOT
HETATM    1  C4  UNL     1     -27.724   3.726  19.014  1.00  0.00     0.208 C
HETATM    2  N1  UNL     1     -27.693   2.414  18.454  1.00  0.00    -0.332 N
ATOM      3  H1  UNL     1     -28.434   1.798  18.787  1.00  0.00     0.165 HD
HETATM    4  C5  UNL     1     -26.815   1.815  17.514  1.00  0.00     0.287 C
HETATM    5  O1  UNL     1     -27.179   0.726  16.995  1.00  0.00    -0.264 OA
HETATM    6  C6  UNL     1     -25.529   2.290  17.060  1.00  0.00     0.189 C
HETATM    7  N6  UNL     1     -24.885   3.366  17.439  1.00  0.00    -0.171 N
ATOM      8  H6  UNL     1     -23.981   3.536  17.000  1.00  0.00     0.186 HD
HETATM    9  C15 UNL     1     -25.317   4.322  18.401  1.00  0.00     0.677 C
HETATM   10  N7  UNL     1     -24.554   5.355  18.458  1.00  0.00    -0.234 N
ATOM     11  H71 UNL     1     -24.864   6.040  19.148  1.00  0.00     0.174 HD
ATOM     12  H72 UNL     1     -23.753   5.376  17.827  1.00  0.00     0.174 HD
HETATM   13  N8  UNL     1     -26.452   4.292  19.295  1.00  0.00    -0.197 N
ENDROOT
BRANCH   6  14
HETATM   14  N2  UNL     1     -24.842   1.547  16.083  1.00  0.00    -0.340 N
ATOM     15  H2  UNL     1     -24.597   0.589  16.333  1.00  0.00     0.167 HD
BRANCH  14  16
HETATM   16  C7  UNL     1     -24.456   1.976  14.801  1.00  0.00     0.025 C
HETATM   17  C8  UNL     1     -25.239   1.806  13.753  1.00  0.00    -0.004 C
HETATM   18  C9  UNL     1     -26.564   1.175  13.761  1.00  0.00     0.038 C
BRANCH  16  19
HETATM   19  C10 UNL     1     -23.118   2.622  14.682  1.00  0.00     0.184 C
BRANCH  19  20
HETATM   20  N3  UNL     1     -22.061   1.850  15.297  1.00  0.00    -0.356 N
HETATM   21  C11 UNL     1     -21.714   0.625  14.863  1.00  0.00     0.108 A
HETATM   22  C12 UNL     1     -20.700  -0.084  15.477  1.00  0.00     0.107 A
HETATM   23  N4  UNL     1     -20.034   0.421  16.520  1.00  0.00    -0.350 N
HETATM   24  C13 UNL     1     -20.390   1.647  16.943  1.00  0.00     0.114 A
ATOM     25  H4  UNL     1     -19.286  -0.101  16.975  1.00  0.00     0.166 HD
HETATM   26  C14 UNL     1     -21.388   2.356  16.345  1.00  0.00     0.138 A
BRANCH  24  27
HETATM   27  N5  UNL     1     -19.752   2.142  17.949  1.00  0.00    -0.384 N
ATOM     28  H52 UNL     1     -20.226   2.760  18.608  1.00  0.00     0.157 HD
ATOM     29  H51 UNL     1     -18.768   1.892  18.056  1.00  0.00     0.157 HD
ENDBRANCH  24  27
ENDBRANCH  19  20
ENDBRANCH  16  19
ENDBRANCH  14  16
ENDBRANCH   6  14
BRANCH   1  30
HETATM   30  C3  UNL     1     -28.565   4.599  18.093  1.00  0.00     0.074 C
BRANCH  30  31
HETATM   31  C2  UNL     1     -29.526   5.467  18.756  1.00  0.00    -0.033 C
HETATM   32  C1  UNL     1     -29.189   6.702  19.168  1.00  0.00     0.007 C
ENDBRANCH  30  31
ENDBRANCH   1  30
BRANCH  13  33
HETATM   33  C16 UNL     1     -26.208   4.879  20.556  1.00  0.00     0.143 C
BRANCH  33  34
HETATM   34  C17 UNL     1     -26.904   4.400  21.759  1.00  0.00     0.020 C
BRANCH  34  35
HETATM   35  C18 UNL     1     -27.908   5.247  22.432  1.00  0.00    -0.003 C
HETATM   36  C19 UNL     1     -29.242   4.460  22.363  1.00  0.00     0.005 C
ENDBRANCH  34  35
ENDBRANCH  33  34
ENDBRANCH  13  33
TORSDOF 10
ENDMDL