MODEL 2
REMARK VINA RESULT: -5.979768090      2.016      3.549
REMARK  9 active torsions:
REMARK  status: ('A' for Active; 'I' for Inactive)
REMARK    1  A    between atoms: C3_3  and  C4_4
REMARK    2  A    between atoms: C4_4  and  C5_5
REMARK    3  A    between atoms: C4_4  and  C14_18
REMARK    4  A    between atoms: C5_5  and  N1_6
REMARK    5  A    between atoms: C12_14  and  C13_15
REMARK    6  A    between atoms: C14_18  and  O2_19
REMARK    7  A    between atoms: C14_18  and  C15_21
REMARK    8  A    between atoms: C15_21  and  O3_22
REMARK    9  A    between atoms: C15_21  and  C16_24
ROOT
HETATM    1  C1  UNL     1      20.873 -11.573  19.860  1.00  0.00     0.112 C
HETATM    2  C2  UNL     1      19.481 -11.952  19.627  1.00  0.00    -0.111 C
HETATM    3  C3  UNL     1      18.312 -12.286  19.449  1.00  0.00    -0.098 C
ENDROOT
BRANCH   3   4
HETATM    4  C4  UNL     1      16.910 -12.726  19.209  1.00  0.00     0.122 C
BRANCH   4   5
HETATM    5  C5  UNL     1      16.216 -13.110  20.432  1.00  0.00     0.258 C
BRANCH   5   6
HETATM    6  N1  UNL     1      15.196 -14.093  20.441  1.00  0.00    -0.049 N
HETATM    7  C6  UNL     1      15.026 -14.914  21.579  1.00  0.00     0.266 C
HETATM    8  C7  UNL     1      13.724 -15.717  21.396  1.00  0.00     0.265 C
HETATM    9  N2  UNL     1      13.431 -15.891  19.986  1.00  0.00    -0.065 N
HETATM   10  C8  UNL     1      12.442 -16.917  19.833  1.00  0.00     0.272 C
HETATM   11  C9  UNL     1      14.705 -16.271  19.367  1.00  0.00     0.265 C
HETATM   12  C11 UNL     1      13.068 -14.637  19.351  1.00  0.00     0.280 C
HETATM   13  C10 UNL     1      15.548 -15.030  19.338  1.00  0.00     0.266 C
HETATM   14  C12 UNL     1      13.922 -13.543  19.959  1.00  0.00     0.304 C
BRANCH  14  15
HETATM   15  C13 UNL     1      13.204 -12.688  20.879  1.00  0.00     0.264 C
HETATM   16  N3  UNL     1      13.692 -11.688  21.753  1.00  0.00    -0.060 NA
HETATM   17  O1  UNL     1      11.920 -12.805  20.964  1.00  0.00    -0.274 OA
ENDBRANCH  14  15
ENDBRANCH   5   6
ENDBRANCH   4   5
BRANCH   4  18
HETATM   18  C14 UNL     1      16.300 -11.601  18.416  1.00  0.00     0.164 C
BRANCH  18  19
HETATM   19  O2  UNL     1      15.747 -10.621  19.240  1.00  0.00    -0.392 OA
ATOM     20  H2  UNL     1      15.097 -10.100  18.784  1.00  0.00     0.210 HD
ENDBRANCH  18  19
BRANCH  18  21
HETATM   21  C15 UNL     1      15.369 -11.909  17.329  1.00  0.00     0.151 C
BRANCH  21  22
HETATM   22  O3  UNL     1      14.568 -10.829  17.014  1.00  0.00    -0.393 OA
ATOM     23  H3  UNL     1      14.625 -10.143  17.668  1.00  0.00     0.210 HD
ENDBRANCH  21  22
BRANCH  21  24
HETATM   24  C16 UNL     1      16.202 -12.156  16.055  1.00  0.00     0.009 C
HETATM   25  C17 UNL     1      15.240 -12.159  14.901  1.00  0.00     0.012 C
HETATM   26  C18 UNL     1      17.162 -10.968  15.947  1.00  0.00     0.012 C
ENDBRANCH  21  24
ENDBRANCH  18  21
ENDBRANCH   4  18
ENDBRANCH   3   4
TORSDOF 9
ENDMDL