MODEL 3
REMARK VINA RESULT: -7.169450993      3.351      4.338
REMARK  9 active torsions:
REMARK  status: ('A' for Active; 'I' for Inactive)
REMARK    1  A    between atoms: C6_6  and  C7_7
REMARK    2  A    between atoms: C7_7  and  C8_8
REMARK    3  A    between atoms: N2_11  and  C9_12
REMARK    4  A    between atoms: C9_12  and  O1_14
REMARK    5  A    between atoms: C12_18  and  C13_19
REMARK    6  A    between atoms: C13_19  and  C14_20
REMARK    7  A    between atoms: C14_20  and  C15_21
REMARK    8  A    between atoms: C17_23  and  C18_24
REMARK    9  A    between atoms: N3_25  and  N4_27
ROOT
HETATM    1  C8  UNL     1      17.076 -13.155  22.128  1.00  0.00     0.134 C
HETATM    2  N1  UNL     1      16.540 -14.296  22.848  1.00  0.00    -0.320 N
ATOM      3  H1  UNL     1      15.671 -14.242  23.380  1.00  0.00     0.181 HD
HETATM    4  N2  UNL     1      17.277 -15.454  22.768  1.00  0.00    -0.235 N
HETATM    5  C11 UNL     1      18.683 -15.410  22.939  1.00  0.00     0.245 C
HETATM    6  O2  UNL     1      19.264 -16.400  23.381  1.00  0.00    -0.271 OA
HETATM    7  C12 UNL     1      19.342 -14.106  22.543  1.00  0.00     0.091 C
HETATM    8  C17 UNL     1      18.423 -13.537  21.503  1.00  0.00     0.067 C
ENDROOT
BRANCH   1   9
HETATM    9  C7  UNL     1      16.146 -12.891  21.022  1.00  0.00     0.030 C
BRANCH   9  10
HETATM   10  C6  UNL     1      14.884 -12.532  21.092  1.00  0.00     0.036 A
HETATM   11  C4  UNL     1      13.714 -13.225  20.887  1.00  0.00    -0.033 A
HETATM   12  C3  UNL     1      12.650 -12.300  21.045  1.00  0.00     0.037 A
HETATM   13  C5  UNL     1      13.563 -14.660  20.580  1.00  0.00     0.050 C
HETATM   14  C2  UNL     1      13.208 -11.119  21.326  1.00  0.00     0.023 A
HETATM   15  C1  UNL     1      12.482  -9.924  21.500  1.00  0.00     0.043 C
HETATM   16  N5  UNL     1      14.520 -11.235  21.364  1.00  0.00    -0.357 N
ATOM     17  H5  UNL     1      15.169 -10.475  21.565  1.00  0.00     0.166 HD
ENDBRANCH   9  10
ENDBRANCH   1   9
BRANCH   8  18
HETATM   18  C18 UNL     1      18.961 -12.528  20.616  1.00  0.00     0.087 C
HETATM   19  N3  UNL     1      20.128 -12.676  20.092  1.00  0.00    -0.322 N
ATOM     20  H3  UNL     1      20.657 -13.518  20.318  1.00  0.00     0.185 HD
BRANCH  19  21
HETATM   21  N4  UNL     1      20.711 -11.736  19.223  1.00  0.00    -0.346 N
ATOM     22  H42 UNL     1      20.650 -11.924  18.222  1.00  0.00     0.176 HD
ATOM     23  H41 UNL     1      21.183 -10.890  19.546  1.00  0.00     0.176 HD
ENDBRANCH  19  21
ENDBRANCH   8  18
BRANCH   4  24
HETATM   24  C9  UNL     1      16.597 -16.695  22.508  1.00  0.00     0.239 C
HETATM   25  C10 UNL     1      16.466 -17.065  21.085  1.00  0.00     0.065 C
BRANCH  24  26
HETATM   26  O1  UNL     1      15.292 -16.640  23.069  1.00  0.00    -0.375 OA
ATOM     27  H1  UNL     1      14.786 -15.975  22.617  1.00  0.00     0.212 HD
ENDBRANCH  24  26
ENDBRANCH   4  24
BRANCH   7  28
HETATM   28  C13 UNL     1      19.416 -13.315  23.825  1.00  0.00     0.015 C
BRANCH  28  29
HETATM   29  C14 UNL     1      20.725 -13.436  24.548  1.00  0.00     0.001 C
BRANCH  29  30
HETATM   30  C15 UNL     1      20.838 -12.266  25.529  1.00  0.00    -0.005 C
HETATM   31  C16 UNL     1      20.869 -12.752  26.958  1.00  0.00     0.005 C
ENDBRANCH  29  30
ENDBRANCH  28  29
ENDBRANCH   7  28
TORSDOF 9
ENDMDL