MODEL 3
REMARK VINA RESULT: -6.476394609      2.936      6.827
REMARK  8 active torsions:
REMARK  status: ('A' for Active; 'I' for Inactive)
REMARK    1  A    between atoms: C2_2  and  N1_3
REMARK    2  A    between atoms: C3_5  and  C4_7
REMARK    3  A    between atoms: C4_7  and  N3_8
REMARK    4  A    between atoms: N3_8  and  C7_11
REMARK    5  A    between atoms: C7_11  and  C8_12
REMARK    6  A    between atoms: C8_12  and  N4_13
REMARK    7  A    between atoms: C15_21  and  O1_22
REMARK    8  A    between atoms: C16_24  and  O2_25
ROOT
HETATM    1  N4  UNL     1      15.598 -13.706  19.690  1.00  0.00    -0.036 N
HETATM    2  C9  UNL     1      15.416 -14.651  18.575  1.00  0.00     0.275 C
HETATM    3  C10 UNL     1      16.677 -12.784  19.408  1.00  0.00     0.267 C
HETATM    4  C11 UNL     1      16.128 -11.418  19.761  1.00  0.00     0.267 C
HETATM    5  N5  UNL     1      14.707 -11.622  19.434  1.00  0.00    -0.037 N
HETATM    6  C12 UNL     1      14.671 -11.527  17.963  1.00  0.00     0.275 C
HETATM    7  C13 UNL     1      13.884 -10.576  19.907  1.00  0.00     0.242 C
HETATM    8  C14 UNL     1      13.221 -10.740  21.220  1.00  0.00     0.062 C
HETATM    9  C15 UNL     1      12.559 -12.125  21.215  1.00  0.00     0.152 C
HETATM   10  C16 UNL     1      13.766 -13.079  21.206  1.00  0.00     0.206 C
HETATM   11  C17 UNL     1      14.395 -12.951  19.847  1.00  0.00     0.421 C
ENDROOT
BRANCH   1  12
HETATM   12  C8  UNL     1      15.987 -14.489  20.824  1.00  0.00     0.267 C
BRANCH  12  13
HETATM   13  C7  UNL     1      17.478 -14.418  21.070  1.00  0.00     0.265 C
BRANCH  13  14
HETATM   14  N3  UNL     1      17.860 -14.851  22.388  1.00  0.00    -0.067 N
HETATM   15  C5  UNL     1      17.076 -15.971  22.867  1.00  0.00     0.272 C
HETATM   16  C6  UNL     1      17.724 -13.780  23.356  1.00  0.00     0.272 C
BRANCH  14  17
HETATM   17  C4  UNL     1      19.240 -15.301  22.439  1.00  0.00     0.308 C
BRANCH  17  18
HETATM   18  C3  UNL     1      20.189 -14.304  22.937  1.00  0.00     0.115 C
HETATM   19  N1  UNL     1      20.465 -14.235  24.184  1.00  0.00    -0.381 N
ATOM     20  H1  UNL     1      20.004 -14.894  24.812  1.00  0.00     0.160 HD
HETATM   21  N2  UNL     1      20.815 -13.401  22.046  1.00  0.00    -0.086 NA
BRANCH  19  22
HETATM   22  C2  UNL     1      21.387 -13.284  24.761  1.00  0.00     0.116 C
HETATM   23  C1  UNL     1      20.767 -12.474  25.875  1.00  0.00     0.026 C
ENDBRANCH  19  22
ENDBRANCH  17  18
ENDBRANCH  14  17
ENDBRANCH  13  14
ENDBRANCH  12  13
ENDBRANCH   1  12
BRANCH  10  24
HETATM   24  O2  UNL     1      14.558 -12.678  22.252  1.00  0.00    -0.389 OA
ATOM     25  H2  UNL     1      14.491 -13.368  22.900  1.00  0.00     0.210 HD
ENDBRANCH  10  24
BRANCH   9  26
HETATM   26  O1  UNL     1      11.773 -12.302  22.327  1.00  0.00    -0.393 OA
ATOM     27  H1  UNL     1      11.773 -13.210  22.604  1.00  0.00     0.210 HD
ENDBRANCH   9  26
TORSDOF 8
ENDMDL