MODEL 4
REMARK VINA RESULT: -8.032472153      1.073      1.890
REMARK  9 active torsions:
REMARK  status: ('A' for Active; 'I' for Inactive)
REMARK    1  A    between atoms: C2_2  and  N1_3
REMARK    2  A    between atoms: C5_8  and  C6_9
REMARK    3  A    between atoms: C6_9  and  C7_10
REMARK    4  A    between atoms: C7_10  and  C8_11
REMARK    5  A    between atoms: C9_14  and  C10_15
REMARK    6  A    between atoms: C10_15  and  N4_16
REMARK    7  A    between atoms: N4_16  and  C11_18
REMARK    8  A    between atoms: C11_18  and  C12_19
REMARK    9  A    between atoms: C12_19  and  C13_20
ROOT
HETATM    1  C8  UNL     1      16.151 -12.709  21.586  1.00  0.00     0.073 A
HETATM    2  N3  UNL     1      14.890 -12.501  21.269  1.00  0.00    -0.344 N
ATOM      3  H3  UNL     1      14.051 -12.893  21.696  1.00  0.00     0.167 HD
HETATM    4  C9  UNL     1      14.985 -11.654  20.253  1.00  0.00     0.092 A
HETATM    5  S1  UNL     1      16.646 -11.679  20.370  1.00  0.00    -0.053 SA
ENDROOT
BRANCH   4   6
HETATM    6  C10 UNL     1      14.074 -11.043  19.465  1.00  0.00     0.124 C
BRANCH   6   7
HETATM    7  N4  UNL     1      13.665  -9.715  19.714  1.00  0.00    -0.376 N
ATOM      8  H4  UNL     1      14.074  -8.961  19.162  1.00  0.00     0.164 HD
BRANCH   7   9
HETATM    9  C11 UNL     1      12.782  -9.421  20.626  1.00  0.00     0.065 C
BRANCH   9  10
HETATM   10  C12 UNL     1      13.169  -9.450  22.060  1.00  0.00     0.091 C
BRANCH  10  11
HETATM   11  C13 UNL     1      12.057  -9.999  22.873  1.00  0.00     0.040 A
HETATM   12  C14 UNL     1      11.353  -9.385  23.886  1.00  0.00     0.034 A
HETATM   13  C15 UNL     1      11.590  -7.999  24.364  1.00  0.00     0.070 C
HETATM   14  N5  UNL     1      10.420 -10.264  24.353  1.00  0.00    -0.302 N
HETATM   15  N6  UNL     1      10.514 -11.393  23.677  1.00  0.00    -0.266 N
ATOM     16  H5  UNL     1       9.756 -10.078  25.105  1.00  0.00     0.186 HD
HETATM   17  C16 UNL     1      11.496 -11.274  22.768  1.00  0.00     0.268 A
ATOM     18  H6  UNL     1       9.936 -12.221  23.822  1.00  0.00     0.190 HD
HETATM   19  O1  UNL     1      11.904 -12.113  21.932  1.00  0.00    -0.266 OA
ENDBRANCH  10  11
ENDBRANCH   9  10
ENDBRANCH   7   9
ENDBRANCH   6   7
ENDBRANCH   4   6
BRANCH   1  20
HETATM   20  C7  UNL     1      16.822 -13.431  22.493  1.00  0.00     0.018 C
BRANCH  20  21
HETATM   21  C6  UNL     1      17.887 -14.367  22.034  1.00  0.00     0.106 C
BRANCH  21  22
HETATM   22  C5  UNL     1      19.220 -13.951  22.545  1.00  0.00     0.086 A
HETATM   23  N1  UNL     1      20.209 -13.473  21.764  1.00  0.00    -0.345 N
HETATM   24  C3  UNL     1      21.231 -13.219  22.596  1.00  0.00     0.109 A
HETATM   25  C4  UNL     1      20.888 -13.534  23.892  1.00  0.00     0.106 A
HETATM   26  N2  UNL     1      19.625 -13.989  23.828  1.00  0.00    -0.354 N
ATOM     27  H2  UNL     1      19.067 -14.310  24.619  1.00  0.00     0.166 HD
BRANCH  23  28
HETATM   28  C2  UNL     1      20.158 -13.283  20.331  1.00  0.00     0.125 C
HETATM   29  C1  UNL     1      20.516 -11.874  19.912  1.00  0.00     0.027 C
ENDBRANCH  23  28
ENDBRANCH  21  22
ENDBRANCH  20  21
ENDBRANCH   1  20
TORSDOF 9
ENDMDL