MODEL 4
REMARK VINA RESULT: -6.227152876      1.835      8.433
REMARK  11 active torsions:
REMARK  status: ('A' for Active; 'I' for Inactive)
REMARK    1  A    between atoms: C1_2  and  C2_4
REMARK    2  A    between atoms: C2_4  and  N1_5
REMARK    3  A    between atoms: N2_8  and  C5_9
REMARK    4  A    between atoms: C5_9  and  C6_10
REMARK    5  A    between atoms: C7_11  and  C8_12
REMARK    6  A    between atoms: C8_12  and  N3_13
REMARK    7  A    between atoms: N3_13  and  C9_14
REMARK    8  A    between atoms: C9_14  and  C10_15
REMARK    9  A    between atoms: C10_15  and  C11_16
REMARK   10  A    between atoms: C11_16  and  O3_17
REMARK   11  A    between atoms: C11_16  and  O4_19
ROOT
HETATM    1  C5  UNL     1      17.068 -14.321  20.397  1.00  0.00     0.331 C
ENDROOT
BRANCH   1   2
HETATM    2  N2  UNL     1      16.160 -13.219  20.391  1.00  0.00    -0.052 N
HETATM    3  C4  UNL     1      15.664 -12.849  21.691  1.00  0.00     0.266 C
HETATM    4  C3  UNL     1      14.366 -12.083  21.541  1.00  0.00     0.266 C
HETATM    5  N1  UNL     1      14.352 -11.439  20.242  1.00  0.00    -0.053 N
HETATM    6  C15 UNL     1      15.714 -10.905  20.054  1.00  0.00     0.266 C
HETATM    7  C17 UNL     1      14.167 -12.420  19.204  1.00  0.00     0.266 C
HETATM    8  C14 UNL     1      16.695 -12.023  19.774  1.00  0.00     0.266 C
HETATM    9  C16 UNL     1      15.013 -13.620  19.559  1.00  0.00     0.266 C
BRANCH   5  10
HETATM   10  C2  UNL     1      13.465 -10.328  20.155  1.00  0.00     0.350 C
BRANCH  10  11
HETATM   11  C1  UNL     1      12.886  -9.880  21.418  1.00  0.00     0.199 C
HETATM   12  O1  UNL     1      11.805 -10.281  21.922  1.00  0.00    -0.647 OA
HETATM   13  O2  UNL     1      13.579  -8.919  22.147  1.00  0.00    -0.647 OA
ENDBRANCH  10  11
ENDBRANCH   5  10
ENDBRANCH   1   2
BRANCH   1  14
HETATM   14  C6  UNL     1      18.300 -13.905  21.062  1.00  0.00    -0.077 C
HETATM   15  C7  UNL     1      19.330 -13.564  21.595  1.00  0.00    -0.077 C
BRANCH  15  16
HETATM   16  C8  UNL     1      20.594 -13.172  22.241  1.00  0.00     0.330 C
BRANCH  16  17
HETATM   17  N3  UNL     1      20.677 -13.681  23.593  1.00  0.00    -0.054 N
HETATM   18  C12 UNL     1      19.992 -12.963  24.636  1.00  0.00     0.266 A
HETATM   19  C13 UNL     1      19.511 -14.316  24.172  1.00  0.00     0.266 A
BRANCH  17  20
HETATM   20  C9  UNL     1      21.935 -14.284  23.982  1.00  0.00     0.243 C
BRANCH  20  21
HETATM   21  C10 UNL     1      22.910 -13.322  24.596  1.00  0.00     0.088 C
BRANCH  21  22
HETATM   22  C11 UNL     1      24.086 -13.029  23.712  1.00  0.00     0.255 C
BRANCH  22  23
HETATM   23  O3  UNL     1      24.891 -12.015  24.224  1.00  0.00    -0.371 OA
ATOM     24  H3  UNL     1      24.475 -11.553  24.943  1.00  0.00     0.212 HD
ENDBRANCH  22  23
BRANCH  22  25
HETATM   25  O4  UNL     1      24.900 -14.150  23.549  1.00  0.00    -0.371 OA
ATOM     26  H4  UNL     1      24.868 -14.480  22.660  1.00  0.00     0.212 HD
ENDBRANCH  22  25
ENDBRANCH  21  22
ENDBRANCH  20  21
ENDBRANCH  17  20
ENDBRANCH  16  17
ENDBRANCH  15  16
ENDBRANCH   1  14
TORSDOF 11
ENDMDL