MODEL 5
REMARK VINA RESULT: -7.517329805      2.543      3.372
REMARK  10 active torsions:
REMARK  status: ('A' for Active; 'I' for Inactive)
REMARK    1  A    between atoms: C2_2  and  C3_3
REMARK    2  A    between atoms: C3_3  and  C4_4
REMARK    3  A    between atoms: C4_4  and  C5_5
REMARK    4  A    between atoms: C5_5  and  C6_6
REMARK    5  A    between atoms: C6_6  and  N1_7
REMARK    6  A    between atoms: C7_8  and  C8_9
REMARK    7  A    between atoms: C8_9  and  O1_10
REMARK    8  A    between atoms: C11_14  and  C12_15
REMARK    9  A    between atoms: C12_15  and  N2_16
REMARK   10  A    between atoms: N4_23  and  O3_25
ROOT
HETATM    1  N1  UNL     1      16.986 -12.046  19.425  1.00  0.00    -0.351 N
HETATM    2  C7  UNL     1      16.598 -11.867  18.154  1.00  0.00     0.035 A
HETATM    3  C9  UNL     1      15.240 -11.980  17.838  1.00  0.00     0.028 A
HETATM    4  C10 UNL     1      14.295 -12.268  18.793  1.00  0.00     0.013 A
HETATM    5  C11 UNL     1      14.724 -12.447  20.087  1.00  0.00    -0.016 A
HETATM    6  C16 UNL     1      16.077 -12.331  20.383  1.00  0.00     0.016 A
HETATM    7  C17 UNL     1      16.446 -12.533  21.798  1.00  0.00     0.069 C
ENDROOT
BRANCH   5   8
HETATM    8  C12 UNL     1      13.716 -12.760  21.127  1.00  0.00     0.189 C
BRANCH   8   9
HETATM    9  N2  UNL     1      13.176 -11.562  21.725  1.00  0.00    -0.280 N
HETATM   10  C13 UNL     1      13.730 -10.351  21.534  1.00  0.00     0.185 A
HETATM   11  C14 UNL     1      13.179  -9.242  22.128  1.00  0.00     0.276 A
HETATM   12  O2  UNL     1      13.682  -8.103  21.961  1.00  0.00    -0.266 OA
HETATM   13  N3  UNL     1      12.085  -9.394  22.896  1.00  0.00    -0.152 N
HETATM   14  C15 UNL     1      11.541 -10.608  23.080  1.00  0.00     0.719 A
ATOM     15  H3  UNL     1      11.665  -8.579  23.343  1.00  0.00     0.188 HD
HETATM   16  N4  UNL     1      10.498 -10.761  23.812  1.00  0.00    -0.097 N
HETATM   17  N5  UNL     1      12.105 -11.666  22.485  1.00  0.00    -0.128 N
ATOM     18  H4  UNL     1      10.072  -9.951  24.263  1.00  0.00     0.213 HD
ATOM     19  H5  UNL     1      11.689 -12.587  22.625  1.00  0.00     0.206 HD
BRANCH  16  20
HETATM   20  O3  UNL     1       9.952 -12.006  23.992  1.00  0.00    -0.276 OA
ATOM     21  H3  UNL     1      10.187 -12.722  23.414  1.00  0.00     0.245 HD
ENDBRANCH  16  20
ENDBRANCH   8   9
ENDBRANCH   5   8
BRANCH   1  22
HETATM   22  C6  UNL     1      18.365 -11.930  19.766  1.00  0.00     0.132 C
BRANCH  22  23
HETATM   23  C5  UNL     1      19.006 -13.187  20.248  1.00  0.00     0.047 C
BRANCH  23  24
HETATM   24  C4  UNL     1      20.269 -12.860  20.947  1.00  0.00    -0.025 C
BRANCH  24  25
HETATM   25  C3  UNL     1      20.627 -13.368  22.111  1.00  0.00    -0.005 C
BRANCH  25  26
HETATM   26  C2  UNL     1      19.696 -13.426  23.242  1.00  0.00    -0.011 C
HETATM   27  C1  UNL     1      20.036 -13.055  24.455  1.00  0.00     0.011 C
ENDBRANCH  25  26
ENDBRANCH  24  25
ENDBRANCH  23  24
ENDBRANCH  22  23
ENDBRANCH   1  22
BRANCH   2  28
HETATM   28  C8  UNL     1      17.477 -11.562  17.027  1.00  0.00     0.221 C
BRANCH  28  29
HETATM   29  O1  UNL     1      16.894 -10.500  16.299  1.00  0.00    -0.395 OA
ATOM     30  H1  UNL     1      17.318 -10.464  15.449  1.00  0.00     0.209 HD
ENDBRANCH  28  29
ENDBRANCH   2  28
TORSDOF 10
ENDMDL