MODEL 1
REMARK VINA RESULT: -7.621841310      0.000      0.000
REMARK  10 active torsions:
REMARK  status: ('A' for Active; 'I' for Inactive)
REMARK    1  A    between atoms: N3_6  and  C3_7
REMARK    2  A    between atoms: C4_8  and  C5_9
REMARK    3  A    between atoms: C5_9  and  C6_10
REMARK    4  A    between atoms: C6_10  and  C7_11
REMARK    5  A    between atoms: C7_11  and  C8_12
REMARK    6  A    between atoms: C8_12  and  C9_13
REMARK    7  A    between atoms: N4_15  and  C11_16
REMARK    8  A    between atoms: C11_16  and  C12_17
REMARK    9  A    between atoms: C15_20  and  C16_21
REMARK   10  A    between atoms: C16_21  and  O1_22
ROOT
HETATM    1  C9  UNL     1      16.649 -12.287  21.371  1.00  0.00     0.045 A
HETATM    2  C10 UNL     1      15.265 -12.317  21.293  1.00  0.00     0.138 A
HETATM    3  N4  UNL     1      14.827 -11.254  20.593  1.00  0.00    -0.282 N
HETATM    4  N6  UNL     1      15.912 -10.572  20.241  1.00  0.00    -0.240 N
ATOM      5  H6  UNL     1      15.904  -9.709  19.698  1.00  0.00     0.208 HD
HETATM    6  N7  UNL     1      16.997 -11.166  20.689  1.00  0.00    -0.289 N
ATOM      7  H7  UNL     1      17.952 -10.836  20.548  1.00  0.00     0.188 HD
ENDROOT
BRANCH   1   8
HETATM    8  C8  UNL     1      17.571 -13.243  22.037  1.00  0.00     0.072 C
BRANCH   8   9
HETATM    9  C7  UNL     1      18.978 -12.684  22.117  1.00  0.00     0.101 C
BRANCH   9  10
HETATM   10  C6  UNL     1      19.742 -13.357  23.168  1.00  0.00    -0.092 C
BRANCH  10  11
HETATM   11  C5  UNL     1      20.368 -13.927  24.048  1.00  0.00    -0.013 C
BRANCH  11  12
HETATM   12  C4  UNL     1      21.090 -14.609  25.056  1.00  0.00     0.010 C
HETATM   13  C3  UNL     1      21.695 -15.206  25.910  1.00  0.00     0.049 C
BRANCH  13  14
HETATM   14  N3  UNL     1      22.392 -15.929  26.913  1.00  0.00    -0.206 N
HETATM   15  N2  UNL     1      23.226 -15.433  27.801  1.00  0.00    -0.281 N
HETATM   16  C2  UNL     1      23.713 -16.391  28.608  1.00  0.00     0.201 A
ATOM     17  H2  UNL     1      23.473 -14.445  27.869  1.00  0.00     0.189 HD
HETATM   18  N1  UNL     1      23.147 -17.545  28.193  1.00  0.00    -0.340 N
HETATM   19  C1  UNL     1      23.419 -18.824  28.815  1.00  0.00     0.158 C
HETATM   20  C17 UNL     1      22.340 -17.251  27.155  1.00  0.00     0.220 A
ENDBRANCH  13  14
ENDBRANCH  11  12
ENDBRANCH  10  11
ENDBRANCH   9  10
ENDBRANCH   8   9
ENDBRANCH   1   8
BRANCH   3  21
HETATM   21  C11 UNL     1      13.456 -10.900  20.276  1.00  0.00     0.206 C
BRANCH  21  22
HETATM   22  C12 UNL     1      12.706 -10.523  21.480  1.00  0.00     0.029 A
HETATM   23  C13 UNL     1      11.774 -11.273  22.154  1.00  0.00     0.029 A
HETATM   24  C14 UNL     1      11.309 -10.536  23.239  1.00  0.00     0.029 A
HETATM   25  C15 UNL     1      11.983  -9.337  23.195  1.00  0.00     0.033 A
HETATM   26  N5  UNL     1      12.810  -9.359  22.134  1.00  0.00    -0.360 N
ATOM     27  H5  UNL     1      13.430  -8.595  21.865  1.00  0.00     0.165 HD
BRANCH  25  28
HETATM   28  C16 UNL     1      11.799  -8.216  24.184  1.00  0.00     0.220 C
BRANCH  28  29
HETATM   29  O1  UNL     1      12.995  -7.483  24.240  1.00  0.00    -0.395 OA
ATOM     30  H1  UNL     1      12.789  -6.571  24.077  1.00  0.00     0.209 HD
ENDBRANCH  28  29
ENDBRANCH  25  28
ENDBRANCH  21  22
ENDBRANCH   3  21
TORSDOF 10
ENDMDL