MODEL 1
REMARK VINA RESULT: -7.390775232      0.000      0.000
REMARK  8 active torsions:
REMARK  status: ('A' for Active; 'I' for Inactive)
REMARK       I    between atoms: C2_2  and  N1_4
REMARK    1  A    between atoms: N1_4  and  C3_6
REMARK    2  A    between atoms: C3_6  and  C4_7
REMARK    3  A    between atoms: C4_7  and  N2_8
REMARK    4  A    between atoms: N5_17  and  C8_18
REMARK    5  A    between atoms: C8_18  and  C9_19
REMARK    6  A    between atoms: C10_20  and  C11_21
REMARK    7  A    between atoms: C11_21  and  C12_22
REMARK    8  A    between atoms: C12_22  and  N6_23
ROOT
HETATM    1  N2  UNL     1      17.438 -13.845  21.913  1.00  0.00    -0.051 N
HETATM    2  C5  UNL     1      18.738 -13.797  21.199  1.00  0.00     0.274 C
HETATM    3  C6  UNL     1      16.919 -15.150  21.519  1.00  0.00     0.376 C
HETATM    4  N3  UNL     1      15.549 -15.366  21.938  1.00  0.00    -0.202 N
ATOM      5  H3  UNL     1      15.349 -16.088  22.630  1.00  0.00     0.179 HD
HETATM    6  C7  UNL     1      14.459 -14.583  21.400  1.00  0.00     0.672 C
HETATM    7  N4  UNL     1      13.290 -15.046  21.617  1.00  0.00    -0.235 N
ATOM      8  H41 UNL     1      12.521 -14.494  21.237  1.00  0.00     0.174 HD
ATOM      9  H42 UNL     1      13.241 -15.918  22.145  1.00  0.00     0.174 HD
HETATM   10  N5  UNL     1      14.527 -13.361  20.660  1.00  0.00    -0.198 N
HETATM   11  C13 UNL     1      15.767 -12.619  20.468  1.00  0.00     0.067 C
HETATM   12  C14 UNL     1      16.378 -12.800  19.127  1.00  0.00     0.041 C
HETATM   13  C15 UNL     1      15.300 -11.144  20.497  1.00  0.00     0.041 C
HETATM   14  C16 UNL     1      16.675 -12.734  21.646  1.00  0.00     0.269 C
ENDROOT
BRANCH  10  15
HETATM   15  C8  UNL     1      13.295 -12.859  20.083  1.00  0.00     0.236 C
BRANCH  15  16
HETATM   16  C9  UNL     1      12.599 -12.141  21.177  1.00  0.00    -0.086 C
HETATM   17  C10 UNL     1      12.022 -11.554  22.047  1.00  0.00    -0.103 C
BRANCH  17  18
HETATM   18  C11 UNL     1      11.346 -10.845  23.106  1.00  0.00     0.115 C
BRANCH  18  19
HETATM   19  C12 UNL     1      11.689  -9.376  23.029  1.00  0.00     0.151 C
BRANCH  19  20
HETATM   20  N6  UNL     1      11.835  -8.829  24.349  1.00  0.00    -0.342 N
HETATM   21  N7  UNL     1      12.370  -7.715  24.452  1.00  0.00    -0.349 N
ATOM     22  H72 UNL     1      12.687  -7.218  23.620  1.00  0.00     0.176 HD
ATOM     23  H71 UNL     1      12.474  -7.326  25.389  1.00  0.00     0.176 HD
ATOM     24  H6  UNL     1      11.513  -9.338  25.171  1.00  0.00     0.179 HD
ENDBRANCH  19  20
ENDBRANCH  18  19
ENDBRANCH  17  18
ENDBRANCH  15  16
ENDBRANCH  10  15
BRANCH   1  25
HETATM   25  C4  UNL     1      17.765 -14.003  23.301  1.00  0.00     0.258 C
BRANCH  25  26
HETATM   26  C3  UNL     1      19.182 -13.870  23.674  1.00  0.00     0.150 C
BRANCH  26  27
HETATM   27  N1  UNL     1      19.369 -13.404  25.016  1.00  0.00    -0.360 N
HETATM   28  C2  UNL     1      20.670 -13.042  25.452  1.00  0.00     0.213 C
HETATM   29  C1  UNL     1      20.861 -12.557  26.844  1.00  0.00     0.117 C
HETATM   30  O1  UNL     1      21.634 -13.130  24.674  1.00  0.00    -0.274 OA
ATOM     31  H1  UNL     1      18.575 -13.334  25.651  1.00  0.00     0.162 HD
ENDBRANCH  26  27
ENDBRANCH  25  26
ENDBRANCH   1  25
TORSDOF 8
ENDMDL