MODEL 5
REMARK VINA RESULT: -7.197922435      2.103      3.007
REMARK  10 active torsions:
REMARK  status: ('A' for Active; 'I' for Inactive)
REMARK    1  A    between atoms: C2_2  and  C3_3
REMARK    2  A    between atoms: C3_3  and  N1_4
REMARK    3  A    between atoms: C5_6  and  C6_7
REMARK    4  A    between atoms: C6_7  and  C7_8
REMARK    5  A    between atoms: C7_8  and  N2_9
REMARK    6  A    between atoms: N2_9  and  N3_11
REMARK    7  A    between atoms: N3_11  and  N4_13
REMARK    8  A    between atoms: C10_19  and  C11_20
REMARK       I    between atoms: C11_20  and  N6_22
REMARK    9  A    between atoms: N6_22  and  C12_24
REMARK   10  A    between atoms: C13_29  and  N9_30
ROOT
HETATM    1  N1  UNL     1      16.630 -12.221  19.636  1.00  0.00    -0.349 N
HETATM    2  C4  UNL     1      17.831 -12.827  19.927  1.00  0.00     0.116 A
HETATM    3  C5  UNL     1      18.082 -13.427  21.134  1.00  0.00     0.028 A
HETATM    4  N5  UNL     1      17.126 -13.426  22.073  1.00  0.00    -0.361 N
HETATM    5  C8  UNL     1      17.357 -14.055  23.380  1.00  0.00     0.155 C
HETATM    6  C9  UNL     1      15.953 -12.847  21.820  1.00  0.00     0.126 A
HETATM    7  C10 UNL     1      15.690 -12.228  20.577  1.00  0.00     0.119 A
ENDROOT
BRANCH   7   8
HETATM    8  C11 UNL     1      14.408 -11.612  20.376  1.00  0.00     0.288 C
HETATM    9  O1  UNL     1      13.470 -12.035  19.684  1.00  0.00    -0.265 OA
HETATM   10  N6  UNL     1      14.111 -10.340  21.031  1.00  0.00    -0.152 N
ATOM     11  H6  UNL     1      14.656  -9.501  20.831  1.00  0.00     0.187 HD
BRANCH  10  12
HETATM   12  C12 UNL     1      13.137 -10.321  21.867  1.00  0.00     0.714 A
HETATM   13  N7  UNL     1      12.755  -9.262  22.596  1.00  0.00    -0.117 N
HETATM   14  N8  UNL     1      11.711  -9.619  23.349  1.00  0.00    -0.118 N
ATOM     15  H7  UNL     1      13.189  -8.340  22.578  1.00  0.00     0.206 HD
HETATM   16  C13 UNL     1      11.415 -10.891  23.117  1.00  0.00     0.705 A
ATOM     17  H8  UNL     1      11.218  -9.008  24.002  1.00  0.00     0.206 HD
HETATM   18  N10 UNL     1      12.303 -11.315  22.199  1.00  0.00    -0.020 N
ATOM     19  H10 UNL     1      12.336 -12.257  21.811  1.00  0.00     0.203 HD
BRANCH  16  20
HETATM   20  N9  UNL     1      10.480 -11.599  23.644  1.00  0.00    -0.233 N
ATOM     21  H92 UNL     1       9.479 -11.409  23.582  1.00  0.00     0.174 HD
ATOM     22  H91 UNL     1      10.569 -12.449  24.201  1.00  0.00     0.174 HD
ENDBRANCH  16  20
ENDBRANCH  10  12
ENDBRANCH   7   8
BRANCH   1  23
HETATM   23  C3  UNL     1      16.502 -11.626  18.327  1.00  0.00     0.128 C
BRANCH  23  24
HETATM   24  C2  UNL     1      16.011 -12.604  17.292  1.00  0.00     0.016 C
HETATM   25  C1  UNL     1      15.123 -11.881  16.296  1.00  0.00     0.006 C
ENDBRANCH  23  24
ENDBRANCH   1  23
BRANCH   3  26
HETATM   26  C6  UNL     1      19.396 -14.070  21.409  1.00  0.00     0.080 C
BRANCH  26  27
HETATM   27  C7  UNL     1      20.438 -13.065  21.844  1.00  0.00     0.147 C
BRANCH  27  28
HETATM   28  N2  UNL     1      21.007 -13.379  23.123  1.00  0.00    -0.322 N
ATOM     29  H2  UNL     1      20.417 -13.575  23.931  1.00  0.00     0.181 HD
BRANCH  28  30
HETATM   30  N3  UNL     1      22.251 -13.402  23.210  1.00  0.00    -0.254 N
ATOM     31  H3  UNL     1      22.519 -13.442  22.227  1.00  0.00     0.207 HD
BRANCH  30  32
HETATM   32  N4  UNL     1      23.369 -13.406  23.767  1.00  0.00    -0.331 N
ATOM     33  H42 UNL     1      23.568 -12.407  23.712  1.00  0.00     0.178 HD
ATOM     34  H41 UNL     1      24.187 -13.797  24.235  1.00  0.00     0.178 HD
ENDBRANCH  30  32
ENDBRANCH  28  30
ENDBRANCH  27  28
ENDBRANCH  26  27
ENDBRANCH   3  26
TORSDOF 10
ENDMDL