MODEL 4
REMARK VINA RESULT: -7.107690551      3.111      4.321
REMARK  8 active torsions:
REMARK  status: ('A' for Active; 'I' for Inactive)
REMARK    1  A    between atoms: N2_6  and  C4_7
REMARK    2  A    between atoms: C4_7  and  C5_8
REMARK    3  A    between atoms: C5_8  and  C6_9
REMARK    4  A    between atoms: C6_9  and  C7_10
REMARK    5  A    between atoms: C7_10  and  N3_11
REMARK    6  A    between atoms: C12_16  and  C13_17
REMARK    7  A    between atoms: C13_17  and  C14_18
REMARK    8  A    between atoms: C15_23  and  N5_24
ROOT
HETATM    1  N3  UNL     1      15.766 -12.407  20.254  1.00  0.00    -0.354 N
HETATM    2  C8  UNL     1      14.994 -11.448  20.789  1.00  0.00     0.123 A
HETATM    3  C9  UNL     1      13.800 -11.674  21.432  1.00  0.00     0.094 A
HETATM    4  C10 UNL     1      13.374 -12.978  21.527  1.00  0.00     0.080 A
HETATM    5  C11 UNL     1      14.195 -13.977  20.962  1.00  0.00     0.062 A
HETATM    6  C12 UNL     1      15.373 -13.710  20.334  1.00  0.00     0.043 A
HETATM    7  N4  UNL     1      12.144 -12.976  22.213  1.00  0.00    -0.190 N
ATOM      8  H4  UNL     1      11.572 -13.788  22.443  1.00  0.00     0.184 HD
HETATM    9  C15 UNL     1      11.856 -11.623  22.520  1.00  0.00     0.678 A
HETATM   10  N6  UNL     1      12.945 -10.875  21.994  1.00  0.00    -0.184 N
HETATM   11  C16 UNL     1      13.046  -9.434  22.093  1.00  0.00     0.175 C
ENDROOT
BRANCH   1  12
HETATM   12  C7  UNL     1      16.970 -11.992  19.600  1.00  0.00     0.129 C
BRANCH  12  13
HETATM   13  C6  UNL     1      17.968 -11.573  20.653  1.00  0.00     0.022 C
BRANCH  13  14
HETATM   14  C5  UNL     1      19.315 -12.240  20.462  1.00  0.00     0.023 C
BRANCH  14  15
HETATM   15  C4  UNL     1      19.272 -13.520  21.260  1.00  0.00     0.148 C
BRANCH  15  16
HETATM   16  N2  UNL     1      20.006 -13.404  22.503  1.00  0.00    -0.303 N
HETATM   17  N1  UNL     1      21.320 -13.550  22.584  1.00  0.00    -0.310 N
HETATM   18  C3  UNL     1      21.722 -13.389  23.861  1.00  0.00     0.115 A
ATOM     19  H1  UNL     1      21.936 -13.754  21.797  1.00  0.00     0.186 HD
HETATM   20  C2  UNL     1      20.607 -13.127  24.632  1.00  0.00    -0.028 A
HETATM   21  C1  UNL     1      20.587 -12.883  26.098  1.00  0.00     0.051 C
HETATM   22  C17 UNL     1      19.551 -13.147  23.730  1.00  0.00     0.118 A
ENDBRANCH  15  16
ENDBRANCH  14  15
ENDBRANCH  13  14
ENDBRANCH  12  13
ENDBRANCH   1  12
BRANCH   6  23
HETATM   23  C13 UNL     1      16.152 -14.626  19.830  1.00  0.00     0.114 C
BRANCH  23  24
HETATM   24  C14 UNL     1      16.447 -15.917  20.379  1.00  0.00     0.200 C
HETATM   25  O1  UNL     1      16.278 -16.961  19.613  1.00  0.00    -0.644 OA
HETATM   26  O2  UNL     1      16.895 -16.144  21.648  1.00  0.00    -0.644 OA
ENDBRANCH  23  24
ENDBRANCH   6  23
BRANCH   9  27
HETATM   27  N5  UNL     1      10.823 -11.137  23.150  1.00  0.00    -0.234 N
ATOM     28  H52 UNL     1       9.844 -11.329  22.937  1.00  0.00     0.174 HD
ATOM     29  H51 UNL     1      10.809 -10.498  23.945  1.00  0.00     0.174 HD
ENDBRANCH   9  27
TORSDOF 8
ENDMDL