MODEL 5
REMARK VINA RESULT: -8.851196739      1.635      2.041
REMARK  2 active torsions:
REMARK  status: ('A' for Active; 'I' for Inactive)
REMARK    1  A    between atoms: C3_5  and  C4_6
REMARK    2  A    between atoms: C5_16  and  C6_17
REMARK       I    between atoms: C6_17  and  N6_19
ROOT
HETATM    1  C1  UNL     1      54.702  -7.686  43.968  1.00  0.00     0.070 C
HETATM    2  C2  UNL     1      53.456  -8.497  43.667  1.00  0.00     0.029 A
HETATM    3  N1  UNL     1      53.403  -9.778  43.867  1.00  0.00    -0.350 N
ATOM      4  H1  UNL     1      54.215 -10.272  44.239  1.00  0.00     0.166 HD
HETATM    5  C3  UNL     1      52.298 -10.441  43.591  1.00  0.00     0.122 A
HETATM    6  S1  UNL     1      51.266  -9.219  43.016  1.00  0.00    -0.061 SA
HETATM    7  C5  UNL     1      52.330  -7.889  43.164  1.00  0.00     0.097 A
ENDROOT
BRANCH   7   8
HETATM    8  C6  UNL     1      52.133  -6.465  42.849  1.00  0.00     0.267 C
HETATM    9  O1  UNL     1      51.030  -6.033  42.452  1.00  0.00    -0.267 OA
HETATM   10  N6  UNL     1      53.210  -5.559  42.995  1.00  0.00    -0.291 N
HETATM   11  C7  UNL     1      53.826  -5.044  41.984  1.00  0.00     0.218 A
ATOM     12  H6  UNL     1      53.512  -5.304  43.935  1.00  0.00     0.172 HD
HETATM   13  N7  UNL     1      53.770  -5.094  40.566  1.00  0.00    -0.255 N
HETATM   14  N9  UNL     1      54.902  -4.139  41.838  1.00  0.00    -0.255 N
HETATM   15  N8  UNL     1      54.741  -4.278  40.455  1.00  0.00    -0.237 N
ATOM     16  H7  UNL     1      53.182  -5.590  39.897  1.00  0.00     0.191 HD
ATOM     17  H8  UNL     1      55.224  -3.874  39.652  1.00  0.00     0.208 HD
ATOM     18  H9  UNL     1      55.519  -3.619  42.461  1.00  0.00     0.191 HD
ENDBRANCH   7   8
BRANCH   5  19
HETATM   19  C4  UNL     1      52.086 -11.875  43.762  1.00  0.00     0.171 A
HETATM   20  N2  UNL     1      52.974 -12.794  44.191  1.00  0.00    -0.266 N
HETATM   21  N3  UNL     1      52.367 -13.968  44.194  1.00  0.00    -0.227 N
ATOM     22  H2  UNL     1      53.941 -12.615  44.464  1.00  0.00     0.190 HD
HETATM   23  N4  UNL     1      51.123 -13.838  43.782  1.00  0.00    -0.227 N
ATOM     24  H3  UNL     1      52.800 -14.848  44.474  1.00  0.00     0.210 HD
HETATM   25  N5  UNL     1      50.954 -12.554  43.518  1.00  0.00    -0.266 N
ATOM     26  H4  UNL     1      50.429 -14.580  43.686  1.00  0.00     0.210 HD
ATOM     27  H5  UNL     1      50.087 -12.139  43.178  1.00  0.00     0.190 HD
ENDBRANCH   5  19
TORSDOF 2
ENDMDL