MODEL 1
REMARK VINA RESULT: -8.326401649      0.000      0.000
REMARK  5 active torsions:
REMARK  status: ('A' for Active; 'I' for Inactive)
REMARK    1  A    between atoms: C2_2  and  O1_3
REMARK    2  A    between atoms: N1_10  and  O4_12
REMARK    3  A    between atoms: C6_15  and  S1_16
REMARK    4  A    between atoms: S1_16  and  C7_17
REMARK    5  A    between atoms: C7_17  and  C8_18
ROOT
HETATM    1  C1  UNL     1      52.660  -8.302  43.527  1.00  0.00     0.089 C
HETATM    2  C2  UNL     1      53.507  -7.468  42.572  1.00  0.00     0.227 C
HETATM    3  O2  UNL     1      52.745  -6.461  41.981  1.00  0.00    -0.343 OA
HETATM    4  C3  UNL     1      53.581  -5.665  41.237  1.00  0.00     0.244 C
HETATM    5  C4  UNL     1      54.366  -4.748  42.146  1.00  0.00     0.230 A
HETATM    6  O3  UNL     1      54.766  -5.481  43.269  1.00  0.00    -0.289 OA
HETATM    7  C5  UNL     1      54.678  -6.877  43.275  1.00  0.00     0.204 C
HETATM    8  N1  UNL     1      55.553  -7.625  43.852  1.00  0.00    -0.246 N
ATOM      9  H1  UNL     1      56.352  -7.210  44.332  1.00  0.00     0.196 HD
HETATM   10  O5  UNL     1      55.410  -4.055  41.433  1.00  0.00    -0.328 OA
HETATM   11  C6  UNL     1      54.234  -3.356  42.017  1.00  0.00     0.252 A
ENDROOT
BRANCH  11  12
HETATM   12  S1  UNL     1      54.766  -2.143  43.219  1.00  0.00    -0.121 SA
BRANCH  12  13
HETATM   13  C7  UNL     1      55.715  -0.852  42.371  1.00  0.00     0.189 C
BRANCH  13  14
HETATM   14  C8  UNL     1      57.083  -0.735  42.867  1.00  0.00     0.182 C
HETATM   15  O6  UNL     1      57.676   0.367  42.868  1.00  0.00    -0.647 OA
HETATM   16  O7  UNL     1      57.750  -1.845  43.347  1.00  0.00    -0.647 OA
ENDBRANCH  13  14
ENDBRANCH  12  13
ENDBRANCH  11  12
BRANCH   2  17
HETATM   17  O1  UNL     1      53.906  -8.325  41.548  1.00  0.00    -0.359 OA
ATOM     18  H1  UNL     1      54.715  -7.969  41.200  1.00  0.00     0.213 HD
ENDBRANCH   2  17
BRANCH   8  19
HETATM   19  O4  UNL     1      55.397  -8.970  43.814  1.00  0.00    -0.288 OA
ATOM     20  H4  UNL     1      55.912  -9.477  43.197  1.00  0.00     0.244 HD
ENDBRANCH   8  19
TORSDOF 5
ENDMDL