MODEL 3
REMARK VINA RESULT: -7.338599710      1.955      2.376
REMARK  5 active torsions:
REMARK  status: ('A' for Active; 'I' for Inactive)
REMARK    1  A    between atoms: O1_2  and  C2_3
REMARK    2  A    between atoms: N1_8  and  O2_10
REMARK    3  A    between atoms: C8_13  and  O3_14
REMARK    4  A    between atoms: C8_13  and  O4_16
REMARK    5  A    between atoms: C10_19  and  O6_20
ROOT
HETATM    1  C2  UNL     1      54.386  -8.883  43.453  1.00  0.00     0.265 C
HETATM    2  C3  UNL     1      54.798  -7.473  43.828  1.00  0.00     0.104 C
HETATM    3  C4  UNL     1      54.258  -6.652  42.644  1.00  0.00     0.125 C
HETATM    4  C5  UNL     1      55.189  -5.542  42.351  1.00  0.00     0.098 C
HETATM    5  C6  UNL     1      54.544  -4.244  42.070  1.00  0.00     0.020 C
HETATM    6  N1  UNL     1      55.069  -3.315  41.342  1.00  0.00    -0.277 N
ATOM      7  H1  UNL     1      54.590  -2.432  41.172  1.00  0.00     0.193 HD
HETATM    8  C7  UNL     1      53.202  -4.002  42.667  1.00  0.00     0.156 C
HETATM    9  C8  UNL     1      52.417  -5.273  42.310  1.00  0.00     0.285 C
HETATM   10  O5  UNL     1      52.980  -6.311  42.967  1.00  0.00    -0.316 OA
HETATM   11  C10 UNL     1      54.220  -7.738  41.596  1.00  0.00     0.295 C
HETATM   12  O7  UNL     1      53.602  -8.770  42.307  1.00  0.00    -0.329 OA
ENDROOT
BRANCH  11  13
HETATM   13  O6  UNL     1      55.475  -8.194  41.230  1.00  0.00    -0.368 OA
ATOM     14  H6  UNL     1      55.452  -8.882  40.575  1.00  0.00     0.212 HD
ENDBRANCH  11  13
BRANCH   1  15
HETATM   15  O1  UNL     1      53.668  -9.393  44.529  1.00  0.00    -0.366 OA
HETATM   16  C1  UNL     1      52.944 -10.528  44.188  1.00  0.00     0.204 C
ENDBRANCH   1  15
BRANCH   9  17
HETATM   17  O3  UNL     1      52.437  -5.351  40.929  1.00  0.00    -0.343 OA
ATOM     18  H3  UNL     1      52.488  -4.454  40.621  1.00  0.00     0.215 HD
ENDBRANCH   9  17
BRANCH   9  19
HETATM   19  O4  UNL     1      51.087  -5.154  42.699  1.00  0.00    -0.338 OA
HETATM   20  C9  UNL     1      51.078  -4.537  43.943  1.00  0.00     0.208 C
ENDBRANCH   9  19
BRANCH   6  21
HETATM   21  O2  UNL     1      56.311  -3.582  40.809  1.00  0.00    -0.290 OA
ATOM     22  H2  UNL     1      57.055  -3.188  41.250  1.00  0.00     0.244 HD
ENDBRANCH   6  21
TORSDOF 5
ENDMDL