MODEL 1
REMARK VINA RESULT: -8.639941582      0.000      0.000
REMARK  6 active torsions:
REMARK  status: ('A' for Active; 'I' for Inactive)
REMARK    1  A    between atoms: O1_2  and  C2_3
REMARK    2  A    between atoms: C2_3  and  C3_5
REMARK    3  A    between atoms: C3_5  and  C4_6
REMARK    4  A    between atoms: C4_6  and  O3_8
REMARK    5  A    between atoms: C8_13  and  O5_14
REMARK    6  A    between atoms: C9_16  and  O6_17
ROOT
HETATM    1  C3  UNL     1      53.148  -8.610  43.223  1.00  0.00     0.179 C
HETATM    2  C6  UNL     1      51.793  -9.041  42.650  1.00  0.00     0.088 C
HETATM    3  C7  UNL     1      51.444 -10.158  43.594  1.00  0.00     0.183 C
HETATM    4  O4  UNL     1      50.674 -11.147  43.061  1.00  0.00    -0.346 OA
HETATM    5  C8  UNL     1      51.035 -12.428  43.436  1.00  0.00     0.312 C
HETATM    6  C9  UNL     1      51.828 -12.548  44.669  1.00  0.00     0.315 C
HETATM    7  O7  UNL     1      52.731 -11.550  44.917  1.00  0.00    -0.324 OA
HETATM    8  C10 UNL     1      52.842 -10.753  43.811  1.00  0.00     0.294 C
HETATM    9  O8  UNL     1      53.644  -9.663  43.929  1.00  0.00    -0.335 OA
ENDROOT
BRANCH   1  10
HETATM   10  C2  UNL     1      53.003  -7.436  44.104  1.00  0.00     0.296 C
HETATM   11  O2  UNL     1      53.810  -7.134  45.022  1.00  0.00    -0.262 OA
BRANCH  10  12
HETATM   12  O1  UNL     1      51.912  -6.603  43.923  1.00  0.00    -0.324 OA
HETATM   13  C1  UNL     1      52.008  -5.236  43.640  1.00  0.00     0.213 C
ENDBRANCH  10  12
ENDBRANCH   1  10
BRANCH   1  14
HETATM   14  C4  UNL     1      54.045  -8.337  42.037  1.00  0.00     0.159 C
HETATM   15  C5  UNL     1      54.814  -7.039  42.205  1.00  0.00     0.043 C
BRANCH  14  16
HETATM   16  O3  UNL     1      54.882  -9.401  41.754  1.00  0.00    -0.392 OA
ATOM     17  H3  UNL     1      54.889 -10.049  42.448  1.00  0.00     0.210 HD
ENDBRANCH  14  16
ENDBRANCH   1  14
BRANCH   5  18
HETATM   18  O5  UNL     1      49.827 -13.141  43.618  1.00  0.00    -0.367 OA
ATOM     19  H5  UNL     1      50.046 -13.903  44.144  1.00  0.00     0.212 HD
ENDBRANCH   5  18
BRANCH   6  20
HETATM   20  O6  UNL     1      52.551 -13.759  44.651  1.00  0.00    -0.367 OA
ATOM     21  H6  UNL     1      52.181 -14.360  45.287  1.00  0.00     0.212 HD
ENDBRANCH   6  20
TORSDOF 6
ENDMDL