MODEL 5
REMARK VINA RESULT: -8.471302775      1.737      5.417
REMARK  2 active torsions:
REMARK  status: ('A' for Active; 'I' for Inactive)
REMARK    1  A    between atoms: C2_5  and  N2_6
REMARK    2  A    between atoms: C5_14  and  N4_15
ROOT
HETATM    1  N1  UNL     1      52.671 -11.659  43.846  1.00  0.00    -0.393 N
ATOM      2  H11 UNL     1      53.242 -12.451  44.140  1.00  0.00     0.156 HD
ATOM      3  H12 UNL     1      51.664 -11.807  43.789  1.00  0.00     0.156 HD
HETATM    4  C1  UNL     1      53.207 -10.512  43.552  1.00  0.00     0.133 A
HETATM    5  C2  UNL     1      52.431  -9.436  43.152  1.00  0.00     0.180 A
HETATM    6  C3  UNL     1      52.975  -8.204  42.837  1.00  0.00     0.165 A
HETATM    7  N3  UNL     1      52.236  -7.160  42.448  1.00  0.00    -0.304 N
ATOM      8  H3  UNL     1      51.225  -7.276  42.381  1.00  0.00     0.171 HD
HETATM    9  C4  UNL     1      52.768  -5.962  42.141  1.00  0.00     0.281 A
HETATM   10  O3  UNL     1      52.080  -4.980  41.777  1.00  0.00    -0.265 OA
HETATM   11  C5  UNL     1      54.140  -5.780  42.223  1.00  0.00     0.188 A
HETATM   12  C6  UNL     1      54.884  -6.869  42.626  1.00  0.00     0.160 A
HETATM   13  N5  UNL     1      54.314  -8.072  42.930  1.00  0.00    -0.243 N
HETATM   14  N6  UNL     1      55.048  -9.100  43.312  1.00  0.00    -0.256 N
ATOM     15  H6  UNL     1      56.057  -8.959  43.369  1.00  0.00     0.191 HD
HETATM   16  C7  UNL     1      54.579 -10.310  43.629  1.00  0.00     0.289 A
HETATM   17  O6  UNL     1      55.331 -11.268  43.994  1.00  0.00    -0.264 OA
ENDROOT
BRANCH   5  18
HETATM   18  N2  UNL     1      51.023  -9.634  43.075  1.00  0.00    -0.109 N
HETATM   19  O1  UNL     1      50.196  -8.736  43.258  1.00  0.00    -0.532 OA
HETATM   20  O2  UNL     1      50.564 -10.899  42.777  1.00  0.00    -0.532 OA
ENDBRANCH   5  18
BRANCH  11  21
HETATM   21  N4  UNL     1      54.697  -4.515  41.897  1.00  0.00    -0.108 N
HETATM   22  O4  UNL     1      54.926  -3.654  42.786  1.00  0.00    -0.532 OA
HETATM   23  O5  UNL     1      55.010  -4.175  40.599  1.00  0.00    -0.532 OA
ENDBRANCH  11  21
TORSDOF 2
ENDMDL