MODEL 3
REMARK VINA RESULT: -8.068456778      2.423      6.677
REMARK  6 active torsions:
REMARK  status: ('A' for Active; 'I' for Inactive)
REMARK    1  A    between atoms: O1_2  and  C2_3
REMARK    2  A    between atoms: C2_3  and  C3_5
REMARK    3  A    between atoms: C7_11  and  C8_12
REMARK    4  A    between atoms: C8_12  and  O5_14
REMARK    5  A    between atoms: O5_14  and  N2_15
REMARK    6  A    between atoms: N2_15  and  C9_17
ROOT
HETATM    1  C3  UNL     1      52.675  -6.439  43.340  1.00  0.00     0.187 C
HETATM    2  C4  UNL     1      53.896  -5.867  44.032  1.00  0.00     0.035 C
HETATM    3  C5  UNL     1      55.013  -6.848  44.160  1.00  0.00     0.038 C
HETATM    4  C6  UNL     1      54.703  -8.123  43.407  1.00  0.00     0.175 C
HETATM    5  O3  UNL     1      54.154  -7.798  42.179  1.00  0.00    -0.294 OA
HETATM    6  N1  UNL     1      52.931  -7.727  42.760  1.00  0.00    -0.166 NA
HETATM    7  C7  UNL     1      53.343  -8.616  43.821  1.00  0.00     0.219 C
ENDROOT
BRANCH   7   8
HETATM    8  C8  UNL     1      53.079 -10.050  43.576  1.00  0.00     0.303 C
HETATM    9  O4  UNL     1      53.931 -10.906  43.924  1.00  0.00    -0.261 OA
BRANCH   8  10
HETATM   10  O5  UNL     1      51.925 -10.525  42.974  1.00  0.00    -0.196 OA
BRANCH  10  11
HETATM   11  N2  UNL     1      50.934 -11.141  43.687  1.00  0.00    -0.246 N
ATOM     12  H2  UNL     1      50.325 -10.548  44.251  1.00  0.00     0.196 HD
BRANCH  11  13
HETATM   13  C9  UNL     1      50.687 -12.523  43.703  1.00  0.00     0.091 C
HETATM   14  C10 UNL     1      51.825 -13.496  43.730  1.00  0.00     0.090 C
HETATM   15  N3  UNL     1      49.501 -13.054  43.697  1.00  0.00    -0.388 N
ATOM     16  H32 UNL     1      48.726 -12.392  43.679  1.00  0.00     0.157 HD
ATOM     17  H31 UNL     1      49.322 -14.058  43.709  1.00  0.00     0.157 HD
ENDBRANCH  11  13
ENDBRANCH  10  11
ENDBRANCH   8  10
ENDBRANCH   7   8
BRANCH   1  18
HETATM   18  C2  UNL     1      52.104  -5.475  42.369  1.00  0.00     0.278 C
HETATM   19  O2  UNL     1      50.863  -5.541  42.163  1.00  0.00    -0.263 OA
BRANCH  18  20
HETATM   20  O1  UNL     1      52.830  -4.531  41.691  1.00  0.00    -0.325 OA
HETATM   21  C1  UNL     1      53.511  -4.815  40.460  1.00  0.00     0.213 C
ENDBRANCH  18  20
ENDBRANCH   1  18
TORSDOF 6
ENDMDL