MODEL 4
REMARK VINA RESULT: -7.391621889      2.774      5.050
REMARK  5 active torsions:
REMARK  status: ('A' for Active; 'I' for Inactive)
REMARK    1  A    between atoms: C2_2  and  C3_4
REMARK    2  A    between atoms: C5_8  and  S1_9
REMARK    3  A    between atoms: C7_12  and  O3_13
REMARK    4  A    between atoms: C8_15  and  O4_16
REMARK    5  A    between atoms: C9_18  and  O5_19
ROOT
HETATM    1  C3  UNL     1      54.088  -7.097  43.129  1.00  0.00     0.238 C
HETATM    2  C4  UNL     1      54.720  -6.638  44.410  1.00  0.00     0.109 C
HETATM    3  N1  UNL     1      55.186  -6.273  45.407  1.00  0.00    -0.193 NA
HETATM    4  O2  UNL     1      52.949  -6.321  43.033  1.00  0.00    -0.337 OA
HETATM    5  C5  UNL     1      53.121  -5.126  42.373  1.00  0.00     0.231 C
HETATM    6  C7  UNL     1      53.482  -5.391  40.955  1.00  0.00     0.189 C
HETATM    7  C8  UNL     1      54.850  -6.038  40.941  1.00  0.00     0.183 C
HETATM    8  C9  UNL     1      55.054  -7.036  42.012  1.00  0.00     0.206 C
ENDROOT
BRANCH   1   9
HETATM    9  C2  UNL     1      53.675  -8.489  43.399  1.00  0.00     0.174 C
HETATM   10  C1  UNL     1      52.314  -8.995  43.086  1.00  0.00     0.095 C
HETATM   11  O1  UNL     1      54.483  -9.260  43.892  1.00  0.00    -0.294 OA
ENDBRANCH   1   9
BRANCH   8  12
HETATM   12  O5  UNL     1      55.254  -8.284  41.372  1.00  0.00    -0.388 OA
ATOM     13  H5  UNL     1      56.030  -8.308  40.824  1.00  0.00     0.210 HD
ENDBRANCH   8  12
BRANCH   5  14
HETATM   14  S1  UNL     1      54.400  -4.056  43.073  1.00  0.00    -0.016 SA
HETATM   15  C6  UNL     1      54.084  -2.352  42.768  1.00  0.00     0.136 C
HETATM   16  N2  UNL     1      53.895  -1.227  42.537  1.00  0.00    -0.184 NA
ENDBRANCH   5  14
BRANCH   7  17
HETATM   17  O4  UNL     1      55.777  -4.985  41.036  1.00  0.00    -0.390 OA
ATOM     18  H4  UNL     1      56.566  -5.292  40.607  1.00  0.00     0.210 HD
ENDBRANCH   7  17
BRANCH   6  19
HETATM   19  O3  UNL     1      53.567  -4.197  40.211  1.00  0.00    -0.389 OA
ATOM     20  H3  UNL     1      52.841  -4.111  39.605  1.00  0.00     0.210 HD
ENDBRANCH   6  19
TORSDOF 5
ENDMDL