MODEL 1
REMARK VINA RESULT: -8.730110326      0.000      0.000
REMARK  5 active torsions:
REMARK  status: ('A' for Active; 'I' for Inactive)
REMARK    1  A    between atoms: C2_2  and  O2_4
REMARK    2  A    between atoms: O2_4  and  C3_5
REMARK    3  A    between atoms: C4_6  and  O3_7
REMARK    4  A    between atoms: C5_9  and  S1_10
REMARK    5  A    between atoms: C7_16  and  O4_17
ROOT
HETATM    1  S1  UNL     1      52.889 -10.099  43.487  1.00  0.00    -0.015 SA
HETATM    2  C6  UNL     1      51.422 -11.060  43.374  1.00  0.00     0.135 C
HETATM    3  N1  UNL     1      50.480 -11.698  43.307  1.00  0.00    -0.184 NA
ENDROOT
BRANCH   1   4
HETATM    4  C5  UNL     1      52.900  -8.767  42.250  1.00  0.00     0.295 C
HETATM    5  C4  UNL     1      52.092  -7.585  42.686  1.00  0.00     0.191 C
HETATM    6  C3  UNL     1      52.786  -6.694  43.658  1.00  0.00     0.185 C
HETATM    7  C8  UNL     1      54.195  -6.388  43.168  1.00  0.00     0.181 C
HETATM    8  C7  UNL     1      54.947  -7.605  42.756  1.00  0.00     0.340 C
HETATM    9  C9  UNL     1      54.979  -5.698  44.190  1.00  0.00     0.071 C
HETATM   10  N2  UNL     1      54.221  -8.438  41.822  1.00  0.00    -0.031 N
ATOM     11  H22 UNL     1      54.750  -9.283  41.607  1.00  0.00     0.281 HD
ATOM     12  H21 UNL     1      54.202  -8.008  40.896  1.00  0.00     0.281 HD
HETATM   13  N3  UNL     1      55.618  -5.152  45.013  1.00  0.00    -0.197 NA
BRANCH   5  14
HETATM   14  O3  UNL     1      50.871  -8.025  43.190  1.00  0.00    -0.390 OA
ATOM     15  H3  UNL     1      50.351  -8.442  42.514  1.00  0.00     0.210 HD
ENDBRANCH   5  14
BRANCH   6  16
HETATM   16  O2  UNL     1      52.103  -5.438  43.646  1.00  0.00    -0.312 OA
BRANCH  16  17
HETATM   17  C2  UNL     1      51.679  -4.827  42.493  1.00  0.00     0.255 C
HETATM   18  C1  UNL     1      52.574  -3.776  41.920  1.00  0.00     0.126 C
HETATM   19  O1  UNL     1      50.583  -5.159  41.969  1.00  0.00    -0.266 OA
ENDBRANCH  16  17
ENDBRANCH   6  16
BRANCH   8  20
HETATM   20  O4  UNL     1      56.103  -7.178  42.083  1.00  0.00    -0.369 OA
ATOM     21  H4  UNL     1      55.941  -6.278  41.825  1.00  0.00     0.212 HD
ENDBRANCH   8  20
ENDBRANCH   1   4
TORSDOF 5
ENDMDL