MODEL 5
REMARK VINA RESULT: -7.360375970      3.001      6.297
REMARK  4 active torsions:
REMARK  status: ('A' for Active; 'I' for Inactive)
REMARK    1  A    between atoms: C2_2  and  N1_3
REMARK    2  A    between atoms: C3_4  and  C4_5
REMARK    3  A    between atoms: N3_9  and  O2_10
REMARK    4  A    between atoms: C7_15  and  N5_16
ROOT
HETATM    1  C4  UNL     1      54.113  -4.299  42.059  1.00  0.00     0.115 A
HETATM    2  N2  UNL     1      54.504  -4.240  40.742  1.00  0.00    -0.235 N
ATOM      3  H2  UNL     1      54.232  -5.001  40.120  1.00  0.00     0.197 HD
HETATM    4  O1  UNL     1      55.198  -3.266  40.253  1.00  0.00    -0.127 OA
HETATM    5  N3  UNL     1      55.588  -2.254  40.974  1.00  0.00    -0.089 N
HETATM    6  C5  UNL     1      55.263  -2.210  42.272  1.00  0.00     0.198 A
HETATM    7  C6  UNL     1      55.656  -1.137  43.140  1.00  0.00     0.125 C
HETATM    8  N4  UNL     1      55.989  -0.248  43.837  1.00  0.00    -0.190 NA
HETATM    9  C7  UNL     1      54.513  -3.243  42.833  1.00  0.00     0.100 A
ENDROOT
BRANCH   5  10
HETATM   10  O2  UNL     1      56.326  -1.220  40.454  1.00  0.00    -0.260 OA
ATOM     11  H2  UNL     1      56.447  -0.398  40.914  1.00  0.00     0.247 HD
ENDBRANCH   5  10
BRANCH   9  12
HETATM   12  N5  UNL     1      54.238  -3.197  44.092  1.00  0.00    -0.395 N
ATOM     13  H52 UNL     1      53.352  -3.585  44.415  1.00  0.00     0.156 HD
ATOM     14  H51 UNL     1      54.876  -2.758  44.756  1.00  0.00     0.156 HD
ENDBRANCH   9  12
BRANCH   1  15
HETATM   15  C3  UNL     1      53.379  -5.449  42.546  1.00  0.00     0.105 A
HETATM   16  N1  UNL     1      53.767  -6.557  43.172  1.00  0.00    -0.180 N
HETATM   17  C10 UNL     1      52.668  -7.319  43.484  1.00  0.00     0.678 A
HETATM   18  N6  UNL     1      51.593  -6.661  43.038  1.00  0.00    -0.194 N
HETATM   19  N7  UNL     1      52.648  -8.468  44.109  1.00  0.00    -0.234 N
HETATM   20  C8  UNL     1      52.000  -5.529  42.468  1.00  0.00     0.052 A
ATOM     21  H6  UNL     1      50.625  -6.974  43.120  1.00  0.00     0.184 HD
HETATM   22  C9  UNL     1      51.103  -4.515  41.841  1.00  0.00     0.071 C
ATOM     23  H72 UNL     1      53.468  -8.969  44.449  1.00  0.00     0.174 HD
ATOM     24  H71 UNL     1      51.832  -9.033  44.340  1.00  0.00     0.174 HD
BRANCH  16  25
HETATM   25  C2  UNL     1      55.096  -6.946  43.537  1.00  0.00     0.143 C
HETATM   26  C1  UNL     1      55.520  -6.322  44.873  1.00  0.00     0.027 C
ENDBRANCH  16  25
ENDBRANCH   1  15
TORSDOF 4
ENDMDL