MODEL 2
REMARK VINA RESULT: -8.753870477      1.961      6.633
REMARK  5 active torsions:
REMARK  status: ('A' for Active; 'I' for Inactive)
REMARK    1  A    between atoms: O1_2  and  C2_3
REMARK    2  A    between atoms: C2_3  and  N2_7
REMARK    3  A    between atoms: C5_12  and  C6_13
REMARK    4  A    between atoms: C6_13  and  O3_14
REMARK    5  A    between atoms: C6_13  and  N4_16
REMARK       I    between atoms: N4_16  and  C7_17
ROOT
HETATM    1  N2  UNL     1      53.349  -4.703  42.560  1.00  0.00    -0.009 N
HETATM    2  O2  UNL     1      52.015  -4.726  42.911  1.00  0.00    -0.255 OA
HETATM    3  C3  UNL     1      51.656  -5.811  43.654  1.00  0.00     0.223 C
HETATM    4  C4  UNL     1      52.803  -6.701  44.060  1.00  0.00     0.178 C
HETATM    5  N3  UNL     1      53.625  -7.036  42.917  1.00  0.00    -0.159 N
HETATM    6  C5  UNL     1      54.225  -8.029  42.338  1.00  0.00     0.177 A
HETATM    7  N5  UNL     1      54.876  -7.581  41.221  1.00  0.00    -0.269 N
ATOM      8  H5  UNL     1      55.426  -8.158  40.584  1.00  0.00     0.189 HD
HETATM    9  N6  UNL     1      54.674  -6.275  41.101  1.00  0.00    -0.128 N
ATOM     10  H6  UNL     1      55.031  -5.661  40.369  1.00  0.00     0.205 HD
HETATM   11  C9  UNL     1      53.906  -5.932  42.138  1.00  0.00     0.730 A
ENDROOT
BRANCH   6  12
HETATM   12  C6  UNL     1      54.204  -9.465  42.826  1.00  0.00     0.372 C
BRANCH  12  13
HETATM   13  O3  UNL     1      55.057  -9.586  43.959  1.00  0.00    -0.359 OA
ATOM     14  H3  UNL     1      55.604 -10.356  43.857  1.00  0.00     0.213 HD
ENDBRANCH  12  13
BRANCH  12  15
HETATM   15  N4  UNL     1      52.944  -9.966  43.067  1.00  0.00    -0.375 NA
HETATM   16  C7  UNL     1      51.716 -10.456  43.301  1.00  0.00     0.285 C
HETATM   17  C8  UNL     1      51.605 -11.828  43.920  1.00  0.00     0.134 C
HETATM   18  O4  UNL     1      50.572  -9.927  43.076  1.00  0.00    -0.258 OA
ENDBRANCH  12  15
ENDBRANCH   6  12
BRANCH   1  19
HETATM   19  C2  UNL     1      54.033  -3.465  42.650  1.00  0.00     0.261 C
HETATM   20  N1  UNL     1      53.624  -2.427  43.296  1.00  0.00    -0.363 N
ATOM     21  H12 UNL     1      54.117  -1.536  43.361  1.00  0.00     0.159 HD
ATOM     22  H11 UNL     1      52.728  -2.512  43.775  1.00  0.00     0.159 HD
BRANCH  19  23
HETATM   23  O1  UNL     1      55.268  -3.348  41.991  1.00  0.00    -0.325 OA
HETATM   24  C1  UNL     1      55.783  -2.070  41.695  1.00  0.00     0.213 C
ENDBRANCH  19  23
ENDBRANCH   1  19
TORSDOF 5
ENDMDL