MODEL 5
REMARK VINA RESULT: -5.363717208      1.660      2.685
REMARK  4 active torsions:
REMARK  status: ('A' for Active; 'I' for Inactive)
REMARK    1  A    between atoms: C2_2  and  C3_3
REMARK    2  A    between atoms: C3_3  and  C4_4
REMARK    3  A    between atoms: C5_5  and  N1_6
REMARK    4  A    between atoms: C7_11  and  C8_12
ROOT
HETATM    1  C4  UNL     1      -4.360  -0.968  19.606  1.00  0.00     0.028 C
HETATM    2  C5  UNL     1      -3.268  -1.370  20.613  1.00  0.00     0.189 C
HETATM    3  C6  UNL     1      -3.915  -2.422  21.534  1.00  0.00     0.043 C
HETATM    4  C7  UNL     1      -4.993  -2.922  20.648  1.00  0.00    -0.031 C
HETATM    5  C10 UNL     1      -6.206  -3.502  21.283  1.00  0.00     0.010 C
HETATM    6  C11 UNL     1      -7.356  -2.907  20.503  1.00  0.00     0.002 C
HETATM    7  C12 UNL     1      -6.703  -2.003  19.437  1.00  0.00     0.010 C
HETATM    8  C13 UNL     1      -5.537  -1.554  20.202  1.00  0.00    -0.030 C
HETATM    9  C14 UNL     1      -6.013  -0.789  21.413  1.00  0.00     0.016 C
ENDROOT
BRANCH   2  10
HETATM   10  N1  UNL     1      -2.756  -0.255  21.337  1.00  0.00    -0.075 N
ATOM     11  H13 UNL     1      -3.344  -0.037  22.141  1.00  0.00     0.274 HD
ATOM     12  H12 UNL     1      -1.894  -0.498  21.826  1.00  0.00     0.274 HD
ATOM     13  H11 UNL     1      -2.622   0.566  20.746  1.00  0.00     0.274 HD
ENDBRANCH   2  10
BRANCH   1  14
HETATM   14  C3  UNL     1      -4.423   0.514  19.441  1.00  0.00     0.033 C
BRANCH  14  15
HETATM   15  C2  UNL     1      -4.177   0.941  18.038  1.00  0.00    -0.036 C
HETATM   16  C1  UNL     1      -4.243   0.136  16.994  1.00  0.00     0.007 C
ENDBRANCH  14  15
ENDBRANCH   1  14
BRANCH   4  17
HETATM   17  C8  UNL     1      -4.410  -3.743  19.569  1.00  0.00     0.006 C
HETATM   18  C9  UNL     1      -4.519  -5.250  19.893  1.00  0.00     0.006 C
ENDBRANCH   4  17
TORSDOF 4
ENDMDL