MODEL 2
REMARK VINA RESULT: -6.719327601      1.111      1.419
REMARK  3 active torsions:
REMARK  status: ('A' for Active; 'I' for Inactive)
REMARK    1  A    between atoms: C2_2  and  C3_3
REMARK    2  A    between atoms: C5_5  and  C6_6
REMARK    3  A    between atoms: C6_6  and  O1_9
ROOT
HETATM    1  C3  UNL     1      -5.453  -2.002  20.288  1.00  0.00    -0.033 C
HETATM    2  C4  UNL     1      -5.302  -0.548  19.958  1.00  0.00     0.018 C
HETATM    3  C5  UNL     1      -4.965  -0.315  18.505  1.00  0.00     0.020 C
HETATM    4  C9  UNL     1      -4.177  -1.470  17.930  1.00  0.00     0.013 C
HETATM    5  C10 UNL     1      -4.606  -2.770  18.557  1.00  0.00    -0.005 C
HETATM    6  C11 UNL     1      -6.049  -2.677  19.071  1.00  0.00     0.015 C
HETATM    7  C12 UNL     1      -4.229  -2.823  20.046  1.00  0.00    -0.036 C
HETATM    8  C13 UNL     1      -2.903  -2.284  20.408  1.00  0.00     0.016 C
HETATM    9  C14 UNL     1      -4.376  -4.255  20.503  1.00  0.00     0.016 C
ENDROOT
BRANCH   3  10
HETATM   10  C6  UNL     1      -4.323   0.998  18.214  1.00  0.00     0.054 C
HETATM   11  C7  UNL     1      -3.733   1.630  19.482  1.00  0.00     0.045 C
HETATM   12  C8  UNL     1      -3.230   0.990  17.201  1.00  0.00     0.045 C
BRANCH  10  13
HETATM   13  O1  UNL     1      -5.307   1.908  17.783  1.00  0.00    -0.390 OA
ATOM     14  H1  UNL     1      -4.986   2.794  17.903  1.00  0.00     0.210 HD
ENDBRANCH  10  13
ENDBRANCH   3  10
BRANCH   1  15
HETATM   15  C2  UNL     1      -6.194  -2.222  21.568  1.00  0.00     0.005 C
HETATM   16  C1  UNL     1      -7.481  -2.967  21.390  1.00  0.00     0.006 C
ENDBRANCH   1  15
TORSDOF 3
ENDMDL