MODEL 5
REMARK VINA RESULT: -7.128960676      1.498      5.983
REMARK  2 active torsions:
REMARK  status: ('A' for Active; 'I' for Inactive)
REMARK    1  A    between atoms: C5_5  and  N1_6
REMARK    2  A    between atoms: N1_6  and  C6_8
ROOT
HETATM    1  C1  UNL     1      -4.911   5.476  20.746  1.00  0.00     0.040 C
HETATM    2  C2  UNL     1      -4.356   4.852  19.473  1.00  0.00     0.182 C
HETATM    3  C3  UNL     1      -2.952   4.408  19.628  1.00  0.00     0.034 C
HETATM    4  C4  UNL     1      -2.773   3.034  18.981  1.00  0.00     0.028 C
HETATM    5  C5  UNL     1      -3.674   2.053  19.662  1.00  0.00     0.102 C
HETATM    6  C13 UNL     1      -5.100   2.604  19.786  1.00  0.00     0.257 C
HETATM    7  N2  UNL     1      -5.295   3.836  19.087  1.00  0.00    -0.069 N
ATOM      8  H21 UNL     1      -5.279   3.690  18.078  1.00  0.00     0.277 HD
ATOM      9  H22 UNL     1      -6.254   4.167  19.192  1.00  0.00     0.277 HD
ENDROOT
BRANCH   5  10
HETATM   10  N1  UNL     1      -3.702   0.743  19.155  1.00  0.00    -0.411 N
ATOM     11  H1  UNL     1      -3.253   0.562  18.257  1.00  0.00     0.154 HD
BRANCH  10  12
HETATM   12  C6  UNL     1      -4.317  -0.327  19.818  1.00  0.00     0.077 C
HETATM   13  C7  UNL     1      -3.422  -1.137  20.666  1.00  0.00     0.024 C
HETATM   14  C8  UNL     1      -3.885  -2.585  20.801  1.00  0.00     0.002 C
HETATM   15  C9  UNL     1      -5.180  -2.541  21.562  1.00  0.00     0.000 C
HETATM   16  C10 UNL     1      -6.317  -1.994  20.763  1.00  0.00     0.000 C
HETATM   17  C11 UNL     1      -6.111  -2.016  19.287  1.00  0.00     0.002 C
HETATM   18  C12 UNL     1      -5.023  -1.169  18.761  1.00  0.00     0.024 C
ENDBRANCH  10  12
ENDBRANCH   5  10
TORSDOF 2
ENDMDL