MODEL 2
REMARK VINA RESULT: -8.026301406      1.594      2.512
REMARK  3 active torsions:
REMARK  status: ('A' for Active; 'I' for Inactive)
REMARK    1  A    between atoms: C4_4  and  C5_5
REMARK    2  A    between atoms: C5_5  and  O1_6
REMARK    3  A    between atoms: C5_5  and  C6_8
ROOT
HETATM    1  C6  UNL     1      -4.299  -0.221  18.348  1.00  0.00     0.019 C
HETATM    2  C7  UNL     1      -4.091  -0.180  19.862  1.00  0.00     0.012 C
HETATM    3  C8  UNL     1      -3.880  -1.549  20.433  1.00  0.00    -0.013 C
HETATM    4  C9  UNL     1      -5.074  -1.828  21.356  1.00  0.00     0.009 C
HETATM    5  C10 UNL     1      -6.197  -1.943  20.350  1.00  0.00    -0.014 C
HETATM    6  C11 UNL     1      -7.078  -3.109  20.818  1.00  0.00     0.010 C
HETATM    7  C12 UNL     1      -5.589  -2.238  19.019  1.00  0.00    -0.010 C
HETATM    8  C13 UNL     1      -4.172  -2.624  19.373  1.00  0.00     0.009 C
HETATM    9  C14 UNL     1      -5.535  -1.030  18.106  1.00  0.00     0.012 C
ENDROOT
BRANCH   1  10
HETATM   10  C5  UNL     1      -4.389   1.195  17.878  1.00  0.00     0.145 C
BRANCH  10  11
HETATM   11  C4  UNL     1      -3.177   1.993  18.234  1.00  0.00     0.007 C
HETATM   12  C2  UNL     1      -3.251   3.033  19.055  1.00  0.00    -0.089 C
HETATM   13  C1  UNL     1      -4.543   3.441  19.651  1.00  0.00     0.042 C
HETATM   14  C3  UNL     1      -2.022   3.803  19.388  1.00  0.00     0.042 C
ENDBRANCH  10  11
BRANCH  10  15
HETATM   15  O1  UNL     1      -4.401   1.145  16.463  1.00  0.00    -0.391 OA
ATOM     16  H1  UNL     1      -3.801   1.827  16.183  1.00  0.00     0.210 HD
ENDBRANCH  10  15
ENDBRANCH   1  10
TORSDOF 3
ENDMDL