MODEL 4
REMARK VINA RESULT: -7.498380813      2.073      3.378
REMARK  3 active torsions:
REMARK  status: ('A' for Active; 'I' for Inactive)
REMARK    1  A    between atoms: O1_1  and  C1_3
REMARK    2  A    between atoms: C1_3  and  C2_4
REMARK    3  A    between atoms: C1_3  and  C8_10
ROOT
HETATM    1  C1  UNL     1      -4.176   1.201  18.862  1.00  0.00     0.144 C
ENDROOT
BRANCH   1   2
HETATM    2  O1  UNL     1      -4.743   1.669  17.675  1.00  0.00    -0.393 OA
ATOM      3  H1  UNL     1      -4.100   1.688  16.976  1.00  0.00     0.210 HD
ENDBRANCH   1   2
BRANCH   1   4
HETATM    4  C2  UNL     1      -4.850  -0.085  19.316  1.00  0.00     0.016 C
HETATM    5  C3  UNL     1      -5.040  -0.986  18.166  1.00  0.00     0.007 C
HETATM    6  C4  UNL     1      -4.559  -2.379  18.251  1.00  0.00     0.000 C
HETATM    7  C5  UNL     1      -4.267  -2.900  19.621  1.00  0.00     0.000 C
HETATM    8  C6  UNL     1      -3.350  -1.876  20.275  1.00  0.00     0.000 C
HETATM    9  C7  UNL     1      -4.149  -0.658  20.509  1.00  0.00     0.007 C
ENDBRANCH   1   4
BRANCH   1  10
HETATM   10  C8  UNL     1      -4.145   2.222  19.940  1.00  0.00     0.105 C
HETATM   11  C9  UNL     1      -5.023   3.416  19.700  1.00  0.00     0.027 C
HETATM   12  C10 UNL     1      -4.321   4.608  20.339  1.00  0.00     0.002 C
HETATM   13  C11 UNL     1      -3.362   5.265  19.382  1.00  0.00     0.002 C
HETATM   14  C12 UNL     1      -2.002   4.661  19.370  1.00  0.00     0.019 C
HETATM   15  C13 UNL     1      -2.005   3.150  19.248  1.00  0.00     0.114 C
HETATM   16  N1  UNL     1      -2.820   2.597  20.264  1.00  0.00    -0.415 N
ATOM     17  H1  UNL     1      -2.459   2.473  21.209  1.00  0.00     0.153 HD
ENDBRANCH   1  10
TORSDOF 3
ENDMDL