MODEL 5
REMARK VINA RESULT: -5.374217660      1.874      3.018
REMARK  3 active torsions:
REMARK  status: ('A' for Active; 'I' for Inactive)
REMARK    1  A    between atoms: C2_2  and  C3_3
REMARK    2  A    between atoms: C3_3  and  C4_4
REMARK    3  A    between atoms: C13_13  and  N1_14
ROOT
HETATM    1  C4  UNL     1      -4.710   0.242  19.517  1.00  0.00    -0.008 C
HETATM    2  C5  UNL     1      -3.656  -0.516  20.253  1.00  0.00     0.009 C
HETATM    3  C6  UNL     1      -4.185  -1.708  21.013  1.00  0.00    -0.012 C
HETATM    4  C7  UNL     1      -3.382  -2.911  20.775  1.00  0.00     0.009 C
HETATM    5  C8  UNL     1      -3.866  -3.906  19.803  1.00  0.00    -0.014 C
HETATM    6  C9  UNL     1      -5.001  -4.773  20.292  1.00  0.00     0.005 C
HETATM    7  C10 UNL     1      -6.210  -4.289  19.555  1.00  0.00     0.007 C
HETATM    8  C11 UNL     1      -5.774  -3.149  18.670  1.00  0.00     0.022 C
HETATM    9  C12 UNL     1      -4.311  -3.394  18.487  1.00  0.00     0.011 C
HETATM   10  C13 UNL     1      -6.074  -1.844  19.348  1.00  0.00     0.128 C
HETATM   11  C14 UNL     1      -5.533  -0.657  18.621  1.00  0.00     0.043 C
HETATM   12  C15 UNL     1      -5.650  -1.803  20.778  1.00  0.00     0.043 C
ENDROOT
BRANCH  10  13
HETATM   13  N1  UNL     1      -7.543  -1.709  19.346  1.00  0.00    -0.070 N
ATOM     14  H13 UNL     1      -7.941  -1.597  20.278  1.00  0.00     0.275 HD
ATOM     15  H12 UNL     1      -7.868  -0.821  18.965  1.00  0.00     0.275 HD
ATOM     16  H11 UNL     1      -7.902  -2.522  18.846  1.00  0.00     0.275 HD
ENDBRANCH  10  13
BRANCH   1  17
HETATM   17  C3  UNL     1      -4.020   1.286  18.660  1.00  0.00     0.031 C
BRANCH  17  18
HETATM   18  C2  UNL     1      -4.195   0.987  17.221  1.00  0.00    -0.037 C
HETATM   19  C1  UNL     1      -3.201   0.943  16.361  1.00  0.00     0.007 C
ENDBRANCH  17  18
ENDBRANCH   1  17
TORSDOF 3
ENDMDL