MODEL 1
REMARK VINA RESULT: -7.620108162      0.000      0.000
REMARK  2 active torsions:
REMARK  status: ('A' for Active; 'I' for Inactive)
REMARK    1  A    between atoms: C2_2  and  C3_3
REMARK    2  A    between atoms: C10_10  and  C11_11
ROOT
HETATM    1  C3  UNL     1      -5.600  -2.454  20.974  1.00  0.00    -0.039 C
HETATM    2  C4  UNL     1      -4.489  -3.428  21.241  1.00  0.00     0.010 C
HETATM    3  C5  UNL     1      -4.320  -4.258  19.971  1.00  0.00     0.005 C
HETATM    4  C6  UNL     1      -5.358  -3.713  18.993  1.00  0.00    -0.013 C
HETATM    5  C7  UNL     1      -4.853  -2.939  17.887  1.00  0.00     0.009 C
HETATM    6  C8  UNL     1      -4.363  -1.578  17.956  1.00  0.00    -0.012 C
HETATM    7  C9  UNL     1      -5.311  -0.503  18.362  1.00  0.00     0.021 C
HETATM    8  C10 UNL     1      -4.602  -0.448  19.686  1.00  0.00     0.017 C
HETATM    9  C12 UNL     1      -3.460  -1.161  19.045  1.00  0.00     0.021 C
HETATM   10  C13 UNL     1      -5.271  -1.061  20.821  1.00  0.00     0.026 C
HETATM   11  C14 UNL     1      -6.371  -3.149  19.908  1.00  0.00     0.014 C
ENDROOT
BRANCH   8  12
HETATM   12  C11 UNL     1      -4.300   0.983  20.033  1.00  0.00     0.095 C
HETATM   13  N1  UNL     1      -3.127   1.297  20.454  1.00  0.00    -0.390 N
ATOM     14  H12 UNL     1      -2.423   0.565  20.544  1.00  0.00     0.157 HD
ATOM     15  H11 UNL     1      -2.921   2.268  20.690  1.00  0.00     0.157 HD
HETATM   16  N2  UNL     1      -5.271   1.992  19.909  1.00  0.00    -0.087 NA
ENDBRANCH   8  12
BRANCH   1  17
HETATM   17  C2  UNL     1      -6.503  -2.506  22.236  1.00  0.00     0.005 C
HETATM   18  C1  UNL     1      -7.842  -3.102  21.905  1.00  0.00     0.006 C
ENDBRANCH   1  17
TORSDOF 2
ENDMDL