MODEL 1
REMARK VINA RESULT: -6.603819747      0.000      0.000
REMARK  3 active torsions:
REMARK  status: ('A' for Active; 'I' for Inactive)
REMARK    1  A    between atoms: C2_2  and  C3_3
REMARK    2  A    between atoms: C12_15  and  C13_16
REMARK    3  A    between atoms: C13_16  and  O1_17
ROOT
HETATM    1  C3  UNL     1      -6.480  -2.456  21.615  1.00  0.00    -0.012 C
HETATM    2  C4  UNL     1      -5.046  -2.669  21.855  1.00  0.00     0.009 C
HETATM    3  C5  UNL     1      -4.108  -2.850  20.749  1.00  0.00    -0.010 C
HETATM    4  C6  UNL     1      -3.239  -1.651  20.349  1.00  0.00     0.038 C
HETATM    5  C7  UNL     1      -4.000  -0.648  19.542  1.00  0.00     0.193 C
HETATM    6  N1  UNL     1      -5.338  -0.730  20.117  1.00  0.00    -0.061 N
ATOM      7  H11 UNL     1      -5.920   0.102  20.023  1.00  0.00     0.278 HD
ATOM      8  H12 UNL     1      -5.391  -0.745  21.135  1.00  0.00     0.278 HD
HETATM    9  C8  UNL     1      -5.817  -1.944  19.419  1.00  0.00     0.127 C
HETATM   10  C9  UNL     1      -6.962  -2.374  20.163  1.00  0.00     0.043 C
HETATM   11  C10 UNL     1      -4.850  -3.111  19.481  1.00  0.00     0.043 C
HETATM   12  C11 UNL     1      -5.761  -1.436  18.057  1.00  0.00     0.047 C
HETATM   13  C12 UNL     1      -4.291  -0.934  18.121  1.00  0.00     0.042 C
ENDROOT
BRANCH  13  14
HETATM   14  C13 UNL     1      -4.319   0.415  17.385  1.00  0.00     0.170 C
BRANCH  14  15
HETATM   15  O1  UNL     1      -4.903   1.392  18.189  1.00  0.00    -0.400 OA
ATOM     16  H1  UNL     1      -5.793   1.562  17.906  1.00  0.00     0.209 HD
ENDBRANCH  14  15
ENDBRANCH  13  14
BRANCH   1  17
HETATM   17  C2  UNL     1      -7.360  -3.411  22.401  1.00  0.00     0.000 C
HETATM   18  C1  UNL     1      -8.767  -3.452  21.840  1.00  0.00     0.005 C
ENDBRANCH   1  17
TORSDOF 3
ENDMDL