MODEL 4
REMARK VINA RESULT: -6.076166005      1.709      2.950
REMARK  2 active torsions:
REMARK  status: ('A' for Active; 'I' for Inactive)
REMARK    1  A    between atoms: C11_11  and  N1_12
REMARK    2  A    between atoms: N1_12  and  C12_14
ROOT
HETATM    1  C1  UNL     1      -5.496  -2.373  17.451  1.00  0.00     0.018 C
HETATM    2  C2  UNL     1      -5.333  -2.078  18.920  1.00  0.00    -0.020 C
HETATM    3  C3  UNL     1      -6.698  -2.253  19.538  1.00  0.00     0.011 C
HETATM    4  C4  UNL     1      -6.759  -3.193  20.695  1.00  0.00     0.001 C
HETATM    5  C5  UNL     1      -6.121  -4.486  20.207  1.00  0.00     0.000 C
HETATM    6  C6  UNL     1      -4.669  -4.225  20.112  1.00  0.00     0.005 C
HETATM    7  C7  UNL     1      -4.248  -2.924  19.523  1.00  0.00    -0.004 C
HETATM    8  C8  UNL     1      -3.284  -2.209  20.418  1.00  0.00     0.005 C
HETATM    9  C9  UNL     1      -3.794  -1.071  21.199  1.00  0.00     0.002 C
HETATM   10  C10 UNL     1      -4.884  -0.280  20.549  1.00  0.00     0.025 C
HETATM   11  C11 UNL     1      -4.980  -0.621  19.066  1.00  0.00     0.085 C
ENDROOT
BRANCH  11  12
HETATM   12  N1  UNL     1      -3.852  -0.125  18.422  1.00  0.00    -0.412 N
ATOM     13  H1  UNL     1      -2.969  -0.622  18.533  1.00  0.00     0.154 HD
BRANCH  12  14
HETATM   14  C12 UNL     1      -3.878   1.033  17.621  1.00  0.00     0.077 A
HETATM   15  C13 UNL     1      -2.910   1.234  16.500  1.00  0.00     0.027 A
HETATM   16  C14 UNL     1      -4.318   0.958  16.138  1.00  0.00     0.027 A
ENDBRANCH  12  14
ENDBRANCH  11  12
TORSDOF 2
ENDMDL