MODEL 2
REMARK VINA RESULT: -7.154240632      1.052      2.798
REMARK  1 active torsions:
REMARK  status: ('A' for Active; 'I' for Inactive)
REMARK    1  A    between atoms: C11_11  and  C12_12
ROOT
HETATM    1  C1  UNL     1      -7.088  -3.625  20.320  1.00  0.00     0.011 C
HETATM    2  C2  UNL     1      -6.396  -2.350  20.005  1.00  0.00    -0.006 C
HETATM    3  C3  UNL     1      -6.335  -2.045  18.524  1.00  0.00    -0.009 C
HETATM    4  C4  UNL     1      -5.714  -3.234  17.868  1.00  0.00     0.005 C
HETATM    5  C5  UNL     1      -4.374  -3.615  18.380  1.00  0.00     0.001 C
HETATM    6  C6  UNL     1      -4.061  -3.253  19.770  1.00  0.00     0.010 C
HETATM    7  C7  UNL     1      -4.967  -2.342  20.483  1.00  0.00    -0.036 C
HETATM    8  C8  UNL     1      -5.013  -2.727  21.969  1.00  0.00     0.016 C
HETATM    9  C9  UNL     1      -4.549  -0.884  20.455  1.00  0.00     0.001 C
HETATM   10  C10 UNL     1      -3.329  -0.611  21.257  1.00  0.00     0.011 C
HETATM   11  C11 UNL     1      -4.438  -0.468  19.016  1.00  0.00     0.055 C
HETATM   12  C13 UNL     1      -5.674  -0.755  18.252  1.00  0.00     0.017 C
ENDROOT
BRANCH  11  13
HETATM   13  C12 UNL     1      -4.158   0.999  18.901  1.00  0.00     0.091 C
HETATM   14  N1  UNL     1      -3.334   1.470  18.023  1.00  0.00    -0.391 N
ATOM     15  H12 UNL     1      -2.883   0.790  17.412  1.00  0.00     0.157 HD
ATOM     16  H11 UNL     1      -3.144   2.469  17.945  1.00  0.00     0.157 HD
HETATM   17  N2  UNL     1      -4.789   1.949  19.754  1.00  0.00    -0.088 NA
ENDBRANCH  11  13
TORSDOF 1
ENDMDL