MODEL 1
REMARK VINA RESULT: -7.566467825      0.000      0.000
REMARK  0 active torsions:
REMARK  status: ('A' for Active; 'I' for Inactive)
ROOT
HETATM    1  N1  UNL     1      37.081  -3.923   6.248  1.00  0.00    -0.063 NA
HETATM    2  C1  UNL     1      37.228  -4.767   7.446  1.00  0.00     0.192 C
HETATM    3  N2  UNL     1      36.787  -4.181   8.459  1.00  0.00    -0.328 N
ATOM      4  H2  UNL     1      36.440  -3.264   8.178  1.00  0.00     0.165 HD
HETATM    5  C2  UNL     1      36.600  -4.322   9.816  1.00  0.00     0.354 C
HETATM    6  N3  UNL     1      36.559  -3.003  10.501  1.00  0.00    -0.029 N
ATOM      7  H31 UNL     1      35.739  -2.402  10.423  1.00  0.00     0.282 HD
ATOM      8  H32 UNL     1      37.139  -2.229  10.176  1.00  0.00     0.282 HD
HETATM    9  C3  UNL     1      36.868  -3.695  11.768  1.00  0.00     0.278 C
HETATM   10  C4  UNL     1      35.648  -4.233  12.350  1.00  0.00     0.034 C
HETATM   11  C5  UNL     1      35.380  -5.653  12.482  1.00  0.00     0.086 C
HETATM   12  N4  UNL     1      36.436  -6.575  12.615  1.00  0.00    -0.376 N
ATOM     13  H4  UNL     1      37.275  -6.210  13.067  1.00  0.00     0.164 HD
HETATM   14  C6  UNL     1      36.504  -7.813  12.251  1.00  0.00     0.087 C
HETATM   15  C7  UNL     1      35.545  -8.653  11.597  1.00  0.00     0.020 C
HETATM   16  C8  UNL     1      35.424  -8.989  10.320  1.00  0.00     0.038 C
HETATM   17  C9  UNL     1      36.226  -8.622   9.167  1.00  0.00     0.075 A
HETATM   18  N5  UNL     1      36.645  -7.469   8.740  1.00  0.00    -0.336 N
ATOM     19  H5  UNL     1      36.380  -6.634   9.262  1.00  0.00     0.168 HD
HETATM   20  C10 UNL     1      37.376  -7.327   7.696  1.00  0.00     0.115 A
HETATM   21  C11 UNL     1      37.700  -8.534   7.027  1.00  0.00     0.100 A
HETATM   22  S1  UNL     1      36.924  -9.692   7.974  1.00  0.00    -0.081 SA
HETATM   23  N6  UNL     1      37.832  -6.036   7.287  1.00  0.00    -0.316 N
ATOM     24  H6  UNL     1      38.731  -6.029   6.807  1.00  0.00     0.170 HD
HETATM   25  S2  UNL     1      37.976  -4.720  10.865  1.00  0.00    -0.079 SA
ENDROOT
TORSDOF 0
ENDMDL