MODEL 1
REMARK VINA RESULT: -8.829756469      0.000      0.000
REMARK  2 active torsions:
REMARK  status: ('A' for Active; 'I' for Inactive)
REMARK    1  A    between atoms: O1_1  and  N1_3
REMARK    2  A    between atoms: C12_25  and  O5_26
ROOT
HETATM    1  N1  UNL     1      36.871  -9.569   6.979  1.00  0.00    -0.248 N
ATOM      2  H1  UNL     1      37.026  -9.540   5.971  1.00  0.00     0.196 HD
HETATM    3  C1  UNL     1      36.890  -8.451   7.628  1.00  0.00     0.197 C
HETATM    4  N2  UNL     1      37.125  -7.263   6.904  1.00  0.00    -0.245 N
ATOM      5  H2  UNL     1      36.550  -7.112   6.075  1.00  0.00     0.196 HD
HETATM    6  O2  UNL     1      38.031  -6.305   7.192  1.00  0.00    -0.277 OA
HETATM    7  C2  UNL     1      37.463  -5.167   7.715  1.00  0.00     0.227 C
HETATM    8  C3  UNL     1      37.716  -3.914   6.870  1.00  0.00     0.196 C
HETATM    9  O3  UNL     1      36.927  -2.913   7.464  1.00  0.00    -0.389 OA
HETATM   10  C4  UNL     1      36.966  -3.001   8.848  1.00  0.00     0.167 C
HETATM   11  C5  UNL     1      36.398  -1.778   9.538  1.00  0.00     0.026 C
HETATM   12  C6  UNL     1      35.651  -2.180  10.810  1.00  0.00     0.002 C
HETATM   13  C7  UNL     1      36.472  -3.134  11.634  1.00  0.00     0.002 C
HETATM   14  C8  UNL     1      35.786  -4.453  11.905  1.00  0.00     0.020 C
HETATM   15  C9  UNL     1      36.780  -5.541  12.224  1.00  0.00     0.121 C
HETATM   16  N3  UNL     1      36.145  -6.836  12.159  1.00  0.00    -0.372 N
ATOM     17  H3  UNL     1      35.525  -7.096  12.926  1.00  0.00     0.161 HD
HETATM   18  C10 UNL     1      36.320  -7.774  11.107  1.00  0.00     0.163 A
HETATM   19  N4  UNL     1      36.526  -7.442   9.835  1.00  0.00    -0.316 N
ATOM     20  H4  UNL     1      36.577  -6.484   9.487  1.00  0.00     0.169 HD
HETATM   21  C11 UNL     1      36.655  -8.533   9.076  1.00  0.00     0.200 A
HETATM   22  O4  UNL     1      36.527  -9.556   9.890  1.00  0.00    -0.264 OA
HETATM   23  C12 UNL     1      36.325  -9.152  11.116  1.00  0.00     0.230 A
ENDROOT
BRANCH   1  24
HETATM   24  O1  UNL     1      36.656 -10.775   7.553  1.00  0.00    -0.288 OA
ATOM     25  H1  UNL     1      35.835 -11.037   7.952  1.00  0.00     0.244 HD
ENDBRANCH   1  24
BRANCH  23  26
HETATM   26  O5  UNL     1      36.150  -9.990  12.207  1.00  0.00    -0.338 OA
ATOM     27  H5  UNL     1      35.376 -10.079  12.752  1.00  0.00     0.220 HD
ENDBRANCH  23  26
TORSDOF 2
ENDMDL