MODEL 4
REMARK VINA RESULT: -6.735380952      3.512      6.099
REMARK  1 active torsions:
REMARK  status: ('A' for Active; 'I' for Inactive)
REMARK    1  A    between atoms: C6_12  and  O1_13
ROOT
HETATM    1  N1  UNL     1      37.260  -2.898   9.571  1.00  0.00    -0.195 NA
HETATM    2  C1  UNL     1      36.650  -3.008   8.589  1.00  0.00     0.086 C
HETATM    3  C2  UNL     1      35.871  -3.129   7.347  1.00  0.00     0.229 C
HETATM    4  C3  UNL     1      36.143  -1.994   6.442  1.00  0.00     0.070 A
HETATM    5  C4  UNL     1      37.284  -2.101   5.638  1.00  0.00     0.118 A
HETATM    6  N2  UNL     1      37.571  -1.083   4.796  1.00  0.00    -0.319 N
ATOM      7  H2  UNL     1      38.397  -1.135   4.199  1.00  0.00     0.170 HD
HETATM    8  C5  UNL     1      36.774  -0.003   4.739  1.00  0.00     0.179 A
HETATM    9  S1  UNL     1      37.093   1.238   3.733  1.00  0.00    -0.040 SA
HETATM   10  N3  UNL     1      35.669   0.091   5.522  1.00  0.00    -0.313 N
ATOM     11  H3  UNL     1      35.081   0.922   5.459  1.00  0.00     0.170 HD
HETATM   12  C6  UNL     1      35.334  -0.886   6.378  1.00  0.00     0.154 A
HETATM   13  N4  UNL     1      38.092  -3.266   5.738  1.00  0.00    -0.353 N
ATOM     14  H4  UNL     1      39.065  -3.235   5.436  1.00  0.00     0.163 HD
HETATM   15  C7  UNL     1      37.546  -4.477   6.259  1.00  0.00     0.216 C
HETATM   16  C8  UNL     1      37.444  -5.492   5.180  1.00  0.00     0.011 A
HETATM   17  C9  UNL     1      38.396  -6.224   4.503  1.00  0.00     0.030 A
HETATM   18  C10 UNL     1      38.005  -7.113   3.528  1.00  0.00     0.088 A
HETATM   19  N5  UNL     1      36.686  -7.268   3.235  1.00  0.00    -0.373 N
ATOM     20  H5  UNL     1      36.392  -7.926   2.513  1.00  0.00     0.164 HD
HETATM   21  C11 UNL     1      35.763  -6.537   3.913  1.00  0.00     0.118 A
HETATM   22  C12 UNL     1      36.087  -5.642   4.889  1.00  0.00     0.068 A
HETATM   23  N6  UNL     1      35.344  -4.770   5.733  1.00  0.00    -0.313 N
ATOM     24  H6  UNL     1      34.370  -4.489   5.618  1.00  0.00     0.181 HD
HETATM   25  N7  UNL     1      36.210  -4.378   6.745  1.00  0.00    -0.180 NA
ENDROOT
BRANCH  12  26
HETATM   26  O1  UNL     1      34.218  -0.795   7.172  1.00  0.00    -0.345 OA
ATOM     27  H1  UNL     1      33.523  -0.185   6.955  1.00  0.00     0.219 HD
ENDBRANCH  12  26
TORSDOF 1
ENDMDL