MODEL 5
REMARK VINA RESULT: -6.176436991      2.641      3.720
REMARK  3 active torsions:
REMARK  status: ('A' for Active; 'I' for Inactive)
REMARK    1  A    between atoms: N1_2  and  C2_4
REMARK    2  A    between atoms: C2_4  and  N2_6
REMARK    3  A    between atoms: N3_11  and  O1_13
ROOT
HETATM    1  N2  UNL     1      36.626  -3.024   6.646  1.00  0.00    -0.331 N
ATOM      2  H2  UNL     1      36.565  -3.518   5.756  1.00  0.00     0.168 HD
HETATM    3  C3  UNL     1      36.676  -3.707   7.732  1.00  0.00     0.059 C
HETATM    4  C4  UNL     1      36.643  -5.185   7.667  1.00  0.00     0.125 C
HETATM    5  C5  UNL     1      37.153  -5.857   8.877  1.00  0.00     0.052 C
HETATM    6  N3  UNL     1      38.093  -6.732   8.777  1.00  0.00    -0.272 N
ATOM      7  H3  UNL     1      38.446  -7.199   9.613  1.00  0.00     0.194 HD
HETATM    8  C6  UNL     1      36.582  -5.543  10.219  1.00  0.00     0.040 A
HETATM    9  C7  UNL     1      36.262  -6.480  11.171  1.00  0.00     0.102 A
HETATM   10  N4  UNL     1      36.403  -7.922  11.133  1.00  0.00    -0.093 NA
HETATM   11  S2  UNL     1      35.657  -5.552  12.460  1.00  0.00    -0.058 SA
HETATM   12  C8  UNL     1      35.816  -4.003  11.784  1.00  0.00     0.106 A
HETATM   13  N5  UNL     1      35.478  -2.716  12.355  1.00  0.00    -0.093 NA
HETATM   14  C9  UNL     1      36.348  -4.249  10.543  1.00  0.00     0.052 A
HETATM   15  S3  UNL     1      36.783  -2.945   9.331  1.00  0.00    -0.073 SA
ENDROOT
BRANCH   1  16
HETATM   16  C2  UNL     1      36.654  -1.599   6.642  1.00  0.00     0.172 C
HETATM   17  S1  UNL     1      35.290  -0.704   6.527  1.00  0.00    -0.041 SA
BRANCH  16  18
HETATM   18  N1  UNL     1      37.906  -0.935   6.741  1.00  0.00    -0.371 N
HETATM   19  C1  UNL     1      38.061   0.246   7.569  1.00  0.00     0.148 C
ATOM     20  H1  UNL     1      38.709  -1.295   6.223  1.00  0.00     0.161 HD
ENDBRANCH  16  18
ENDBRANCH   1  16
BRANCH   6  21
HETATM   21  O1  UNL     1      38.619  -7.037   7.548  1.00  0.00    -0.290 OA
ATOM     22  H1  UNL     1      39.531  -6.845   7.360  1.00  0.00     0.244 HD
ENDBRANCH   6  21
TORSDOF 3
ENDMDL