MODEL 1
REMARK VINA RESULT: -7.727674889      0.000      0.000
REMARK  3 active torsions:
REMARK  status: ('A' for Active; 'I' for Inactive)
REMARK    1  A    between atoms: N1_1  and  C1_5
REMARK    2  A    between atoms: C6_13  and  C7_14
REMARK    3  A    between atoms: C13_26  and  O1_27
ROOT
HETATM    1  C1  UNL     1      35.171   1.274   5.663  1.00  0.00     0.383 C
HETATM    2  N2  UNL     1      35.562   2.457   6.317  1.00  0.00    -0.346 N
ATOM      3  H2  UNL     1      34.967   3.281   6.238  1.00  0.00     0.163 HD
HETATM    4  C2  UNL     1      36.782   2.549   7.102  1.00  0.00     0.047 A
HETATM    5  C3  UNL     1      37.303   3.642   7.718  1.00  0.00     0.037 A
HETATM    6  C4  UNL     1      38.468   3.463   8.402  1.00  0.00     0.052 A
HETATM    7  S1  UNL     1      38.810   1.809   8.181  1.00  0.00    -0.102 SA
HETATM    8  C5  UNL     1      37.464   1.379   7.223  1.00  0.00     0.037 A
HETATM    9  C6  UNL     1      37.059   0.072   6.631  1.00  0.00     0.177 C
HETATM   10  N6  UNL     1      35.963   0.138   5.777  1.00  0.00    -0.366 N
ATOM     11  H6  UNL     1      35.732  -0.679   5.212  1.00  0.00     0.158 HD
ENDROOT
BRANCH   9  12
HETATM   12  C7  UNL     1      36.941  -0.999   7.685  1.00  0.00     0.090 A
HETATM   13  N3  UNL     1      36.564  -0.712   8.929  1.00  0.00    -0.338 N
HETATM   14  C8  UNL     1      36.488  -1.739   9.824  1.00  0.00     0.132 A
ATOM     15  H3  UNL     1      36.339   0.244   9.204  1.00  0.00     0.167 HD
HETATM   16  N4  UNL     1      36.112  -1.505  11.098  1.00  0.00    -0.350 N
HETATM   17  C12 UNL     1      36.782  -3.042   9.488  1.00  0.00     0.078 A
HETATM   18  C9  UNL     1      36.016  -2.463  12.026  1.00  0.00     0.090 A
ATOM     19  H4  UNL     1      35.890  -0.548  11.368  1.00  0.00     0.166 HD
HETATM   20  C10 UNL     1      36.310  -3.761  11.689  1.00  0.00     0.019 A
HETATM   21  C11 UNL     1      36.699  -4.070  10.412  1.00  0.00     0.035 A
HETATM   22  N5  UNL     1      37.168  -3.332   8.211  1.00  0.00    -0.332 N
HETATM   23  C13 UNL     1      37.237  -2.310   7.346  1.00  0.00     0.166 A
ATOM     24  H5  UNL     1      37.393  -4.285   7.927  1.00  0.00     0.168 HD
BRANCH  23  25
HETATM   25  O1  UNL     1      37.634  -2.604   6.030  1.00  0.00    -0.345 OA
ATOM     26  H1  UNL     1      37.861  -3.499   5.804  1.00  0.00     0.219 HD
ENDBRANCH  23  25
ENDBRANCH   9  12
BRANCH   1  27
HETATM   27  N1  UNL     1      35.048   1.588   4.225  1.00  0.00    -0.041 N
ATOM     28  H13 UNL     1      35.432   2.502   3.982  1.00  0.00     0.279 HD
ATOM     29  H12 UNL     1      35.666   1.025   3.640  1.00  0.00     0.279 HD
ATOM     30  H11 UNL     1      34.064   1.489   3.977  1.00  0.00     0.279 HD
ENDBRANCH   1  27
TORSDOF 3
ENDMDL