MODEL 3
REMARK VINA RESULT: -8.044611355      2.134      4.814
REMARK  1 active torsions:
REMARK  status: ('A' for Active; 'I' for Inactive)
REMARK    1  A    between atoms: C14_23  and  O2_24
ROOT
HETATM    1  C1  UNL     1      37.250  -8.721   7.662  1.00  0.00     0.043 C
HETATM    2  C2  UNL     1      36.987  -7.196   7.747  1.00  0.00     0.074 C
HETATM    3  C3  UNL     1      38.331  -6.607   8.084  1.00  0.00     0.043 C
HETATM    4  N1  UNL     1      36.315  -6.703   6.640  1.00  0.00    -0.351 N
ATOM      5  H1  UNL     1      35.430  -7.195   6.514  1.00  0.00     0.163 HD
HETATM    6  C4  UNL     1      36.463  -5.835   5.745  1.00  0.00     0.191 C
HETATM    7  N2  UNL     1      35.356  -5.756   4.775  1.00  0.00    -0.063 NA
HETATM    8  N3  UNL     1      37.543  -4.983   5.587  1.00  0.00    -0.305 N
ATOM      9  H3  UNL     1      38.212  -5.305   4.887  1.00  0.00     0.171 HD
HETATM   10  C5  UNL     1      37.881  -3.875   6.135  1.00  0.00     0.194 C
HETATM   11  N4  UNL     1      39.144  -3.332   5.631  1.00  0.00    -0.063 NA
HETATM   12  N5  UNL     1      37.282  -3.111   7.096  1.00  0.00    -0.344 N
ATOM     13  H5  UNL     1      38.041  -2.614   7.563  1.00  0.00     0.167 HD
HETATM   14  C6  UNL     1      36.264  -2.749   7.652  1.00  0.00     0.063 C
HETATM   15  C7  UNL     1      36.430  -1.740   8.789  1.00  0.00     0.044 C
HETATM   16  C8  UNL     1      35.591  -2.235   9.941  1.00  0.00     0.005 C
HETATM   17  C9  UNL     1      36.335  -2.148  11.255  1.00  0.00     0.000 C
HETATM   18  C10 UNL     1      37.084  -3.447  11.507  1.00  0.00     0.000 C
HETATM   19  C11 UNL     1      36.118  -4.510  11.945  1.00  0.00     0.002 C
HETATM   20  C12 UNL     1      36.886  -5.770  12.279  1.00  0.00     0.026 C
HETATM   21  C13 UNL     1      36.777  -6.784  11.156  1.00  0.00     0.171 C
HETATM   22  O1  UNL     1      36.733  -6.199   9.914  1.00  0.00    -0.359 OA
HETATM   23  C14 UNL     1      36.128  -7.033   9.004  1.00  0.00     0.283 C
ENDROOT
BRANCH  23  24
HETATM   24  O2  UNL     1      35.770  -8.261   9.560  1.00  0.00    -0.369 OA
ATOM     25  H2  UNL     1      36.520  -8.733   9.902  1.00  0.00     0.212 HD
ENDBRANCH  23  24
TORSDOF 1
ENDMDL