MODEL 4
REMARK VINA RESULT: -7.543110306      2.981      5.031
REMARK  2 active torsions:
REMARK  status: ('A' for Active; 'I' for Inactive)
REMARK    1  A    between atoms: C5_5  and  O1_6
REMARK    2  A    between atoms: C9_15  and  N3_16
ROOT
HETATM    1  C1  UNL     1      38.411  -4.268  11.496  1.00  0.00     0.023 C
HETATM    2  C2  UNL     1      37.052  -4.902  11.315  1.00  0.00     0.015 C
HETATM    3  C3  UNL     1      35.962  -3.894  11.124  1.00  0.00     0.023 C
HETATM    4  C4  UNL     1      36.768  -5.756  12.523  1.00  0.00     0.071 C
HETATM    5  C5  UNL     1      36.097  -6.977  11.986  1.00  0.00     0.229 C
HETATM    6  N1  UNL     1      36.510  -7.040  10.576  1.00  0.00    -0.283 N
HETATM    7  C6  UNL     1      37.045  -5.884  10.193  1.00  0.00     0.097 A
HETATM    8  N2  UNL     1      37.484  -5.778   8.899  1.00  0.00    -0.328 N
ATOM      9  H2  UNL     1      37.902  -4.909   8.567  1.00  0.00     0.169 HD
HETATM   10  C7  UNL     1      37.362  -6.819   8.079  1.00  0.00     0.152 A
HETATM   11  C8  UNL     1      37.708  -7.011   6.741  1.00  0.00     0.099 A
HETATM   12  S1  UNL     1      38.385  -6.356   5.315  1.00  0.00    -0.047 SA
HETATM   13  C9  UNL     1      38.207  -7.724   4.297  1.00  0.00     0.144 A
HETATM   14  N4  UNL     1      37.636  -8.615   5.102  1.00  0.00    -0.321 N
ATOM     15  H4  UNL     1      37.404  -9.548   4.763  1.00  0.00     0.169 HD
HETATM   16  C10 UNL     1      37.378  -8.273   6.339  1.00  0.00     0.143 A
HETATM   17  N5  UNL     1      36.825  -8.832   7.472  1.00  0.00    -0.274 N
ATOM     18  H5  UNL     1      36.465  -9.784   7.528  1.00  0.00     0.189 HD
HETATM   19  N6  UNL     1      36.823  -7.987   8.462  1.00  0.00    -0.210 N
HETATM   20  C11 UNL     1      36.382  -8.115   9.736  1.00  0.00     0.205 A
HETATM   21  S2  UNL     1      35.726  -9.498  10.247  1.00  0.00    -0.038 SA
ENDROOT
BRANCH  13  22
HETATM   22  N3  UNL     1      38.548  -7.862   3.035  1.00  0.00    -0.380 N
ATOM     23  H32 UNL     1      38.940  -7.164   2.403  1.00  0.00     0.158 HD
ATOM     24  H31 UNL     1      38.487  -8.691   2.444  1.00  0.00     0.158 HD
ENDBRANCH  13  22
BRANCH   5  25
HETATM   25  O1  UNL     1      36.502  -8.141  12.650  1.00  0.00    -0.376 OA
ATOM     26  H1  UNL     1      36.073  -8.918  12.311  1.00  0.00     0.212 HD
ENDBRANCH   5  25
TORSDOF 2
ENDMDL