MODEL 4
REMARK VINA RESULT: -7.197044128      3.208      5.350
REMARK  1 active torsions:
REMARK  status: ('A' for Active; 'I' for Inactive)
REMARK    1  A    between atoms: C11_19  and  N5_20
ROOT
HETATM    1  N1  UNL     1      36.442  -8.879   9.606  1.00  0.00    -0.191 NA
HETATM    2  C1  UNL     1      36.579  -7.737   9.743  1.00  0.00     0.105 C
HETATM    3  C2  UNL     1      36.750  -6.302   9.895  1.00  0.00     0.112 A
HETATM    4  C3  UNL     1      36.797  -5.851  11.197  1.00  0.00     0.074 A
HETATM    5  N2  UNL     1      36.687  -6.731  12.314  1.00  0.00    -0.101 NA
HETATM    6  C4  UNL     1      36.957  -4.483  11.375  1.00  0.00     0.076 A
HETATM    7  C5  UNL     1      37.061  -3.654  10.272  1.00  0.00     0.106 A
HETATM    8  N3  UNL     1      37.008  -4.154   9.037  1.00  0.00    -0.328 N
ATOM      9  H3  UNL     1      37.087  -3.515   8.246  1.00  0.00     0.169 HD
HETATM   10  C6  UNL     1      36.855  -5.462   8.792  1.00  0.00     0.125 A
HETATM   11  N4  UNL     1      36.796  -6.005   7.484  1.00  0.00    -0.375 N
ATOM     12  H4  UNL     1      36.182  -6.811   7.368  1.00  0.00     0.161 HD
HETATM   13  C7  UNL     1      37.476  -5.579   6.318  1.00  0.00     0.121 C
HETATM   14  C8  UNL     1      37.757  -4.134   6.156  1.00  0.00     0.020 C
HETATM   15  C9  UNL     1      36.507  -3.366   5.820  1.00  0.00     0.012 C
HETATM   16  C10 UNL     1      36.698  -1.867   5.917  1.00  0.00     0.086 C
HETATM   17  S1  UNL     1      38.227  -1.450   6.774  1.00  0.00    -0.094 SA
HETATM   18  S2  UNL     1      37.871  -0.430   8.576  1.00  0.00    -0.044 SA
HETATM   19  C11 UNL     1      36.683  -1.228   9.649  1.00  0.00     0.357 C
HETATM   20  N6  UNL     1      37.223  -2.246  10.495  1.00  0.00    -0.340 N
ATOM     21  H6  UNL     1      37.759  -1.951  11.311  1.00  0.00     0.164 HD
ENDROOT
BRANCH  19  22
HETATM   22  N5  UNL     1      35.502  -1.712   8.921  1.00  0.00    -0.048 N
ATOM     23  H53 UNL     1      34.786  -0.989   8.861  1.00  0.00     0.277 HD
ATOM     24  H52 UNL     1      35.704  -1.826   7.928  1.00  0.00     0.277 HD
ATOM     25  H51 UNL     1      35.122  -2.571   9.319  1.00  0.00     0.277 HD
ENDBRANCH  19  22
TORSDOF 1
ENDMDL