MODEL 1
REMARK VINA RESULT: -9.154235824      0.000      0.000
REMARK  1 active torsions:
REMARK  status: ('A' for Active; 'I' for Inactive)
REMARK    1  A    between atoms: C15_23  and  N8_24
ROOT
HETATM    1  N1  UNL     1      37.722   0.299   6.901  1.00  0.00    -0.191 NA
HETATM    2  C1  UNL     1      37.469  -0.821   6.979  1.00  0.00     0.105 C
HETATM    3  C2  UNL     1      37.155  -2.221   7.073  1.00  0.00     0.112 A
HETATM    4  C3  UNL     1      36.986  -3.029   5.993  1.00  0.00     0.095 A
HETATM    5  N2  UNL     1      37.124  -2.482   4.688  1.00  0.00    -0.099 NA
HETATM    6  C4  UNL     1      36.688  -4.350   6.182  1.00  0.00     0.115 A
HETATM    7  C5  UNL     1      36.507  -5.223   5.041  1.00  0.00     0.105 C
HETATM    8  N3  UNL     1      36.352  -5.909   4.116  1.00  0.00    -0.191 NA
HETATM    9  C6  UNL     1      36.561  -4.855   7.466  1.00  0.00     0.137 A
HETATM   10  N4  UNL     1      36.285  -6.074   7.892  1.00  0.00    -0.341 N
ATOM     11  H4  UNL     1      36.114  -6.878   7.288  1.00  0.00     0.167 HD
HETATM   12  C7  UNL     1      36.263  -6.103   9.238  1.00  0.00     0.066 A
HETATM   13  C8  UNL     1      36.543  -4.824   9.671  1.00  0.00     0.062 A
HETATM   14  N5  UNL     1      36.721  -4.077   8.572  1.00  0.00    -0.283 N
HETATM   15  C9  UNL     1      37.015  -2.778   8.353  1.00  0.00     0.147 A
HETATM   16  N6  UNL     1      37.194  -1.931   9.489  1.00  0.00    -0.080 NA
HETATM   17  C10 UNL     1      36.636  -4.348  11.019  1.00  0.00     0.145 C
HETATM   18  C11 UNL     1      38.024  -4.412  11.557  1.00  0.00     0.070 C
HETATM   19  N7  UNL     1      39.114  -4.451  11.961  1.00  0.00    -0.197 NA
HETATM   20  C12 UNL     1      35.838  -5.203  12.033  1.00  0.00     0.025 C
HETATM   21  C13 UNL     1      36.386  -6.596  12.125  1.00  0.00     0.004 C
HETATM   22  C14 UNL     1      35.443  -7.399  11.240  1.00  0.00     0.039 C
HETATM   23  C15 UNL     1      35.979  -7.393   9.874  1.00  0.00     0.235 C
ENDROOT
BRANCH  23  24
HETATM   24  N8  UNL     1      37.158  -8.276   9.847  1.00  0.00    -0.070 N
ATOM     25  H83 UNL     1      37.942  -7.837   9.366  1.00  0.00     0.275 HD
ATOM     26  H82 UNL     1      37.575  -8.370  10.773  1.00  0.00     0.275 HD
ATOM     27  H81 UNL     1      36.932  -9.185   9.444  1.00  0.00     0.275 HD
ENDBRANCH  23  24
TORSDOF 1
ENDMDL