MODEL 5
REMARK VINA RESULT: -6.884206361      2.165      4.813
REMARK  2 active torsions:
REMARK  status: ('A' for Active; 'I' for Inactive)
REMARK    1  A    between atoms: C2_2  and  C3_3
REMARK    2  A    between atoms: C12_17  and  O1_18
ROOT
HETATM    1  C3  UNL     1      36.314  -1.706   6.304  1.00  0.00     0.152 C
HETATM    2  N1  UNL     1      37.123  -1.986   7.451  1.00  0.00    -0.371 N
ATOM      3  H1  UNL     1      37.860  -1.305   7.630  1.00  0.00     0.161 HD
HETATM    4  C4  UNL     1      37.065  -3.057   8.378  1.00  0.00     0.081 A
HETATM    5  S1  UNL     1      37.587  -2.957   9.995  1.00  0.00    -0.056 SA
HETATM    6  C5  UNL     1      37.227  -4.544  10.497  1.00  0.00     0.110 A
HETATM    7  N2  UNL     1      37.447  -5.078  11.799  1.00  0.00    -0.093 NA
HETATM    8  C6  UNL     1      36.701  -5.120   9.376  1.00  0.00     0.085 A
HETATM    9  C7  UNL     1      36.267  -6.526   9.466  1.00  0.00     0.102 C
HETATM   10  N3  UNL     1      35.902  -7.642   9.534  1.00  0.00    -0.191 NA
HETATM   11  C8  UNL     1      36.612  -4.351   8.257  1.00  0.00     0.010 A
HETATM   12  C9  UNL     1      36.055  -4.945   7.007  1.00  0.00     0.091 C
HETATM   13  C10 UNL     1      37.113  -5.572   6.161  1.00  0.00    -0.024 C
HETATM   14  C11 UNL     1      38.297  -6.045   6.485  1.00  0.00     0.020 C
HETATM   15  C12 UNL     1      36.468  -5.518   4.792  1.00  0.00     0.288 C
HETATM   16  O2  UNL     1      35.985  -4.223   4.817  1.00  0.00    -0.345 OA
HETATM   17  C13 UNL     1      35.370  -4.110   6.061  1.00  0.00     0.185 C
HETATM   18  C14 UNL     1      35.172  -2.671   6.368  1.00  0.00     0.037 C
HETATM   19  N4  UNL     1      34.041  -2.222   6.690  1.00  0.00    -0.402 N
ATOM     20  H41 UNL     1      33.262  -2.879   6.734  1.00  0.00     0.155 HD
ATOM     21  H42 UNL     1      33.904  -1.233   6.901  1.00  0.00     0.155 HD
ENDROOT
BRANCH   1  22
HETATM   22  C2  UNL     1      35.881  -0.310   6.322  1.00  0.00    -0.006 C
HETATM   23  C1  UNL     1      36.756   0.679   6.282  1.00  0.00     0.009 C
ENDBRANCH   1  22
BRANCH  15  24
HETATM   24  O1  UNL     1      35.492  -6.495   4.737  1.00  0.00    -0.367 OA
ATOM     25  H1  UNL     1      35.043  -6.418   3.904  1.00  0.00     0.213 HD
ENDBRANCH  15  24
TORSDOF 2
ENDMDL