MODEL 3
REMARK VINA RESULT: -8.541695934      0.968      1.153
REMARK  13 active torsions:
REMARK  status: ('A' for Active; 'I' for Inactive)
REMARK    1  A    between atoms: C2_2  and  C3_6
REMARK    2  A    between atoms: C4_9  and  C5_10
REMARK    3  A    between atoms: C5_10  and  C8_22
REMARK    4  A    between atoms: N3_11  and  O1_13
REMARK    5  A    between atoms: O1_13  and  C6_14
REMARK    6  A    between atoms: C6_14  and  N5_18
REMARK    7  A    between atoms: C8_22  and  O2_23
REMARK    8  A    between atoms: C8_22  and  O3_25
REMARK    9  A    between atoms: C9_28  and  C10_29
REMARK   10  A    between atoms: C10_29  and  O5_30
REMARK   11  A    between atoms: O5_30  and  C11_31
REMARK       I    between atoms: C11_31  and  N7_33
REMARK   12  A    between atoms: N7_33  and  N8_35
REMARK   13  A    between atoms: N8_35  and  C12_37
ROOT
HETATM    1  N5  UNL     1     -19.293   3.896  26.221  1.00  0.00    -0.258 N
ATOM      2  H5  UNL     1     -19.892   3.425  26.900  1.00  0.00     0.181 HD
HETATM    3  C7  UNL     1     -19.857   4.291  25.004  1.00  0.00     0.185 C
HETATM    4  N6  UNL     1     -20.342   4.614  24.005  1.00  0.00    -0.172 NA
ENDROOT
BRANCH   1   5
HETATM    5  C6  UNL     1     -17.927   4.116  26.560  1.00  0.00     0.249 C
HETATM    6  N4  UNL     1     -17.209   3.196  27.051  1.00  0.00    -0.363 N
ATOM      7  H42 UNL     1     -16.231   3.353  27.294  1.00  0.00     0.159 HD
ATOM      8  H41 UNL     1     -17.632   2.280  27.205  1.00  0.00     0.159 HD
BRANCH   5   9
HETATM    9  O1  UNL     1     -17.346   5.374  26.350  1.00  0.00    -0.200 OA
BRANCH   9  10
HETATM   10  N3  UNL     1     -16.793   6.098  27.368  1.00  0.00    -0.253 N
HETATM   11  C5  UNL     1     -17.308   7.178  27.814  1.00  0.00     0.138 C
ATOM     12  H3  UNL     1     -15.929   5.759  27.793  1.00  0.00     0.195 HD
BRANCH  11  13
HETATM   13  C4  UNL     1     -16.650   7.893  28.909  1.00  0.00     0.178 A
HETATM   14  N2  UNL     1     -16.355   7.444  30.137  1.00  0.00    -0.331 N
HETATM   15  C3  UNL     1     -15.738   8.437  30.859  1.00  0.00     0.088 A
ATOM     16  H2  UNL     1     -16.558   6.506  30.483  1.00  0.00     0.168 HD
HETATM   17  C9  UNL     1     -15.683   9.486  30.004  1.00  0.00     0.108 A
HETATM   18  O4  UNL     1     -16.240   9.117  28.849  1.00  0.00    -0.291 OA
BRANCH  15  19
HETATM   19  C2  UNL     1     -15.273   8.341  32.216  1.00  0.00     0.028 C
HETATM   20  C1  UNL     1     -13.932   7.880  32.607  1.00  0.00     0.070 C
HETATM   21  N1  UNL     1     -16.098   8.689  33.166  1.00  0.00    -0.401 N
ATOM     22  H12 UNL     1     -15.768   8.621  34.129  1.00  0.00     0.156 HD
ATOM     23  H11 UNL     1     -17.027   9.010  32.895  1.00  0.00     0.156 HD
ENDBRANCH  15  19
BRANCH  17  24
HETATM   24  C10 UNL     1     -15.121  10.839  30.230  1.00  0.00     0.248 C
BRANCH  24  25
HETATM   25  O5  UNL     1     -13.803  10.924  29.646  1.00  0.00    -0.296 OA
BRANCH  25  26
HETATM   26  C11 UNL     1     -13.571  11.570  28.460  1.00  0.00     0.379 C
HETATM   27  O6  UNL     1     -12.843  12.591  28.404  1.00  0.00    -0.237 OA
HETATM   28  N7  UNL     1     -14.145  11.114  27.240  1.00  0.00    -0.243 N
ATOM     29  H7  UNL     1     -14.741  10.286  27.257  1.00  0.00     0.192 HD
BRANCH  28  30
HETATM   30  N8  UNL     1     -13.923  11.758  26.021  1.00  0.00    -0.266 N
ATOM     31  H8  UNL     1     -13.492  12.682  26.014  1.00  0.00     0.190 HD
BRANCH  30  32
HETATM   32  C12 UNL     1     -14.288  11.146  24.787  1.00  0.00     0.207 C
HETATM   33  N9  UNL     1     -14.724  11.732  23.734  1.00  0.00    -0.345 N
HETATM   34  C13 UNL     1     -14.973  10.767  22.719  1.00  0.00     0.259 C
ATOM     35  H9  UNL     1     -14.870  12.737  23.638  1.00  0.00     0.164 HD
HETATM   36  N10 UNL     1     -14.917   9.445  23.344  1.00  0.00    -0.119 NA
HETATM   37  N11 UNL     1     -14.221   9.755  24.536  1.00  0.00    -0.273 N
ATOM     38  H11 UNL     1     -13.741   9.075  25.127  1.00  0.00     0.185 HD
ENDBRANCH  30  32
ENDBRANCH  28  30
ENDBRANCH  25  26
ENDBRANCH  24  25
ENDBRANCH  17  24
ENDBRANCH  11  13
BRANCH  11  39
HETATM   39  C8  UNL     1     -18.558   7.698  27.219  1.00  0.00     0.311 C
BRANCH  39  40
HETATM   40  O2  UNL     1     -19.647   6.874  27.501  1.00  0.00    -0.366 OA
ATOM     41  H2  UNL     1     -19.856   6.872  28.427  1.00  0.00     0.213 HD
ENDBRANCH  39  40
BRANCH  39  42
HETATM   42  O3  UNL     1     -18.780   9.029  27.467  1.00  0.00    -0.366 OA
ATOM     43  H3  UNL     1     -19.698   9.257  27.551  1.00  0.00     0.213 HD
ENDBRANCH  39  42
ENDBRANCH  11  39
ENDBRANCH   9  10
ENDBRANCH   5   9
ENDBRANCH   1   5
TORSDOF 13
ENDMDL