MODEL 4
REMARK VINA RESULT: -8.738827475      1.803      3.098
REMARK  8 active torsions:
REMARK  status: ('A' for Active; 'I' for Inactive)
REMARK       I    between atoms: C1_4  and  N3_6
REMARK    1  A    between atoms: N3_6  and  C2_8
REMARK    2  A    between atoms: C5_15  and  C6_16
REMARK    3  A    between atoms: C6_16  and  S1_17
REMARK    4  A    between atoms: S1_17  and  C7_18
REMARK    5  A    between atoms: C7_18  and  C8_19
REMARK    6  A    between atoms: C10_24  and  C11_25
REMARK    7  A    between atoms: C12_34  and  N12_35
REMARK    8  A    between atoms: N12_35  and  N13_36
ROOT
HETATM    1  C8  UNL     1     -14.910   8.024  27.971  1.00  0.00     0.067 A
HETATM    2  N6  UNL     1     -15.142   7.284  29.066  1.00  0.00    -0.192 N
ATOM      3  H6  UNL     1     -15.151   6.264  29.106  1.00  0.00     0.184 HD
HETATM    4  C9  UNL     1     -15.361   8.114  30.103  1.00  0.00     0.685 A
HETATM    5  N7  UNL     1     -15.273   9.403  29.687  1.00  0.00    -0.140 N
HETATM    6  C10 UNL     1     -14.996   9.337  28.379  1.00  0.00     0.126 A
HETATM    7  C12 UNL     1     -15.467  10.533  30.571  1.00  0.00     0.321 C
HETATM    8  N14 UNL     1     -15.600  10.204  31.941  1.00  0.00    -0.370 N
ATOM      9  H14 UNL     1     -16.029  10.858  32.595  1.00  0.00     0.158 HD
HETATM   10  C13 UNL     1     -15.125   8.946  32.382  1.00  0.00     0.259 C
HETATM   11  N15 UNL     1     -15.650   7.915  31.483  1.00  0.00    -0.210 N
ATOM     12  H15 UNL     1     -16.182   7.114  31.821  1.00  0.00     0.179 HD
ENDROOT
BRANCH   1  13
HETATM   13  C7  UNL     1     -14.622   7.489  26.615  1.00  0.00     0.134 C
BRANCH  13  14
HETATM   14  S1  UNL     1     -16.076   7.460  25.571  1.00  0.00    -0.155 SA
BRANCH  14  15
HETATM   15  C6  UNL     1     -17.514   7.903  26.573  1.00  0.00     0.158 C
BRANCH  15  16
HETATM   16  C5  UNL     1     -18.472   6.821  26.779  1.00  0.00     0.132 C
HETATM   17  N5  UNL     1     -19.561   7.130  27.392  1.00  0.00    -0.372 N
HETATM   18  C4  UNL     1     -20.676   6.263  27.729  1.00  0.00     0.141 C
ATOM     19  H5  UNL     1     -19.651   8.106  27.676  1.00  0.00     0.161 HD
HETATM   20  C3  UNL     1     -21.131   5.444  26.556  1.00  0.00     0.143 C
HETATM   21  N4  UNL     1     -20.209   4.371  26.224  1.00  0.00    -0.354 N
HETATM   22  C2  UNL     1     -18.924   4.427  26.116  1.00  0.00     0.228 C
ATOM     23  H4  UNL     1     -20.631   3.458  26.056  1.00  0.00     0.163 HD
HETATM   24  O1  UNL     1     -18.126   5.573  26.303  1.00  0.00    -0.266 OA
BRANCH  22  25
HETATM   25  N3  UNL     1     -18.204   3.248  25.779  1.00  0.00    -0.296 N
HETATM   26  C1  UNL     1     -18.706   2.345  24.814  1.00  0.00     0.189 C
HETATM   27  N1  UNL     1     -18.480   1.087  24.970  1.00  0.00    -0.373 N
HETATM   28  N2  UNL     1     -19.438   2.863  23.716  1.00  0.00    -0.064 NA
ATOM     29  H12 UNL     1     -18.842   0.436  24.274  1.00  0.00     0.158 HD
ATOM     30  H11 UNL     1     -17.953   0.715  25.760  1.00  0.00     0.158 HD
ATOM     31  H3  UNL     1     -17.315   3.052  26.239  1.00  0.00     0.172 HD
ENDBRANCH  22  25
ENDBRANCH  15  16
ENDBRANCH  14  15
ENDBRANCH  13  14
ENDBRANCH   1  13
BRANCH   6  32
HETATM   32  C11 UNL     1     -14.798  10.455  27.459  1.00  0.00     0.167 A
HETATM   33  N8  UNL     1     -13.694  11.208  27.324  1.00  0.00    -0.267 N
HETATM   34  N9  UNL     1     -13.900  12.120  26.391  1.00  0.00    -0.227 N
ATOM     35  H8  UNL     1     -12.832  11.093  27.858  1.00  0.00     0.190 HD
HETATM   36  N10 UNL     1     -15.121  11.977  25.914  1.00  0.00    -0.227 N
ATOM     37  H9  UNL     1     -13.224  12.821  26.089  1.00  0.00     0.210 HD
HETATM   38  N11 UNL     1     -15.662  10.966  26.564  1.00  0.00    -0.267 N
ATOM     39  H10 UNL     1     -15.560  12.538  25.185  1.00  0.00     0.210 HD
ATOM     40  H11 UNL     1     -16.608  10.617  26.410  1.00  0.00     0.190 HD
ENDBRANCH   6  32
BRANCH   7  41
HETATM   41  N12 UNL     1     -16.718  11.223  30.200  1.00  0.00    -0.100 NA
BRANCH  41  42
HETATM   42  N13 UNL     1     -17.739  10.932  31.074  1.00  0.00    -0.345 N
ATOM     43 2H13 UNL     1     -18.595  10.452  30.795  1.00  0.00     0.172 HD
ATOM     44 1H13 UNL     1     -17.531  11.254  32.019  1.00  0.00     0.172 HD
ENDBRANCH  41  42
ENDBRANCH   7  41
TORSDOF 8
ENDMDL