MODEL 2
REMARK VINA RESULT: -9.256524983      2.704      7.299
REMARK  11 active torsions:
REMARK  status: ('A' for Active; 'I' for Inactive)
REMARK    1  A    between atoms: N1_1  and  C1_4
REMARK    2  A    between atoms: N2_5  and  N3_7
REMARK    3  A    between atoms: N3_7  and  C2_9
REMARK    4  A    between atoms: N5_12  and  O1_13
REMARK    5  A    between atoms: C5_17  and  N6_18
REMARK    6  A    between atoms: C6_26  and  C7_27
REMARK    7  A    between atoms: C7_27  and  N10_28
REMARK    8  A    between atoms: N10_28  and  C8_30
REMARK    9  A    between atoms: C9_31  and  O4_32
REMARK   10  A    between atoms: C10_36  and  N12_37
REMARK   11  A    between atoms: C11_42  and  N14_43
ROOT
HETATM    1  C2  UNL     1     -16.575   6.201  27.324  1.00  0.00     0.723 A
HETATM    2  N4  UNL     1     -16.210   4.881  27.302  1.00  0.00    -0.102 N
ATOM      3  H4  UNL     1     -15.260   4.534  27.435  1.00  0.00     0.208 HD
HETATM    4  N5  UNL     1     -17.258   4.134  27.087  1.00  0.00    -0.131 N
HETATM    5  C3  UNL     1     -18.316   4.937  26.963  1.00  0.00     0.181 A
HETATM    6  C4  UNL     1     -19.634   4.623  26.731  1.00  0.00     0.110 A
HETATM    7  C5  UNL     1     -20.556   5.625  26.642  1.00  0.00     0.201 A
HETATM    8  N7  UNL     1     -20.108   6.876  26.791  1.00  0.00    -0.200 N
HETATM    9  N8  UNL     1     -20.793   8.027  26.751  1.00  0.00    -0.232 N
ATOM     10  H8  UNL     1     -21.798   8.110  26.594  1.00  0.00     0.209 HD
HETATM   11  N9  UNL     1     -19.980   9.017  26.944  1.00  0.00    -0.284 N
ATOM     12  H9  UNL     1     -20.257   9.999  26.959  1.00  0.00     0.188 HD
HETATM   13  C6  UNL     1     -18.693   8.566  27.125  1.00  0.00     0.091 A
HETATM   14  C12 UNL     1     -18.809   7.207  27.022  1.00  0.00     0.181 A
HETATM   15  N15 UNL     1     -17.870   6.220  27.114  1.00  0.00    -0.107 N
ENDROOT
BRANCH  13  16
HETATM   16  C7  UNL     1     -17.546   9.432  27.390  1.00  0.00     0.182 C
BRANCH  16  17
HETATM   17  N10 UNL     1     -17.630  10.211  28.619  1.00  0.00    -0.378 N
ATOM     18  H10 UNL     1     -18.571  10.508  28.878  1.00  0.00     0.160 HD
BRANCH  17  19
HETATM   19  C8  UNL     1     -16.627  10.612  29.490  1.00  0.00     0.125 A
HETATM   20  C9  UNL     1     -15.267  10.593  29.129  1.00  0.00     0.185 A
HETATM   21  N11 UNL     1     -14.326  11.004  29.982  1.00  0.00    -0.168 N
HETATM   22  C10 UNL     1     -14.626  11.451  31.213  1.00  0.00     0.679 A
ATOM     23  H11 UNL     1     -13.349  10.978  29.690  1.00  0.00     0.186 HD
HETATM   24  N13 UNL     1     -15.920  11.465  31.551  1.00  0.00    -0.175 N
HETATM   25  C11 UNL     1     -16.935  11.067  30.748  1.00  0.00     0.145 A
ATOM     26  H13 UNL     1     -16.161  11.801  32.483  1.00  0.00     0.186 HD
BRANCH  20  27
HETATM   27  O4  UNL     1     -14.930  10.132  27.864  1.00  0.00    -0.344 OA
ATOM     28  H4  UNL     1     -14.091  10.392  27.500  1.00  0.00     0.219 HD
ENDBRANCH  20  27
BRANCH  22  29
HETATM   29  N12 UNL     1     -13.689  11.851  32.036  1.00  0.00    -0.234 N
ATOM     30 2H12 UNL     1     -13.761  11.716  33.044  1.00  0.00     0.174 HD
ATOM     31 1H12 UNL     1     -12.848  12.314  31.693  1.00  0.00     0.174 HD
ENDBRANCH  22  29
BRANCH  25  32
HETATM   32  N14 UNL     1     -18.139  11.128  31.239  1.00  0.00    -0.383 N
ATOM     33 2H14 UNL     1     -18.743  11.876  30.898  1.00  0.00     0.157 HD
ATOM     34 1H14 UNL     1     -18.511  10.493  31.945  1.00  0.00     0.157 HD
ENDBRANCH  25  32
ENDBRANCH  17  19
ENDBRANCH  16  17
ENDBRANCH  13  16
BRANCH   7  35
HETATM   35  N6  UNL     1     -21.935   5.382  26.403  1.00  0.00    -0.096 N
HETATM   36  O2  UNL     1     -22.523   4.609  27.184  1.00  0.00    -0.530 OA
HETATM   37  O3  UNL     1     -22.637   5.938  25.386  1.00  0.00    -0.530 OA
ENDBRANCH   7  35
BRANCH   1  38
HETATM   38  N3  UNL     1     -15.699   7.069  27.519  1.00  0.00    -0.129 N
ATOM     39  H3  UNL     1     -15.676   7.814  26.821  1.00  0.00     0.205 HD
BRANCH  38  40
HETATM   40  N2  UNL     1     -14.771   7.188  28.506  1.00  0.00    -0.282 N
HETATM   41  C1  UNL     1     -15.088   7.117  29.743  1.00  0.00     0.191 C
ATOM     42  H2  UNL     1     -13.794   7.337  28.252  1.00  0.00     0.188 HD
BRANCH  41  43
HETATM   43  N1  UNL     1     -15.036   6.697  30.951  1.00  0.00    -0.394 N
ATOM     44  H12 UNL     1     -14.228   7.233  31.266  1.00  0.00     0.156 HD
ATOM     45  H11 UNL     1     -15.314   6.159  31.772  1.00  0.00     0.156 HD
ENDBRANCH  41  43
ENDBRANCH  38  40
ENDBRANCH   1  38
BRANCH   4  46
HETATM   46  O1  UNL     1     -17.296   2.742  26.996  1.00  0.00    -0.266 OA
ATOM     47  H1  UNL     1     -16.926   2.201  26.308  1.00  0.00     0.247 HD
ENDBRANCH   4  46
TORSDOF 11
ENDMDL