MODEL 3
REMARK VINA RESULT: -9.329386107      3.104      4.252
REMARK  8 active torsions:
REMARK  status: ('A' for Active; 'I' for Inactive)
REMARK    1  A    between atoms: S1_2  and  C2_3
REMARK    2  A    between atoms: C3_8  and  C4_9
REMARK    3  A    between atoms: C4_9  and  N3_10
REMARK    4  A    between atoms: N3_10  and  C5_12
REMARK    5  A    between atoms: C8_18  and  C9_19
REMARK    6  A    between atoms: N8_26  and  C10_27
REMARK    7  A    between atoms: C13_38  and  N13_39
REMARK    8  A    between atoms: N14_43  and  N15_44
ROOT
HETATM    1  C5  UNL     1     -16.995   8.694  28.427  1.00  0.00     0.009 C
HETATM    2  C6  UNL     1     -17.111   9.484  27.185  1.00  0.00     0.284 C
HETATM    3  N4  UNL     1     -16.629   8.902  25.976  1.00  0.00    -0.070 N
ATOM      4  H41 UNL     1     -15.823   9.419  25.625  1.00  0.00     0.277 HD
ATOM      5  H42 UNL     1     -17.284   9.068  25.212  1.00  0.00     0.277 HD
HETATM    6  C7  UNL     1     -16.314   7.461  26.089  1.00  0.00     0.245 C
HETATM    7  C8  UNL     1     -17.464   6.824  26.773  1.00  0.00     0.087 C
HETATM    8  C14 UNL     1     -17.251   7.242  28.256  1.00  0.00     0.068 C
ENDROOT
BRANCH   7   9
HETATM    9  C9  UNL     1     -17.522   5.364  26.806  1.00  0.00     0.127 A
HETATM   10  N5  UNL     1     -16.453   4.519  27.057  1.00  0.00    -0.271 N
HETATM   11  N6  UNL     1     -16.833   3.288  27.013  1.00  0.00    -0.226 N
ATOM     12  H5  UNL     1     -15.499   4.827  27.250  1.00  0.00     0.190 HD
HETATM   13  N7  UNL     1     -18.119   3.255  26.739  1.00  0.00    -0.219 N
ATOM     14  H6  UNL     1     -16.236   2.474  27.164  1.00  0.00     0.210 HD
HETATM   15  N8  UNL     1     -18.531   4.549  26.614  1.00  0.00    -0.220 N
ATOM     16  H7  UNL     1     -18.697   2.421  26.640  1.00  0.00     0.210 HD
BRANCH  15  17
HETATM   17  C10 UNL     1     -19.879   4.788  26.287  1.00  0.00     0.145 A
HETATM   18  C11 UNL     1     -20.275   4.386  24.992  1.00  0.00     0.164 A
HETATM   19  N9  UNL     1     -19.342   3.814  24.093  1.00  0.00    -0.080 NA
HETATM   20  N10 UNL     1     -21.526   4.538  24.560  1.00  0.00    -0.177 N
HETATM   21  C12 UNL     1     -22.470   5.096  25.385  1.00  0.00     0.678 A
ATOM     22  H10 UNL     1     -21.782   4.239  23.619  1.00  0.00     0.185 HD
HETATM   23  N11 UNL     1     -23.611   5.174  24.937  1.00  0.00    -0.234 N
HETATM   24  N12 UNL     1     -22.068   5.472  26.617  1.00  0.00    -0.175 N
ATOM     25 2H11 UNL     1     -23.914   4.890  24.006  1.00  0.00     0.174 HD
ATOM     26 1H11 UNL     1     -24.312   5.589  25.550  1.00  0.00     0.174 HD
HETATM   27  C13 UNL     1     -20.821   5.341  27.101  1.00  0.00     0.147 A
ATOM     28  H12 UNL     1     -22.768   5.890  27.230  1.00  0.00     0.186 HD
BRANCH  27  29
HETATM   29  N13 UNL     1     -20.539   5.703  28.306  1.00  0.00    -0.383 N
ATOM     30 2H13 UNL     1     -20.977   6.525  28.721  1.00  0.00     0.157 HD
ATOM     31 1H13 UNL     1     -19.891   5.168  28.884  1.00  0.00     0.157 HD
ENDBRANCH  27  29
ENDBRANCH  15  17
ENDBRANCH   7   9
BRANCH   1  32
HETATM   32  N3  UNL     1     -15.908   9.004  29.276  1.00  0.00    -0.388 N
ATOM     33  H3  UNL     1     -15.661   8.415  30.072  1.00  0.00     0.159 HD
BRANCH  32  34
HETATM   34  C4  UNL     1     -15.159  10.210  28.954  1.00  0.00     0.199 C
BRANCH  34  35
HETATM   35  C3  UNL     1     -14.969  10.972  30.212  1.00  0.00     0.137 A
HETATM   36  N2  UNL     1     -13.817  11.606  30.464  1.00  0.00    -0.284 N
HETATM   37  N1  UNL     1     -13.792  12.121  31.639  1.00  0.00    -0.277 N
ATOM     38  H2  UNL     1     -13.048  11.672  29.798  1.00  0.00     0.188 HD
HETATM   39  C2  UNL     1     -15.018  11.801  32.202  1.00  0.00     0.181 A
ATOM     40  H1  UNL     1     -13.034  12.652  32.067  1.00  0.00     0.189 HD
HETATM   41  N14 UNL     1     -15.707  11.101  31.289  1.00  0.00    -0.224 N
BRANCH  39  42
HETATM   42  S1  UNL     1     -15.399  12.237  33.889  1.00  0.00    -0.095 SA
HETATM   43  C1  UNL     1     -16.784  13.432  33.902  1.00  0.00     0.099 C
ENDBRANCH  39  42
BRANCH  41  44
HETATM   44  N15 UNL     1     -17.012  10.629  31.511  1.00  0.00    -0.335 N
ATOM     45 2H15 UNL     1     -17.424  10.300  32.384  1.00  0.00     0.177 HD
ATOM     46 1H15 UNL     1     -17.710  10.554  30.771  1.00  0.00     0.177 HD
ENDBRANCH  41  44
ENDBRANCH  34  35
ENDBRANCH  32  34
ENDBRANCH   1  32
TORSDOF 8
ENDMDL