MODEL 4
REMARK VINA RESULT: -8.570383584      1.883      2.819
REMARK  11 active torsions:
REMARK  status: ('A' for Active; 'I' for Inactive)
REMARK    1  A    between atoms: N2_3  and  C2_5
REMARK    2  A    between atoms: C2_5  and  C3_6
REMARK    3  A    between atoms: C2_5  and  S1_38
REMARK    4  A    between atoms: C4_9  and  N4_10
REMARK    5  A    between atoms: N4_10  and  O1_12
REMARK    6  A    between atoms: C5_16  and  C6_17
REMARK    7  A    between atoms: C7_22  and  C8_23
REMARK    8  A    between atoms: C8_23  and  O2_24
REMARK    9  A    between atoms: C11_33  and  N9_34
REMARK   10  A    between atoms: N9_34  and  O5_36
REMARK   11  A    between atoms: S1_38  and  N10_39
ROOT
HETATM    1  N1  UNL     1     -16.772  13.711  34.547  1.00  0.00    -0.172 NA
HETATM    2  C1  UNL     1     -16.594  12.992  33.628  1.00  0.00     0.183 C
HETATM    3  N2  UNL     1     -16.411  12.137  32.539  1.00  0.00    -0.281 N
ATOM      4  H2  UNL     1     -17.204  11.931  31.932  1.00  0.00     0.179 HD
ENDROOT
BRANCH   3   5
HETATM    5  C2  UNL     1     -15.159  11.549  32.255  1.00  0.00     0.187 C
BRANCH   5   6
HETATM    6  C3  UNL     1     -14.974  10.965  30.900  1.00  0.00     0.121 A
HETATM    7  N3  UNL     1     -14.115  11.590  30.024  1.00  0.00    -0.185 N
HETATM    8  C4  UNL     1     -13.894  11.128  28.803  1.00  0.00     0.703 A
ATOM      9  H3  UNL     1     -13.634  12.438  30.326  1.00  0.00     0.184 HD
HETATM   10  N5  UNL     1     -14.511  10.023  28.393  1.00  0.00    -0.183 N
HETATM   11  C5  UNL     1     -15.359   9.366  29.197  1.00  0.00     0.132 A
ATOM     12  H5  UNL     1     -14.337   9.671  27.452  1.00  0.00     0.184 HD
HETATM   13  C11 UNL     1     -15.619   9.822  30.491  1.00  0.00     0.116 A
BRANCH   8  14
HETATM   14  N4  UNL     1     -13.059  11.810  28.072  1.00  0.00    -0.098 N
ATOM     15  H4  UNL     1     -12.693  11.419  27.204  1.00  0.00     0.213 HD
BRANCH  14  16
HETATM   16  O1  UNL     1     -12.679  13.051  28.483  1.00  0.00    -0.276 OA
ATOM     17  H1  UNL     1     -11.831  13.388  28.217  1.00  0.00     0.245 HD
ENDBRANCH  14  16
ENDBRANCH   8  14
BRANCH  11  18
HETATM   18  C6  UNL     1     -16.019   8.136  28.718  1.00  0.00     0.194 A
HETATM   19  N6  UNL     1     -15.527   7.098  28.049  1.00  0.00    -0.276 N
HETATM   20  N7  UNL     1     -16.493   6.230  27.840  1.00  0.00    -0.277 N
ATOM     21  H6  UNL     1     -14.559   6.992  27.747  1.00  0.00     0.189 HD
HETATM   22  C7  UNL     1     -17.626   6.711  28.380  1.00  0.00     0.205 A
ATOM     23  H7  UNL     1     -16.398   5.341  27.349  1.00  0.00     0.189 HD
HETATM   24  O4  UNL     1     -17.311   7.861  28.902  1.00  0.00    -0.270 OA
BRANCH  22  25
HETATM   25  C8  UNL     1     -18.934   5.998  28.340  1.00  0.00     0.257 C
HETATM   26  C9  UNL     1     -18.765   4.645  27.682  1.00  0.00     0.312 C
HETATM   27  N8  UNL     1     -19.845   4.677  26.689  1.00  0.00    -0.049 N
HETATM   28  C10 UNL     1     -19.759   6.074  26.276  1.00  0.00     0.403 C
ATOM     29  H82 UNL     1     -19.785   3.986  25.942  1.00  0.00     0.279 HD
ATOM     30  H81 UNL     1     -20.760   4.364  27.014  1.00  0.00     0.279 HD
HETATM   31  O3  UNL     1     -19.813   6.709  27.526  1.00  0.00    -0.320 OA
BRANCH  25  32
HETATM   32  O2  UNL     1     -19.521   5.875  29.591  1.00  0.00    -0.358 OA
ATOM     33  H2  UNL     1     -20.245   5.260  29.601  1.00  0.00     0.213 HD
ENDBRANCH  25  32
ENDBRANCH  22  25
ENDBRANCH  11  18
BRANCH  13  34
HETATM   34  N9  UNL     1     -16.509   9.112  31.327  1.00  0.00    -0.265 N
ATOM     35  H9  UNL     1     -16.205   8.248  31.776  1.00  0.00     0.194 HD
BRANCH  34  36
HETATM   36  O5  UNL     1     -17.754   9.572  31.533  1.00  0.00    -0.289 OA
ATOM     37  H5  UNL     1     -18.289   9.846  30.798  1.00  0.00     0.244 HD
ENDBRANCH  34  36
ENDBRANCH  13  34
ENDBRANCH   5   6
BRANCH   5  38
HETATM   38  S1  UNL     1     -14.484  10.512  33.529  1.00  0.00     0.275 S
HETATM   39  O6  UNL     1     -13.893  11.270  34.667  1.00  0.00    -0.199 OA
HETATM   40  O7  UNL     1     -15.598   9.622  34.018  1.00  0.00    -0.199 OA
BRANCH  38  41
HETATM   41  N10 UNL     1     -13.184   9.540  32.868  1.00  0.00    -0.323 N
ATOM     42 2H10 UNL     1     -12.196   9.790  32.913  1.00  0.00     0.169 HD
ATOM     43 1H10 UNL     1     -13.571   8.699  32.440  1.00  0.00     0.169 HD
ENDBRANCH  38  41
ENDBRANCH   5  38
ENDBRANCH   3   5
TORSDOF 11
ENDMDL