MODEL 5
REMARK VINA RESULT: -8.005171201      1.250      1.642
REMARK  9 active torsions:
REMARK  status: ('A' for Active; 'I' for Inactive)
REMARK    1  A    between atoms: O1_2  and  C2_3
REMARK    2  A    between atoms: C2_3  and  C3_5
REMARK    3  A    between atoms: N4_12  and  C6_13
REMARK    4  A    between atoms: C6_13  and  C7_14
REMARK    5  A    between atoms: C7_14  and  O3_15
REMARK    6  A    between atoms: C7_14  and  C8_17
REMARK    7  A    between atoms: C10_21  and  N6_22
REMARK    8  A    between atoms: N11_37  and  C15_38
REMARK    9  A    between atoms: C15_38  and  N12_39
ROOT
HETATM    1  C3  UNL     1     -14.513  10.707  27.978  1.00  0.00     0.167 A
HETATM    2  N1  UNL     1     -14.373  11.108  29.236  1.00  0.00    -0.180 N
ATOM      3  H1  UNL     1     -14.201  12.063  29.551  1.00  0.00     0.184 HD
HETATM    4  C4  UNL     1     -14.499  10.026  30.013  1.00  0.00     0.711 A
HETATM    5  N2  UNL     1     -14.723   8.902  29.275  1.00  0.00    -0.062 N
HETATM    6  C5  UNL     1     -14.734   9.314  28.008  1.00  0.00     0.190 A
HETATM    7  N3  UNL     1     -14.925   8.507  26.867  1.00  0.00    -0.077 NA
HETATM    8  N4  UNL     1     -14.915   7.577  29.707  1.00  0.00    -0.226 N
HETATM    9  C12 UNL     1     -14.536   7.007  30.986  1.00  0.00     0.166 C
HETATM   10  N8  UNL     1     -14.647   5.595  31.138  1.00  0.00    -0.079 NA
HETATM   11  C13 UNL     1     -14.126   7.657  32.061  1.00  0.00     0.133 C
HETATM   12  N9  UNL     1     -13.826   6.821  33.157  1.00  0.00    -0.095 NA
HETATM   13  C14 UNL     1     -13.955   9.095  32.309  1.00  0.00     0.147 C
HETATM   14  N10 UNL     1     -13.393   9.483  33.386  1.00  0.00    -0.383 N
ATOM     15 1H10 UNL     1     -13.274  10.482  33.559  1.00  0.00     0.157 HD
ATOM     16 2H10 UNL     1     -13.084   8.744  34.018  1.00  0.00     0.157 HD
HETATM   17  N11 UNL     1     -14.387  10.130  31.424  1.00  0.00    -0.147 N
ENDROOT
BRANCH   8  18
HETATM   18  C6  UNL     1     -15.573   6.719  28.820  1.00  0.00     0.156 C
BRANCH  18  19
HETATM   19  C7  UNL     1     -17.018   6.629  28.715  1.00  0.00     0.100 C
BRANCH  19  20
HETATM   20  O3  UNL     1     -17.594   7.203  29.759  1.00  0.00    -0.358 OA
ATOM     21  H3  UNL     1     -18.531   7.045  29.750  1.00  0.00     0.217 HD
ENDBRANCH  19  20
BRANCH  19  22
HETATM   22  C8  UNL     1     -17.912   6.086  27.783  1.00  0.00     0.083 A
HETATM   23  C9  UNL     1     -18.374   6.731  26.667  1.00  0.00     0.126 A
HETATM   24  N5  UNL     1     -19.278   6.175  25.799  1.00  0.00    -0.201 N
HETATM   25  C10 UNL     1     -19.736   4.936  26.052  1.00  0.00     0.678 A
ATOM     26  H5  UNL     1     -19.597   6.691  24.978  1.00  0.00     0.183 HD
HETATM   27  N7  UNL     1     -19.316   4.263  27.130  1.00  0.00    -0.156 N
HETATM   28  C11 UNL     1     -18.443   4.815  27.958  1.00  0.00     0.274 A
ATOM     29  H7  UNL     1     -19.668   3.324  27.313  1.00  0.00     0.187 HD
HETATM   30  O4  UNL     1     -18.067   4.136  28.977  1.00  0.00    -0.267 OA
BRANCH  25  31
HETATM   31  N6  UNL     1     -20.601   4.358  25.256  1.00  0.00    -0.234 N
ATOM     32  H62 UNL     1     -20.650   4.671  24.286  1.00  0.00     0.174 HD
ATOM     33  H61 UNL     1     -21.211   3.615  25.592  1.00  0.00     0.174 HD
ENDBRANCH  25  31
ENDBRANCH  19  22
ENDBRANCH  18  19
ENDBRANCH   8  18
BRANCH  17  34
HETATM   34  C15 UNL     1     -14.745  11.404  32.052  1.00  0.00     0.289 C
BRANCH  34  35
HETATM   35  N12 UNL     1     -13.546  12.211  32.023  1.00  0.00    -0.324 N
HETATM   36  N13 UNL     1     -13.086  12.725  33.071  1.00  0.00    -0.348 N
ATOM     37 2H13 UNL     1     -13.579  12.562  33.949  1.00  0.00     0.176 HD
ATOM     38 1H13 UNL     1     -12.239  13.294  33.051  1.00  0.00     0.176 HD
ATOM     39  H12 UNL     1     -13.066  12.365  31.136  1.00  0.00     0.181 HD
ENDBRANCH  34  35
ENDBRANCH  17  34
BRANCH   1  40
HETATM   40  C2  UNL     1     -14.459  11.473  26.748  1.00  0.00     0.313 C
HETATM   41  O2  UNL     1     -13.518  12.331  26.645  1.00  0.00    -0.257 OA
BRANCH  40  42
HETATM   42  O1  UNL     1     -15.373  11.291  25.736  1.00  0.00    -0.321 OA
HETATM   43  C1  UNL     1     -14.985  11.229  24.390  1.00  0.00     0.213 C
ENDBRANCH  40  42
ENDBRANCH   1  40
TORSDOF 9
ENDMDL