MODEL 5
REMARK VINA RESULT: -9.505498589      1.195      1.433
REMARK  10 active torsions:
REMARK  status: ('A' for Active; 'I' for Inactive)
REMARK    1  A    between atoms: N2_4  and  N3_6
REMARK    2  A    between atoms: N3_6  and  C1_8
REMARK    3  A    between atoms: C1_8  and  C2_13
REMARK    4  A    between atoms: N4_9  and  O1_11
REMARK    5  A    between atoms: C2_13  and  S1_15
REMARK    6  A    between atoms: S1_15  and  C3_16
REMARK    7  A    between atoms: N5_18  and  C5_19
REMARK    8  A    between atoms: C7_26  and  N8_27
REMARK    9  A    between atoms: C8_34  and  N11_35
REMARK       I    between atoms: N11_35  and  C9_37
REMARK       I    between atoms: C9_37  and  N12_38
REMARK       I    between atoms: C9_37  and  N13_42
REMARK   10  A    between atoms: C11_47  and  O5_48
ROOT
HETATM    1  C3  UNL     1     -15.838   9.545  26.824  1.00  0.00     0.058 A
HETATM    2  C4  UNL     1     -16.897   8.772  26.394  1.00  0.00     0.138 A
HETATM    3  N5  UNL     1     -17.449   7.844  27.212  1.00  0.00    -0.140 N
HETATM    4  C8  UNL     1     -16.955   7.675  28.464  1.00  0.00     0.129 A
HETATM    5  C10 UNL     1     -15.903   8.422  28.931  1.00  0.00     0.087 A
HETATM    6  C11 UNL     1     -15.335   9.370  28.105  1.00  0.00     0.087 A
ENDROOT
BRANCH   1   7
HETATM    7  S1  UNL     1     -15.126  10.754  25.745  1.00  0.00    -0.040 SA
BRANCH   7   8
HETATM    8  C2  UNL     1     -14.969  10.141  24.077  1.00  0.00     0.260 C
HETATM    9  O2  UNL     1     -14.885   8.909  23.889  1.00  0.00    -0.276 OA
BRANCH   8  10
HETATM   10  C1  UNL     1     -14.942  11.085  22.969  1.00  0.00     0.199 C
HETATM   11  N4  UNL     1     -15.292  10.729  21.790  1.00  0.00    -0.248 N
ATOM     12  H4  UNL     1     -15.596   9.770  21.617  1.00  0.00     0.196 HD
BRANCH  10  13
HETATM   13  N3  UNL     1     -14.517  12.414  23.222  1.00  0.00    -0.266 N
ATOM     14  H3  UNL     1     -15.023  13.110  23.770  1.00  0.00     0.190 HD
BRANCH  13  15
HETATM   15  N2  UNL     1     -13.304  12.601  22.604  1.00  0.00    -0.248 N
HETATM   16  N1  UNL     1     -12.991  13.599  21.942  1.00  0.00    -0.331 N
ATOM     17  H12 UNL     1     -13.699  14.329  21.859  1.00  0.00     0.178 HD
ATOM     18  H11 UNL     1     -12.091  13.738  21.482  1.00  0.00     0.178 HD
ATOM     19  H2  UNL     1     -12.609  11.861  22.697  1.00  0.00     0.207 HD
ENDBRANCH  13  15
ENDBRANCH  10  13
BRANCH  11  20
HETATM   20  O1  UNL     1     -15.259  11.627  20.763  1.00  0.00    -0.288 OA
ATOM     21  H1  UNL     1     -15.367  11.332  19.866  1.00  0.00     0.244 HD
ENDBRANCH  11  20
ENDBRANCH   8  10
ENDBRANCH   7   8
ENDBRANCH   1   7
BRANCH   6  22
HETATM   22  O5  UNL     1     -14.272  10.118  28.590  1.00  0.00    -0.359 OA
ATOM     23  H5  UNL     1     -14.207  10.371  29.503  1.00  0.00     0.217 HD
ENDBRANCH   6  22
BRANCH   3  24
HETATM   24  C5  UNL     1     -18.540   7.060  26.746  1.00  0.00     0.706 A
HETATM   25  N6  UNL     1     -18.318   5.942  26.045  1.00  0.00    -0.171 N
HETATM   26  C6  UNL     1     -19.331   5.146  25.573  1.00  0.00     0.167 A
ATOM     27  H6  UNL     1     -17.354   5.670  25.854  1.00  0.00     0.186 HD
HETATM   28  N7  UNL     1     -19.065   4.096  24.903  1.00  0.00    -0.382 N
HETATM   29  C7  UNL     1     -20.604   5.527  25.838  1.00  0.00     0.233 A
ATOM     30  H72 UNL     1     -18.107   3.810  24.704  1.00  0.00     0.157 HD
ATOM     31  H71 UNL     1     -19.817   3.504  24.552  1.00  0.00     0.157 HD
HETATM   32  N9  UNL     1     -20.787   6.665  26.552  1.00  0.00    -0.263 N
HETATM   33  N10 UNL     1     -19.796   7.415  26.996  1.00  0.00    -0.130 N
ATOM     34  H9  UNL     1     -21.743   6.958  26.756  1.00  0.00     0.189 HD
ATOM     35  H10 UNL     1     -19.993   8.263  27.528  1.00  0.00     0.205 HD
BRANCH  29  36
HETATM   36  N8  UNL     1     -21.771   4.845  25.437  1.00  0.00    -0.092 N
HETATM   37  O3  UNL     1     -21.971   4.320  24.336  1.00  0.00    -0.530 OA
HETATM   38  O4  UNL     1     -22.826   4.711  26.344  1.00  0.00    -0.530 OA
ENDBRANCH  29  36
ENDBRANCH   3  24
BRANCH   4  39
HETATM   39  N11 UNL     1     -17.522   6.789  29.163  1.00  0.00    -0.326 N
HETATM   40  C9  UNL     1     -17.036   5.537  29.627  1.00  0.00     0.481 C
HETATM   41  N12 UNL     1     -16.736   4.695  28.493  1.00  0.00    -0.033 N
HETATM   42  N13 UNL     1     -15.861   5.662  30.477  1.00  0.00    -0.033 N
ATOM     43 3H12 UNL     1     -17.534   4.592  27.864  1.00  0.00     0.278 HD
ATOM     44 2H12 UNL     1     -16.094   5.141  27.837  1.00  0.00     0.278 HD
ATOM     45 1H12 UNL     1     -16.388   3.795  28.826  1.00  0.00     0.278 HD
ATOM     46 3H13 UNL     1     -15.124   6.186  30.005  1.00  0.00     0.278 HD
ATOM     47 2H13 UNL     1     -16.041   6.294  31.257  1.00  0.00     0.278 HD
ATOM     48 1H13 UNL     1     -15.512   4.763  30.811  1.00  0.00     0.278 HD
ATOM     49  H11 UNL     1     -18.479   7.007  29.439  1.00  0.00     0.164 HD
ENDBRANCH   4  39
TORSDOF 10
ENDMDL