MODEL 4
REMARK VINA RESULT: -9.597322448      3.482      8.337
REMARK  8 active torsions:
REMARK  status: ('A' for Active; 'I' for Inactive)
REMARK    1  A    between atoms: N1_1  and  C1_4
REMARK    2  A    between atoms: C4_12  and  C5_13
REMARK    3  A    between atoms: C6_20  and  C7_21
REMARK    4  A    between atoms: C7_21  and  N7_22
REMARK    5  A    between atoms: N7_22  and  C8_24
REMARK    6  A    between atoms: C9_27  and  N9_28
REMARK    7  A    between atoms: N9_28  and  N10_29
REMARK    8  A    between atoms: N10_29  and  N11_31
ROOT
HETATM    1  C5  UNL     1     -16.023   8.003  27.917  1.00  0.00     0.149 A
HETATM    2  N4  UNL     1     -16.267   8.277  29.210  1.00  0.00    -0.269 N
ATOM      3  H4  UNL     1     -16.091   9.225  29.542  1.00  0.00     0.190 HD
HETATM    4  N5  UNL     1     -16.721   7.388  30.077  1.00  0.00    -0.240 N
ATOM      5  H5  UNL     1     -16.891   7.643  31.049  1.00  0.00     0.208 HD
HETATM    6  N6  UNL     1     -16.945   6.170  29.653  1.00  0.00    -0.273 N
ATOM      7  H6  UNL     1     -17.295   5.467  30.304  1.00  0.00     0.190 HD
HETATM    8  C6  UNL     1     -16.721   5.831  28.372  1.00  0.00     0.117 A
HETATM    9  N15 UNL     1     -16.257   6.749  27.496  1.00  0.00    -0.327 N
ATOM     10  H15 UNL     1     -16.087   6.492  26.524  1.00  0.00     0.169 HD
ENDROOT
BRANCH   8  11
HETATM   11  C7  UNL     1     -17.003   4.433  27.981  1.00  0.00     0.216 C
BRANCH  11  12
HETATM   12  N7  UNL     1     -18.419   4.181  28.042  1.00  0.00    -0.218 N
ATOM     13  H7  UNL     1     -18.858   3.977  28.940  1.00  0.00     0.178 HD
BRANCH  12  14
HETATM   14  C8  UNL     1     -19.214   4.216  26.853  1.00  0.00     0.692 A
HETATM   15  N8  UNL     1     -20.280   4.919  26.818  1.00  0.00    -0.187 N
HETATM   16  C9  UNL     1     -21.178   5.062  25.721  1.00  0.00     0.333 A
ATOM     17  H8  UNL     1     -20.514   5.433  27.667  1.00  0.00     0.181 HD
HETATM   18  N12 UNL     1     -20.731   4.288  24.594  1.00  0.00    -0.282 N
HETATM   19  N13 UNL     1     -19.571   3.537  24.664  1.00  0.00    -0.230 N
ATOM     20  H12 UNL     1     -21.278   4.292  23.732  1.00  0.00     0.185 HD
HETATM   21  N14 UNL     1     -18.847   3.480  25.690  1.00  0.00    -0.118 N
ATOM     22  H13 UNL     1     -19.290   3.003  23.842  1.00  0.00     0.208 HD
ATOM     23  H14 UNL     1     -18.001   2.911  25.690  1.00  0.00     0.207 HD
BRANCH  16  24
HETATM   24  N9  UNL     1     -22.550   4.706  26.076  1.00  0.00    -0.072 NA
BRANCH  24  25
HETATM   25  N10 UNL     1     -23.377   5.526  25.268  1.00  0.00    -0.183 N
ATOM     26  H10 UNL     1     -23.539   6.504  25.508  1.00  0.00     0.210 HD
BRANCH  25  27
HETATM   27  N11 UNL     1     -23.968   4.958  24.132  1.00  0.00    -0.027 N
HETATM   28  O2  UNL     1     -23.727   3.758  23.844  1.00  0.00    -0.516 OA
HETATM   29  O3  UNL     1     -24.801   5.719  23.350  1.00  0.00    -0.516 OA
ENDBRANCH  25  27
ENDBRANCH  24  25
ENDBRANCH  16  24
ENDBRANCH  12  14
ENDBRANCH  11  12
ENDBRANCH   8  11
BRANCH   1  30
HETATM   30  C4  UNL     1     -15.521   9.012  26.988  1.00  0.00     0.079 A
HETATM   31  N3  UNL     1     -15.492   8.821  25.659  1.00  0.00    -0.347 N
HETATM   32  C3  UNL     1     -15.042   9.720  24.779  1.00  0.00     0.129 A
ATOM     33  H3  UNL     1     -15.837   7.932  25.298  1.00  0.00     0.166 HD
HETATM   34  C2  UNL     1     -15.023   9.503  23.415  1.00  0.00     0.288 A
HETATM   35  C12 UNL     1     -14.563  10.942  25.219  1.00  0.00     0.081 A
HETATM   36  N2  UNL     1     -14.570  10.404  22.528  1.00  0.00    -0.154 N
HETATM   37  O1  UNL     1     -15.456   8.391  22.972  1.00  0.00    -0.265 OA
HETATM   38  C1  UNL     1     -14.117  11.568  22.996  1.00  0.00     0.679 A
ATOM     39  H2  UNL     1     -14.572  10.205  21.527  1.00  0.00     0.187 HD
HETATM   40  N16 UNL     1     -14.113  11.832  24.318  1.00  0.00    -0.190 N
ATOM     41  H16 UNL     1     -13.759  12.732  24.643  1.00  0.00     0.184 HD
HETATM   42  C11 UNL     1     -14.573  11.180  26.579  1.00  0.00     0.035 A
HETATM   43  C10 UNL     1     -15.053  10.214  27.471  1.00  0.00     0.036 A
BRANCH  38  44
HETATM   44  N1  UNL     1     -13.669  12.472  22.181  1.00  0.00    -0.234 N
ATOM     45  H12 UNL     1     -13.840  12.357  21.182  1.00  0.00     0.174 HD
ATOM     46  H11 UNL     1     -13.159  13.280  22.538  1.00  0.00     0.174 HD
ENDBRANCH  38  44
ENDBRANCH   1  30
TORSDOF 8
ENDMDL