MODEL 5
REMARK VINA RESULT: -9.570242172      2.725      4.547
REMARK  8 active torsions:
REMARK  status: ('A' for Active; 'I' for Inactive)
REMARK    1  A    between atoms: C6_13  and  N4_14
REMARK    2  A    between atoms: N4_14  and  C7_16
REMARK    3  A    between atoms: C7_16  and  C8_17
REMARK    4  A    between atoms: C7_16  and  C13_37
REMARK    5  A    between atoms: C8_17  and  N5_18
REMARK    6  A    between atoms: C9_23  and  C10_24
REMARK    7  A    between atoms: C10_24  and  C11_25
REMARK    8  A    between atoms: C14_42  and  N13_43
ROOT
HETATM    1  N4  UNL     1     -16.027  10.332  26.295  1.00  0.00    -0.338 N
ATOM      2  H4  UNL     1     -16.936  10.768  26.138  1.00  0.00     0.167 HD
ENDROOT
BRANCH   1   3
HETATM    3  C6  UNL     1     -15.298  10.637  27.455  1.00  0.00     0.120 A
HETATM    4  C5  UNL     1     -15.746  10.386  28.802  1.00  0.00     0.075 A
HETATM    5  C2  UNL     1     -16.963   9.801  29.056  1.00  0.00     0.040 A
HETATM    6  C4  UNL     1     -14.898  10.748  29.863  1.00  0.00     0.135 A
HETATM    7  C1  UNL     1     -17.863   9.405  27.978  1.00  0.00     0.070 C
HETATM    8  N1  UNL     1     -17.298   9.596  30.373  1.00  0.00    -0.195 N
HETATM    9  C3  UNL     1     -16.511   9.931  31.397  1.00  0.00     0.677 A
ATOM     10  H1  UNL     1     -18.198   9.163  30.578  1.00  0.00     0.184 HD
HETATM   11  N2  UNL     1     -16.914   9.698  32.608  1.00  0.00    -0.234 N
HETATM   12  N3  UNL     1     -15.332  10.498  31.126  1.00  0.00    -0.176 N
ATOM     13  H22 UNL     1     -17.814   9.266  32.814  1.00  0.00     0.174 HD
ATOM     14  H21 UNL     1     -16.313   9.954  33.391  1.00  0.00     0.174 HD
ATOM     15  H3  UNL     1     -14.728  10.756  31.906  1.00  0.00     0.186 HD
HETATM   16  N14 UNL     1     -13.659  11.344  29.627  1.00  0.00    -0.332 N
HETATM   17  C14 UNL     1     -13.199  11.589  28.287  1.00  0.00     0.389 A
ATOM     18  H14 UNL     1     -13.071  11.611  30.416  1.00  0.00     0.165 HD
HETATM   19  N12 UNL     1     -14.114  11.194  27.304  1.00  0.00    -0.332 N
ATOM     20  H12 UNL     1     -13.824  11.360  26.340  1.00  0.00     0.165 HD
BRANCH  17  21
HETATM   21  N13 UNL     1     -12.882  13.025  28.240  1.00  0.00    -0.041 N
ATOM     22 3H13 UNL     1     -11.956  13.205  28.628  1.00  0.00     0.279 HD
ATOM     23 2H13 UNL     1     -12.724  13.330  27.281  1.00  0.00     0.279 HD
ATOM     24 1H13 UNL     1     -13.586  13.606  28.695  1.00  0.00     0.279 HD
ENDBRANCH  17  21
ENDBRANCH   1   3
BRANCH   1  25
HETATM   25  C7  UNL     1     -15.482   9.379  25.295  1.00  0.00     0.109 C
BRANCH  25  26
HETATM   26  C8  UNL     1     -14.872   8.214  25.955  1.00  0.00     0.235 C
BRANCH  26  27
HETATM   27  N5  UNL     1     -15.806   7.269  26.459  1.00  0.00    -0.212 N
HETATM   28  N6  UNL     1     -15.726   6.436  27.473  1.00  0.00    -0.224 N
HETATM   29  N7  UNL     1     -16.832   5.711  27.596  1.00  0.00    -0.272 N
ATOM     30  H6  UNL     1     -14.916   6.357  28.089  1.00  0.00     0.210 HD
HETATM   31  C9  UNL     1     -17.672   6.085  26.621  1.00  0.00     0.120 A
ATOM     32  H7  UNL     1     -17.009   4.998  28.304  1.00  0.00     0.190 HD
HETATM   33  N11 UNL     1     -17.025   7.039  25.937  1.00  0.00    -0.269 N
ATOM     34  H11 UNL     1     -17.406   7.527  25.126  1.00  0.00     0.190 HD
BRANCH  31  35
HETATM   35  C10 UNL     1     -19.023   5.523  26.389  1.00  0.00     0.157 C
BRANCH  35  36
HETATM   36  C11 UNL     1     -19.040   4.357  25.492  1.00  0.00     0.112 A
HETATM   37  N8  UNL     1     -18.535   3.140  25.730  1.00  0.00    -0.309 N
HETATM   38  C12 UNL     1     -18.765   2.345  24.643  1.00  0.00     0.242 A
ATOM     39  H8  UNL     1     -18.056   2.853  26.584  1.00  0.00     0.170 HD
HETATM   40  N9  UNL     1     -18.434   1.114  24.484  1.00  0.00    -0.364 N
HETATM   41  O1  UNL     1     -19.398   3.090  23.780  1.00  0.00    -0.200 OA
ATOM     42  H92 UNL     1     -17.939   0.531  25.160  1.00  0.00     0.159 HD
ATOM     43  H91 UNL     1     -18.607   0.520  23.673  1.00  0.00     0.159 HD
HETATM   44  N10 UNL     1     -19.575   4.307  24.267  1.00  0.00    -0.245 N
ATOM     45  H10 UNL     1     -20.041   5.078  23.789  1.00  0.00     0.196 HD
ENDBRANCH  35  36
ENDBRANCH  31  35
ENDBRANCH  26  27
ENDBRANCH  25  26
BRANCH  25  46
HETATM   46  C13 UNL     1     -14.815  10.023  24.203  1.00  0.00     0.224 C
HETATM   47  O2  UNL     1     -14.942   9.553  22.998  1.00  0.00    -0.643 OA
HETATM   48  O3  UNL     1     -14.008  11.138  24.240  1.00  0.00    -0.643 OA
ENDBRANCH  25  46
ENDBRANCH   1  25
TORSDOF 8
ENDMDL