MODEL 1
REMARK VINA RESULT: -9.129076540      0.000      0.000
REMARK  9 active torsions:
REMARK  status: ('A' for Active; 'I' for Inactive)
REMARK    1  A    between atoms: C2_4  and  O1_5
REMARK    2  A    between atoms: C3_7  and  O2_8
REMARK    3  A    between atoms: C4_10  and  N3_11
REMARK    4  A    between atoms: N3_11  and  N4_13
REMARK    5  A    between atoms: C7_21  and  N8_22
REMARK    6  A    between atoms: N8_22  and  N9_24
REMARK    7  A    between atoms: C8_27  and  C9_28
REMARK    8  A    between atoms: N11_30  and  N12_32
REMARK       I    between atoms: N12_32  and  C10_34
REMARK       I    between atoms: C10_34  and  N13_36
REMARK    9  A    between atoms: N13_36  and  N14_38
ROOT
HETATM    1  N1  UNL     1     -14.556  11.805  31.431  1.00  0.00    -0.171 NA
HETATM    2  C1  UNL     1     -14.806  10.799  30.885  1.00  0.00     0.191 C
HETATM    3  N2  UNL     1     -15.111   9.566  30.249  1.00  0.00    -0.220 N
HETATM    4  C2  UNL     1     -15.477   8.482  30.916  1.00  0.00     0.193 A
HETATM    5  C3  UNL     1     -15.695   7.475  29.945  1.00  0.00     0.149 A
HETATM    6  C4  UNL     1     -15.446   7.997  28.689  1.00  0.00     0.117 A
HETATM    7  C8  UNL     1     -15.076   9.330  28.904  1.00  0.00     0.125 A
ENDROOT
BRANCH   4   8
HETATM    8  O1  UNL     1     -15.650   8.251  32.272  1.00  0.00    -0.343 OA
ATOM      9  H1  UNL     1     -16.424   8.282  32.823  1.00  0.00     0.219 HD
ENDBRANCH   4   8
BRANCH   7  10
HETATM   10  C9  UNL     1     -14.735  10.331  27.910  1.00  0.00     0.161 C
HETATM   11  N10 UNL     1     -13.518  11.013  27.780  1.00  0.00    -0.079 NA
HETATM   12  N11 UNL     1     -15.648  10.643  27.018  1.00  0.00    -0.282 N
ATOM     13  H11 UNL     1     -16.556  10.182  27.051  1.00  0.00     0.188 HD
BRANCH  12  14
HETATM   14  N12 UNL     1     -15.400  11.593  26.029  1.00  0.00    -0.249 N
HETATM   15  C10 UNL     1     -14.965  11.152  24.753  1.00  0.00     0.358 C
HETATM   16  O5  UNL     1     -14.814   9.926  24.540  1.00  0.00    -0.244 OA
HETATM   17  N13 UNL     1     -14.694  12.068  23.701  1.00  0.00    -0.190 N
ATOM     18  H13 UNL     1     -14.811  13.070  23.852  1.00  0.00     0.198 HD
ATOM     19  H12 UNL     1     -15.529  12.586  26.219  1.00  0.00     0.192 HD
BRANCH  17  20
HETATM   20  N14 UNL     1     -14.271  11.599  22.471  1.00  0.00    -0.035 N
HETATM   21  O6  UNL     1     -13.119  11.819  22.061  1.00  0.00    -0.516 OA
HETATM   22  O7  UNL     1     -15.116  10.877  21.672  1.00  0.00    -0.516 OA
ENDBRANCH  17  20
ENDBRANCH  12  14
ENDBRANCH   7  10
BRANCH   5  23
HETATM   23  O2  UNL     1     -16.089   6.198  30.249  1.00  0.00    -0.355 OA
ATOM     24  H2  UNL     1     -16.097   5.485  29.622  1.00  0.00     0.218 HD
ENDBRANCH   5  23
BRANCH   6  25
HETATM   25  N3  UNL     1     -15.561   7.391  27.420  1.00  0.00    -0.278 N
ATOM     26  H3  UNL     1     -14.777   7.517  26.781  1.00  0.00     0.188 HD
BRANCH  25  27
HETATM   27  N4  UNL     1     -16.635   6.640  26.948  1.00  0.00    -0.103 N
HETATM   28  C5  UNL     1     -16.470   5.192  26.910  1.00  0.00     0.292 A
HETATM   29  N5  UNL     1     -17.653   4.520  26.479  1.00  0.00    -0.345 N
HETATM   30  C6  UNL     1     -18.760   5.039  26.124  1.00  0.00     0.204 A
ATOM     31  H5  UNL     1     -17.607   3.501  26.452  1.00  0.00     0.163 HD
HETATM   32  N6  UNL     1     -19.833   4.216  25.723  1.00  0.00    -0.063 NA
HETATM   33  N7  UNL     1     -18.883   6.461  26.154  1.00  0.00    -0.161 N
HETATM   34  C7  UNL     1     -17.882   7.174  26.538  1.00  0.00     0.722 A
ATOM     35  H7  UNL     1     -19.755   6.908  25.873  1.00  0.00     0.187 HD
BRANCH  34  36
HETATM   36  N8  UNL     1     -18.023   8.591  26.553  1.00  0.00    -0.070 N
ATOM     37  H8  UNL     1     -17.394   9.152  25.979  1.00  0.00     0.212 HD
BRANCH  36  38
HETATM   38  N9  UNL     1     -18.991   9.243  27.325  1.00  0.00    -0.024 N
HETATM   39  O3  UNL     1     -18.581  10.031  28.200  1.00  0.00    -0.516 OA
HETATM   40  O4  UNL     1     -20.339   9.071  27.181  1.00  0.00    -0.516 OA
ENDBRANCH  36  38
ENDBRANCH  34  36
ENDBRANCH  25  27
ENDBRANCH   6  25
TORSDOF 9
ENDMDL