MODEL 1
REMARK VINA RESULT: -7.942965207      0.000      0.000
REMARK  8 active torsions:
REMARK  status: ('A' for Active; 'I' for Inactive)
REMARK    1  A    between atoms: C7_10  and  N3_11
REMARK    2  A    between atoms: N3_11  and  C8_12
REMARK    3  A    between atoms: C9_13  and  C10_14
REMARK    4  A    between atoms: N4_15  and  C11_17
REMARK    5  A    between atoms: C11_17  and  C12_18
REMARK    6  A    between atoms: C12_18  and  C13_19
REMARK    7  A    between atoms: C16_22  and  N5_23
REMARK    8  A    between atoms: N5_23  and  S1_25
ROOT
HETATM    1  C1  UNL     1      44.254   9.632  -0.055  1.00  0.00     0.052 C
HETATM    2  C2  UNL     1      45.452   9.615  -0.932  1.00  0.00    -0.017 A
HETATM    3  C3  UNL     1      46.699   9.464  -0.407  1.00  0.00     0.051 A
HETATM    4  C4  UNL     1      47.844   9.440  -1.173  1.00  0.00     0.114 A
HETATM    5  C5  UNL     1      49.146   9.276  -0.600  1.00  0.00     0.117 C
HETATM    6  N1  UNL     1      50.192   9.126  -0.149  1.00  0.00    -0.190 NA
HETATM    7  N2  UNL     1      47.692   9.576  -2.518  1.00  0.00    -0.354 N
ATOM      8  H2  UNL     1      48.515   9.565  -3.120  1.00  0.00     0.166 HD
HETATM    9  C6  UNL     1      46.502   9.723  -3.051  1.00  0.00     0.134 A
HETATM   10  C7  UNL     1      45.291   9.755  -2.323  1.00  0.00     0.129 A
ENDROOT
BRANCH  10  11
HETATM   11  N3  UNL     1      44.102   9.902  -2.905  1.00  0.00    -0.402 NA
BRANCH  11  12
HETATM   12  C8  UNL     1      43.110  10.405  -3.352  1.00  0.00     0.136 A
HETATM   13  C9  UNL     1      43.087  11.686  -3.923  1.00  0.00     0.036 A
HETATM   14  C20 UNL     1      41.888  12.153  -4.399  1.00  0.00     0.106 A
HETATM   15  N6  UNL     1      40.728  11.459  -4.356  1.00  0.00    -0.351 N
HETATM   16  C21 UNL     1      40.748  10.233  -3.811  1.00  0.00     0.120 A
ATOM     17  H6  UNL     1      39.865  11.855  -4.726  1.00  0.00     0.166 HD
HETATM   18  N7  UNL     1      39.766   9.294  -3.619  1.00  0.00    -0.350 N
HETATM   19  C24 UNL     1      41.878   9.682  -3.313  1.00  0.00     0.073 A
HETATM   20  C22 UNL     1      40.285   8.209  -3.024  1.00  0.00     0.114 A
ATOM     21  H7  UNL     1      38.788   9.404  -3.889  1.00  0.00     0.166 HD
HETATM   22  C23 UNL     1      41.643   8.416  -2.808  1.00  0.00     0.066 A
HETATM   23 CL1  UNL     1      42.810   7.367  -2.081  1.00  0.00    -0.082 Cl
BRANCH  13  24
HETATM   24  C10 UNL     1      44.296  12.482  -4.001  1.00  0.00     0.103 C
HETATM   25  N4  UNL     1      44.746  13.350  -3.248  1.00  0.00    -0.378 N
ATOM     26  H4  UNL     1      45.628  13.683  -3.638  1.00  0.00     0.164 HD
BRANCH  25  27
HETATM   27  C11 UNL     1      44.503  14.045  -2.069  1.00  0.00     0.065 C
BRANCH  27  28
HETATM   28  C12 UNL     1      44.424  13.088  -0.907  1.00  0.00     0.083 C
BRANCH  28  29
HETATM   29  C13 UNL     1      44.725  13.657   0.389  1.00  0.00    -0.053 A
HETATM   30  C14 UNL     1      44.200  14.826   0.861  1.00  0.00     0.010 A
HETATM   31  C15 UNL     1      44.485  15.362   2.082  1.00  0.00     0.030 A
HETATM   32  C16 UNL     1      45.365  14.701   2.930  1.00  0.00     0.042 A
HETATM   33  C18 UNL     1      45.915  13.520   2.491  1.00  0.00     0.030 A
HETATM   34  C19 UNL     1      45.599  12.998   1.228  1.00  0.00     0.010 A
BRANCH  32  35
HETATM   35  N5  UNL     1      45.634  15.285   4.190  1.00  0.00    -0.285 N
ATOM     36  H5  UNL     1      45.167  14.937   5.028  1.00  0.00     0.178 HD
BRANCH  35  37
HETATM   37  S1  UNL     1      46.750  16.582   4.296  1.00  0.00     0.227 S
HETATM   38  C17 UNL     1      48.325  15.993   3.689  1.00  0.00     0.186 C
HETATM   39  O1  UNL     1      46.868  17.012   5.735  1.00  0.00    -0.206 OA
HETATM   40  O2  UNL     1      46.300  17.779   3.527  1.00  0.00    -0.206 OA
ENDBRANCH  35  37
ENDBRANCH  32  35
ENDBRANCH  28  29
ENDBRANCH  27  28
ENDBRANCH  25  27
ENDBRANCH  13  24
ENDBRANCH  11  12
ENDBRANCH  10  11
TORSDOF 8
ENDMDL