MODEL 5
REMARK VINA RESULT: -9.249018639      1.776      2.370
REMARK  9 active torsions:
REMARK  status: ('A' for Active; 'I' for Inactive)
REMARK    1  A    between atoms: C5_5  and  C6_6
REMARK    2  A    between atoms: C6_6  and  C7_7
REMARK    3  A    between atoms: C7_7  and  C8_8
REMARK    4  A    between atoms: C10_10  and  C11_11
REMARK    5  A    between atoms: C12_12  and  C14_14
REMARK    6  A    between atoms: C19_19  and  O1_20
REMARK    7  A    between atoms: C21_23  and  C22_24
REMARK    8  A    between atoms: C25_28  and  O3_29
REMARK    9  A    between atoms: C30_36  and  O5_37
ROOT
HETATM    1  C1  UNL     1      49.266  10.081  -1.439  1.00  0.00     0.019 C
HETATM    2  C2  UNL     1      48.282   9.281  -1.121  1.00  0.00    -0.061 C
HETATM    3  C3  UNL     1      47.844   8.164  -1.999  1.00  0.00     0.039 C
HETATM    4  C4  UNL     1      46.366   7.983  -1.692  1.00  0.00     0.014 C
HETATM    5  C5  UNL     1      46.209   8.439  -0.259  1.00  0.00     0.020 C
HETATM    6  C20 UNL     1      47.429   9.307   0.056  1.00  0.00    -0.048 C
HETATM    7  C21 UNL     1      47.944   9.234   1.403  1.00  0.00     0.022 C
ENDROOT
BRANCH   5   8
HETATM    8  C6  UNL     1      44.903   9.205  -0.053  1.00  0.00     0.014 C
BRANCH   8   9
HETATM    9  C7  UNL     1      44.772  10.341  -1.008  1.00  0.00     0.034 C
BRANCH   9  10
HETATM   10  C8  UNL     1      44.733  11.608  -0.246  1.00  0.00    -0.084 C
HETATM   11  C9  UNL     1      44.542  12.872  -0.996  1.00  0.00     0.043 C
HETATM   12  C10 UNL     1      44.859  11.671   1.065  1.00  0.00     0.003 C
BRANCH  12  13
HETATM   13  C11 UNL     1      44.814  12.944   1.780  1.00  0.00     0.003 C
HETATM   14  C12 UNL     1      45.843  13.425   2.444  1.00  0.00    -0.077 C
HETATM   15  C13 UNL     1      47.143  12.669   2.498  1.00  0.00     0.044 C
BRANCH  14  16
HETATM   16  C14 UNL     1      45.710  14.720   3.144  1.00  0.00     0.050 C
HETATM   17  C15 UNL     1      46.952  15.020   3.966  1.00  0.00     0.045 C
HETATM   18  C16 UNL     1      47.156  16.477   3.837  1.00  0.00    -0.084 C
HETATM   19  C17 UNL     1      48.100  17.253   4.692  1.00  0.00     0.043 C
HETATM   20  C18 UNL     1      46.403  16.987   2.879  1.00  0.00     0.007 C
HETATM   21  C19 UNL     1      45.579  15.897   2.232  1.00  0.00     0.149 C
BRANCH  21  22
HETATM   22  O1  UNL     1      44.270  16.329   2.188  1.00  0.00    -0.391 OA
ATOM     23  H1  UNL     1      43.889  16.325   3.058  1.00  0.00     0.210 HD
ENDBRANCH  21  22
ENDBRANCH  14  16
ENDBRANCH  12  13
ENDBRANCH   9  10
ENDBRANCH   8   9
ENDBRANCH   5   8
BRANCH   7  24
HETATM   24  C22 UNL     1      48.732   8.176   2.016  1.00  0.00     0.025 C
HETATM   25  C23 UNL     1      50.054   7.872   1.420  1.00  0.00     0.161 C
HETATM   26  O2  UNL     1      50.889   8.743   1.424  1.00  0.00    -0.292 OA
HETATM   27  C24 UNL     1      50.384   6.564   0.832  1.00  0.00     0.127 C
HETATM   28  C25 UNL     1      49.897   5.448   1.747  1.00  0.00     0.122 C
HETATM   29  C26 UNL     1      48.414   5.665   1.903  1.00  0.00     0.198 C
HETATM   30  C30 UNL     1      49.920   4.172   0.935  1.00  0.00     0.189 C
HETATM   31  O4  UNL     1      47.969   5.400   0.629  1.00  0.00    -0.367 OA
HETATM   32  C31 UNL     1      48.009   6.954   2.510  1.00  0.00     0.238 C
HETATM   33  C27 UNL     1      48.503   4.109   0.406  1.00  0.00     0.083 C
HETATM   34  C28 UNL     1      47.658   3.094   1.151  1.00  0.00     0.048 C
HETATM   35  C29 UNL     1      48.511   3.775  -1.062  1.00  0.00     0.048 C
HETATM   36  F1  UNL     1      48.326   6.808   3.884  1.00  0.00    -0.241 F
BRANCH  28  37
HETATM   37  O3  UNL     1      50.593   5.381   2.925  1.00  0.00    -0.384 OA
ATOM     38  H3  UNL     1      51.516   5.194   2.800  1.00  0.00     0.210 HD
ENDBRANCH  28  37
BRANCH  30  39
HETATM   39  O5  UNL     1      50.876   4.225  -0.051  1.00  0.00    -0.389 OA
ATOM     40  H5  UNL     1      51.677   3.794   0.222  1.00  0.00     0.210 HD
ENDBRANCH  30  39
ENDBRANCH   7  24
TORSDOF 9
ENDMDL