MODEL 3
REMARK VINA RESULT: -8.895609727      2.831      6.969
REMARK  9 active torsions:
REMARK  status: ('A' for Active; 'I' for Inactive)
REMARK    1  A    between atoms: C4_5  and  C5_6
REMARK    2  A    between atoms: C5_6  and  N1_7
REMARK    3  A    between atoms: N1_7  and  C6_9
REMARK    4  A    between atoms: C12_17  and  N3_18
REMARK    5  A    between atoms: N3_18  and  C13_20
REMARK    6  A    between atoms: C13_20  and  C14_21
REMARK    7  A    between atoms: C14_21  and  N4_22
REMARK    8  A    between atoms: N4_22  and  C15_23
REMARK    9  A    between atoms: C16_26  and  C17_27
ROOT
HETATM    1  N3  UNL     1      46.120  12.172   2.021  1.00  0.00    -0.383 N
ATOM      2  H3  UNL     1      45.259  12.172   1.475  1.00  0.00     0.160 HD
ENDROOT
BRANCH   1   3
HETATM    3  C12 UNL     1      46.426  13.237   2.645  1.00  0.00     0.042 A
HETATM    4  C11 UNL     1      47.353  13.256   3.660  1.00  0.00     0.047 A
HETATM    5  C10 UNL     1      47.633  14.452   4.290  1.00  0.00     0.090 A
HETATM    6  N2  UNL     1      47.020  15.604   3.936  1.00  0.00    -0.365 N
HETATM    7  C9  UNL     1      46.113  15.577   2.941  1.00  0.00     0.044 A
ATOM      8  H2  UNL     1      47.240  16.478   4.414  1.00  0.00     0.165 HD
HETATM    9  C8  UNL     1      45.466  16.747   2.555  1.00  0.00     0.033 A
HETATM   10  C28 UNL     1      45.793  14.415   2.276  1.00  0.00     0.019 A
HETATM   11  C7  UNL     1      44.534  16.739   1.539  1.00  0.00     0.031 A
HETATM   12  C6  UNL     1      44.209  15.567   0.864  1.00  0.00     0.029 A
HETATM   13  C29 UNL     1      44.848  14.411   1.247  1.00  0.00     0.045 A
BRANCH  12  14
HETATM   14  N1  UNL     1      43.249  15.569  -0.190  1.00  0.00    -0.386 N
ATOM     15  H1  UNL     1      42.290  15.836   0.033  1.00  0.00     0.160 HD
BRANCH  14  16
HETATM   16  C5  UNL     1      43.552  15.218  -1.539  1.00  0.00     0.158 C
BRANCH  16  17
HETATM   17  C4  UNL     1      43.607  16.337  -2.485  1.00  0.00    -0.040 A
HETATM   18  C3  UNL     1      42.650  16.446  -3.465  1.00  0.00     0.012 A
HETATM   19  C2  UNL     1      42.700  17.496  -4.367  1.00  0.00     0.043 A
HETATM   20  C1  UNL     1      43.712  18.431  -4.280  1.00  0.00     0.116 A
HETATM   21  F1  UNL     1      43.763  19.450  -5.154  1.00  0.00    -0.206 F
HETATM   22  C31 UNL     1      44.681  18.317  -3.286  1.00  0.00     0.043 A
HETATM   23  C30 UNL     1      44.612  17.265  -2.398  1.00  0.00     0.012 A
ENDBRANCH  16  17
ENDBRANCH  14  16
ENDBRANCH  12  14
ENDBRANCH   1   3
BRANCH   1  24
HETATM   24  C13 UNL     1      46.913  10.961   2.035  1.00  0.00     0.179 C
BRANCH  24  25
HETATM   25  C14 UNL     1      47.544  10.846   0.651  1.00  0.00     0.177 C
BRANCH  25  26
HETATM   26  N4  UNL     1      46.725  10.824  -0.405  1.00  0.00    -0.401 NA
BRANCH  26  27
HETATM   27  C15 UNL     1      45.994  11.049  -1.330  1.00  0.00     0.192 A
HETATM   28  N5  UNL     1      46.200  12.146  -2.145  1.00  0.00    -0.316 N
HETATM   29  C16 UNL     1      45.440  12.462  -3.183  1.00  0.00     0.118 A
ATOM     30  H5  UNL     1      46.991  12.753  -1.932  1.00  0.00     0.170 HD
HETATM   31  N7  UNL     1      44.390  11.624  -3.437  1.00  0.00    -0.341 N
HETATM   32  C22 UNL     1      44.127  10.542  -2.691  1.00  0.00     0.048 A
ATOM     33  H7  UNL     1      43.779  11.831  -4.227  1.00  0.00     0.167 HD
HETATM   34  C23 UNL     1      43.049   9.708  -2.975  1.00  0.00     0.030 A
HETATM   35  C27 UNL     1      44.914  10.213  -1.615  1.00  0.00     0.049 A
HETATM   36  C24 UNL     1      42.750   8.585  -2.226  1.00  0.00     0.002 A
HETATM   37  C25 UNL     1      43.551   8.271  -1.151  1.00  0.00     0.001 A
HETATM   38  C26 UNL     1      44.623   9.087  -0.857  1.00  0.00     0.018 A
BRANCH  29  39
HETATM   39  C17 UNL     1      45.644  13.615  -4.051  1.00  0.00     0.011 A
HETATM   40  C18 UNL     1      46.690  14.492  -3.860  1.00  0.00     0.032 A
HETATM   41  C19 UNL     1      46.885  15.590  -4.685  1.00  0.00     0.088 A
HETATM   42  N6  UNL     1      46.022  15.790  -5.694  1.00  0.00    -0.375 N
HETATM   43  C20 UNL     1      44.985  14.972  -5.930  1.00  0.00     0.088 A
ATOM     44  H6  UNL     1      46.161  16.595  -6.304  1.00  0.00     0.164 HD
HETATM   45  C21 UNL     1      44.789  13.858  -5.092  1.00  0.00     0.032 A
ENDBRANCH  29  39
ENDBRANCH  26  27
ENDBRANCH  25  26
ENDBRANCH  24  25
ENDBRANCH   1  24
TORSDOF 9
ENDMDL