MODEL 5
REMARK VINA RESULT: -7.193152822      2.836      3.792
REMARK  10 active torsions:
REMARK  status: ('A' for Active; 'I' for Inactive)
REMARK    1  A    between atoms: C10_10  and  O1_11
REMARK    2  A    between atoms: C13_15  and  C14_16
REMARK    3  A    between atoms: C18_21  and  O3_22
REMARK    4  A    between atoms: C19_24  and  C20_25
REMARK    5  A    between atoms: C20_25  and  C21_26
REMARK    6  A    between atoms: C21_26  and  C22_27
REMARK    7  A    between atoms: C23_28  and  C24_29
REMARK    8  A    between atoms: C28_34  and  C29_35
REMARK    9  A    between atoms: C29_35  and  O5_36
REMARK   10  A    between atoms: C29_35  and  C30_38
ROOT
HETATM    1  C1  UNL     1      49.928   8.803  -4.358  1.00  0.00     0.015 C
HETATM    2  C2  UNL     1      50.066   9.033  -2.844  1.00  0.00    -0.042 C
HETATM    3  C3  UNL     1      50.996   8.047  -2.281  1.00  0.00     0.015 C
HETATM    4  C4  UNL     1      50.752  10.402  -2.727  1.00  0.00     0.009 C
HETATM    5  C5  UNL     1      49.782  11.518  -2.536  1.00  0.00     0.002 C
HETATM    6  C6  UNL     1      49.145  11.362  -1.195  1.00  0.00     0.010 C
HETATM    7  C7  UNL     1      48.580   9.953  -1.022  1.00  0.00    -0.036 C
HETATM    8  C8  UNL     1      49.399   9.322   0.119  1.00  0.00     0.016 C
HETATM    9  C9  UNL     1      47.190  10.035  -0.474  1.00  0.00     0.052 C
HETATM   10  C10 UNL     1      46.081  10.294  -1.394  1.00  0.00     0.088 C
HETATM   11  C11 UNL     1      45.738   9.201  -2.316  1.00  0.00    -0.048 C
HETATM   12  C12 UNL     1      46.482   8.179  -2.674  1.00  0.00    -0.009 C
HETATM   13  C13 UNL     1      47.891   7.903  -2.198  1.00  0.00     0.075 C
HETATM   14  C15 UNL     1      48.697   9.143  -2.295  1.00  0.00     0.016 C
HETATM   15  C16 UNL     1      44.405   9.189  -2.960  1.00  0.00     0.039 C
HETATM   16  C17 UNL     1      43.404   8.886  -1.871  1.00  0.00     0.036 C
HETATM   17  C18 UNL     1      43.977   9.257  -0.513  1.00  0.00     0.126 C
HETATM   18  C19 UNL     1      44.807  10.542  -0.578  1.00  0.00     0.057 C
ENDROOT
BRANCH  18  19
HETATM   19  C20 UNL     1      45.089  10.941   0.817  1.00  0.00     0.049 C
BRANCH  19  20
HETATM   20  C21 UNL     1      45.174  12.418   0.942  1.00  0.00    -0.059 C
HETATM   21  C28 UNL     1      44.258  13.186   0.335  1.00  0.00     0.012 C
BRANCH  20  22
HETATM   22  C22 UNL     1      46.189  13.059   1.722  1.00  0.00     0.005 C
HETATM   23  C23 UNL     1      46.127  13.462   2.963  1.00  0.00     0.008 C
BRANCH  23  24
HETATM   24  C24 UNL     1      47.319  14.117   3.612  1.00  0.00     0.179 A
HETATM   25  O4  UNL     1      47.027  14.800   4.787  1.00  0.00    -0.366 OA
HETATM   26  C25 UNL     1      47.420  15.568   3.685  1.00  0.00     0.084 A
HETATM   27  C26 UNL     1      46.420  16.461   3.014  1.00  0.00     0.049 C
HETATM   28  C27 UNL     1      48.798  16.180   3.835  1.00  0.00     0.049 C
ENDBRANCH  23  24
ENDBRANCH  20  22
BRANCH  21  29
HETATM   29  C29 UNL     1      44.307  14.653   0.434  1.00  0.00     0.155 C
BRANCH  29  30
HETATM   30  O5  UNL     1      43.525  15.164   1.469  1.00  0.00    -0.391 OA
ATOM     31  H5  UNL     1      43.373  16.099   1.400  1.00  0.00     0.210 HD
ENDBRANCH  29  30
BRANCH  29  32
HETATM   32  C30 UNL     1      43.868  15.229  -0.909  1.00  0.00     0.150 C
HETATM   33 CL1  UNL     1      43.849  13.904  -2.077  1.00  0.00    -0.128 Cl
ENDBRANCH  29  32
ENDBRANCH  21  29
ENDBRANCH  19  20
ENDBRANCH  18  19
BRANCH  10  34
HETATM   34  O1  UNL     1      46.246  11.442  -2.181  1.00  0.00    -0.385 OA
ATOM     35  H1  UNL     1      45.885  12.231  -1.796  1.00  0.00     0.211 HD
ENDBRANCH  10  34
BRANCH  17  36
HETATM   36  O3  UNL     1      44.631   8.221   0.096  1.00  0.00    -0.395 OA
ATOM     37  H3  UNL     1      44.042   7.590   0.493  1.00  0.00     0.210 HD
ENDBRANCH  17  36
BRANCH  13  38
HETATM   38  C14 UNL     1      48.345   6.729  -2.929  1.00  0.00     0.240 C
HETATM   39  O2  UNL     1      48.467   5.666  -2.359  1.00  0.00    -0.306 OA
ENDBRANCH  13  38
TORSDOF 10
ENDMDL