MODEL 3
REMARK VINA RESULT: -7.167753112      7.133     10.694
REMARK  10 active torsions:
REMARK  status: ('A' for Active; 'I' for Inactive)
REMARK    1  A    between atoms: C2_2  and  C3_3
REMARK    2  A    between atoms: C9_9  and  O1_10
REMARK    3  A    between atoms: C10_12  and  O2_13
REMARK    4  A    between atoms: C19_23  and  O3_24
REMARK    5  A    between atoms: C20_26  and  C21_27
REMARK    6  A    between atoms: C21_27  and  C23_29
REMARK    7  A    between atoms: C23_29  and  C24_30
REMARK    8  A    between atoms: C24_30  and  C25_31
REMARK    9  A    between atoms: C25_31  and  C26_33
REMARK   10  A    between atoms: C26_33  and  C27_34
ROOT
HETATM    1  C3  UNL     1      44.819  11.363  -2.474  1.00  0.00     0.246 C
HETATM    2  C4  UNL     1      43.419  11.849  -2.769  1.00  0.00     0.040 C
HETATM    3  C5  UNL     1      42.721  11.065  -3.821  1.00  0.00     0.008 C
HETATM    4  C6  UNL     1      42.519   9.627  -3.467  1.00  0.00    -0.003 C
HETATM    5  C7  UNL     1      41.611   8.982  -4.480  1.00  0.00     0.003 C
HETATM    6  C8  UNL     1      40.749   7.885  -3.914  1.00  0.00     0.040 C
HETATM    7  C9  UNL     1      41.093   6.672  -4.757  1.00  0.00     0.148 C
HETATM    8  C10 UNL     1      41.342   7.323  -6.114  1.00  0.00     0.155 C
HETATM    9  C11 UNL     1      42.266   8.477  -5.702  1.00  0.00    -0.011 C
HETATM   10  C12 UNL     1      42.277   9.478  -6.842  1.00  0.00     0.018 C
HETATM   11  C13 UNL     1      43.631   7.916  -5.553  1.00  0.00     0.012 C
HETATM   12  C14 UNL     1      44.480   8.799  -4.603  1.00  0.00     0.008 C
HETATM   13  C15 UNL     1      43.779   8.828  -3.308  1.00  0.00     0.029 C
HETATM   14  C16 UNL     1      44.507   9.013  -2.039  1.00  0.00     0.164 C
HETATM   15  C17 UNL     1      43.708   8.304  -0.956  1.00  0.00     0.049 C
HETATM   16  C18 UNL     1      45.866   8.420  -2.078  1.00  0.00     0.075 C
HETATM   17  C19 UNL     1      46.624   9.003  -0.859  1.00  0.00     0.154 C
HETATM   18  C20 UNL     1      45.814  10.229  -0.571  1.00  0.00     0.257 C
HETATM   19  N1  UNL     1      44.748  10.323  -1.535  1.00  0.00     0.114 N
ENDROOT
BRANCH  18  20
HETATM   20  C21 UNL     1      45.454  10.275   0.854  1.00  0.00     0.018 C
HETATM   21  C22 UNL     1      44.329  11.269   1.160  1.00  0.00     0.012 C
BRANCH  20  22
HETATM   22  C23 UNL     1      46.659  10.655   1.705  1.00  0.00     0.014 C
BRANCH  22  23
HETATM   23  C24 UNL     1      47.246  11.987   1.397  1.00  0.00     0.079 C
BRANCH  23  24
HETATM   24  C25 UNL     1      47.101  12.874   2.576  1.00  0.00     0.132 C
HETATM   25  O4  UNL     1      47.608  12.552   3.626  1.00  0.00    -0.298 OA
BRANCH  24  26
HETATM   26  C26 UNL     1      46.348  14.138   2.487  1.00  0.00     0.129 C
BRANCH  26  27
HETATM   27  C27 UNL     1      46.704  15.085   3.571  1.00  0.00     0.014 C
HETATM   28 CL1  UNL     1      45.797  15.085   5.068  1.00  0.00    -0.089 Cl
HETATM   29  C28 UNL     1      47.695  15.919   3.404  1.00  0.00    -0.011 C
HETATM   30  C29 UNL     1      48.106  16.901   4.459  1.00  0.00     0.037 C
ENDBRANCH  26  27
ENDBRANCH  24  26
ENDBRANCH  23  24
ENDBRANCH  22  23
ENDBRANCH  20  22
ENDBRANCH  18  20
BRANCH  17  31
HETATM   31  O3  UNL     1      46.592   8.010   0.082  1.00  0.00    -0.393 OA
ATOM     32  H3  UNL     1      47.212   7.360  -0.228  1.00  0.00     0.210 HD
ENDBRANCH  17  31
BRANCH   1  33
HETATM   33  C2  UNL     1      45.584  12.559  -2.049  1.00  0.00    -0.002 C
HETATM   34  C1  UNL     1      45.006  13.695  -1.666  1.00  0.00     0.009 C
ENDBRANCH   1  33
BRANCH   7  35
HETATM   35  O1  UNL     1      39.995   5.841  -4.792  1.00  0.00    -0.393 OA
ATOM     36  H1  UNL     1      40.080   5.202  -4.094  1.00  0.00     0.210 HD
ENDBRANCH   7  35
BRANCH   8  37
HETATM   37  O2  UNL     1      40.165   7.790  -6.645  1.00  0.00    -0.392 OA
ATOM     38  H2  UNL     1      39.903   8.594  -6.212  1.00  0.00     0.210 HD
ENDBRANCH   8  37
TORSDOF 10
ENDMDL