MODEL 2
REMARK VINA RESULT: -8.016984022      1.172      1.298
REMARK  9 active torsions:
REMARK  status: ('A' for Active; 'I' for Inactive)
REMARK    1  A    between atoms: C4_4  and  C5_5
REMARK    2  A    between atoms: C8_8  and  C9_9
REMARK    3  A    between atoms: C9_9  and  C10_10
REMARK    4  A    between atoms: C10_10  and  C13_13
REMARK    5  A    between atoms: C13_13  and  O1_14
REMARK    6  A    between atoms: C17_19  and  O2_20
REMARK    7  A    between atoms: C21_28  and  N3_29
REMARK    8  A    between atoms: C22_32  and  C23_33
REMARK    9  A    between atoms: C23_33  and  C24_34
ROOT
HETATM    1  C1  UNL     1      45.721  11.139   2.693  1.00  0.00     0.018 C
HETATM    2  C2  UNL     1      45.721  11.460   1.523  1.00  0.00    -0.074 C
HETATM    3  C3  UNL     1      45.758  11.740   0.127  1.00  0.00     0.058 A
HETATM    4  C4  UNL     1      46.414  10.813  -0.701  1.00  0.00     0.030 A
HETATM    5  C17 UNL     1      46.519  10.940  -2.058  1.00  0.00     0.097 A
HETATM    6  C19 UNL     1      45.935  12.055  -2.610  1.00  0.00     0.139 A
HETATM    7  N1  UNL     1      45.290  12.978  -1.840  1.00  0.00    -0.270 N
HETATM    8  C20 UNL     1      44.757  14.036  -2.463  1.00  0.00     0.332 A
HETATM    9  O3  UNL     1      44.889  14.097  -3.730  1.00  0.00    -0.246 OA
HETATM   10  N2  UNL     1      44.119  14.983  -1.794  1.00  0.00    -0.294 N
ATOM     11  H2  UNL     1      43.716  15.786  -2.277  1.00  0.00     0.172 HD
HETATM   12  C21 UNL     1      44.018  14.860  -0.481  1.00  0.00     0.111 A
HETATM   13  C22 UNL     1      44.544  13.784   0.279  1.00  0.00     0.019 A
HETATM   14  C30 UNL     1      45.195  12.830  -0.463  1.00  0.00     0.073 A
ENDROOT
BRANCH   4  15
HETATM   15  C5  UNL     1      47.014   9.657  -0.096  1.00  0.00    -0.016 A
HETATM   16  C6  UNL     1      48.354   9.778   0.299  1.00  0.00     0.013 A
HETATM   17  C7  UNL     1      48.997   8.711   0.887  1.00  0.00     0.008 A
HETATM   18  C8  UNL     1      48.341   7.505   1.101  1.00  0.00    -0.057 A
HETATM   19  C14 UNL     1      47.035   7.436   0.700  1.00  0.00     0.014 A
HETATM   20  C15 UNL     1      46.354   8.469   0.111  1.00  0.00    -0.050 A
HETATM   21  C16 UNL     1      44.927   8.343  -0.310  1.00  0.00     0.049 C
BRANCH  18  22
HETATM   22  C9  UNL     1      49.105   6.425   1.734  1.00  0.00     0.049 C
BRANCH  22  23
HETATM   23  C10 UNL     1      49.148   6.546   3.235  1.00  0.00    -0.022 C
HETATM   24  C11 UNL     1      50.021   7.699   3.628  1.00  0.00     0.017 C
HETATM   25  C12 UNL     1      47.741   6.858   3.709  1.00  0.00     0.017 C
BRANCH  23  26
HETATM   26  C13 UNL     1      49.568   5.242   3.856  1.00  0.00     0.173 C
BRANCH  26  27
HETATM   27  O1  UNL     1      49.456   5.385   5.242  1.00  0.00    -0.400 OA
ATOM     28  H1  UNL     1      49.216   4.536   5.595  1.00  0.00     0.209 HD
ENDBRANCH  26  27
ENDBRANCH  23  26
ENDBRANCH  22  23
ENDBRANCH  18  22
ENDBRANCH   4  15
BRANCH   5  29
HETATM   29  O2  UNL     1      47.172  10.006  -2.844  1.00  0.00    -0.354 OA
HETATM   30  C18 UNL     1      46.474   9.129  -3.716  1.00  0.00     0.210 C
ENDBRANCH   5  29
BRANCH  13  31
HETATM   31  C23 UNL     1      44.394  13.782   1.710  1.00  0.00     0.083 C
BRANCH  31  32
HETATM   32  C24 UNL     1      45.289  14.705   2.453  1.00  0.00    -0.054 A
HETATM   33  C25 UNL     1      44.829  15.838   3.049  1.00  0.00     0.009 A
HETATM   34  C26 UNL     1      45.655  16.679   3.762  1.00  0.00     0.024 A
HETATM   35  C27 UNL     1      47.019  16.398   3.902  1.00  0.00     0.034 A
HETATM   36 CL1  UNL     1      48.086  17.457   4.805  1.00  0.00    -0.084 Cl
HETATM   37  C28 UNL     1      47.501  15.257   3.304  1.00  0.00     0.024 A
HETATM   38  C29 UNL     1      46.628  14.425   2.587  1.00  0.00     0.009 A
ENDBRANCH  31  32
ENDBRANCH  13  31
BRANCH  12  39
HETATM   39  N3  UNL     1      43.388  15.758   0.236  1.00  0.00    -0.385 N
ATOM     40  H32 UNL     1      43.740  16.707   0.111  1.00  0.00     0.157 HD
ATOM     41  H31 UNL     1      42.625  15.493   0.859  1.00  0.00     0.157 HD
ENDBRANCH  12  39
TORSDOF 9
ENDMDL