MODEL 3
REMARK VINA RESULT: -8.870589962      2.253      8.133
REMARK  9 active torsions:
REMARK  status: ('A' for Active; 'I' for Inactive)
REMARK    1  A    between atoms: C5_5  and  C6_6
REMARK    2  A    between atoms: C6_6  and  C7_7
REMARK    3  A    between atoms: C7_7  and  N1_8
REMARK    4  A    between atoms: N1_8  and  C8_10
REMARK    5  A    between atoms: C10_12  and  C11_13
REMARK    6  A    between atoms: C11_13  and  O1_16
REMARK    7  A    between atoms: N3_20  and  C14_21
REMARK    8  A    between atoms: C16_23  and  C17_24
REMARK    9  A    between atoms: C17_24  and  N4_25
ROOT
HETATM    1  C8  UNL     1      42.572  15.169  -3.171  1.00  0.00     0.125 A
HETATM    2  C9  UNL     1      42.424  16.442  -3.671  1.00  0.00     0.079 A
HETATM    3  C10 UNL     1      43.579  17.154  -3.435  1.00  0.00     0.063 A
HETATM    4  N2  UNL     1      44.388  16.289  -2.801  1.00  0.00    -0.293 N
ATOM      5  H2  UNL     1      45.332  16.510  -2.484  1.00  0.00     0.187 HD
HETATM    6  N3  UNL     1      43.807  15.118  -2.641  1.00  0.00    -0.238 N
ENDROOT
BRANCH   6   7
HETATM    7  C14 UNL     1      44.378  13.979  -2.020  1.00  0.00     0.080 A
HETATM    8  C15 UNL     1      44.245  13.766  -0.662  1.00  0.00     0.042 A
HETATM    9  C16 UNL     1      44.801  12.657  -0.040  1.00  0.00    -0.037 A
HETATM   10  C25 UNL     1      45.494  11.781  -0.844  1.00  0.00     0.011 A
HETATM   11  C26 UNL     1      45.632  11.995  -2.215  1.00  0.00     0.027 A
HETATM   12  C27 UNL     1      45.074  13.099  -2.817  1.00  0.00     0.062 A
HETATM   13 CL1  UNL     1      45.247  13.369  -4.559  1.00  0.00    -0.082 Cl
BRANCH   9  14
HETATM   14  C17 UNL     1      44.637  12.433   1.415  1.00  0.00     0.172 C
BRANCH  14  15
HETATM   15  N4  UNL     1      45.769  12.902   2.143  1.00  0.00    -0.293 N
HETATM   16  C18 UNL     1      46.764  12.090   2.595  1.00  0.00     0.328 A
HETATM   17  O2  UNL     1      46.826  10.857   2.430  1.00  0.00    -0.246 OA
HETATM   18  N5  UNL     1      47.669  12.820   3.247  1.00  0.00    -0.306 N
HETATM   19  C19 UNL     1      47.249  14.097   3.206  1.00  0.00     0.063 A
ATOM     20  H5  UNL     1      48.520  12.474   3.692  1.00  0.00     0.171 HD
HETATM   21  C20 UNL     1      47.788  15.260   3.710  1.00  0.00     0.032 A
HETATM   22  C24 UNL     1      46.037  14.159   2.502  1.00  0.00     0.066 A
HETATM   23  C21 UNL     1      47.156  16.458   3.528  1.00  0.00     0.002 A
HETATM   24  C22 UNL     1      45.959  16.530   2.836  1.00  0.00     0.002 A
HETATM   25  C23 UNL     1      45.403  15.374   2.323  1.00  0.00     0.032 A
ENDBRANCH  14  15
ENDBRANCH   9  14
ENDBRANCH   6   7
BRANCH   1  26
HETATM   26  N1  UNL     1      41.692  14.199  -3.208  1.00  0.00    -0.374 N
ATOM     27  H1  UNL     1      41.052  14.044  -2.429  1.00  0.00     0.161 HD
BRANCH  26  28
HETATM   28  C7  UNL     1      41.650  13.359  -4.370  1.00  0.00     0.126 C
BRANCH  28  29
HETATM   29  C6  UNL     1      40.516  12.358  -4.299  1.00  0.00     0.058 C
BRANCH  29  30
HETATM   30  C5  UNL     1      40.964  11.037  -3.808  1.00  0.00    -0.057 A
HETATM   31  C4  UNL     1      40.139   9.975  -3.532  1.00  0.00     0.007 A
HETATM   32  C3  UNL     1      40.619   8.761  -3.070  1.00  0.00     0.007 A
HETATM   33  C2  UNL     1      41.966   8.570  -2.864  1.00  0.00    -0.062 A
HETATM   34  C1  UNL     1      42.474   7.263  -2.363  1.00  0.00     0.048 C
HETATM   35  C29 UNL     1      42.803   9.628  -3.136  1.00  0.00     0.007 A
HETATM   36  C28 UNL     1      42.330  10.834  -3.596  1.00  0.00     0.007 A
ENDBRANCH  29  30
ENDBRANCH  28  29
ENDBRANCH  26  28
ENDBRANCH   1  26
BRANCH   3  37
HETATM   37  C11 UNL     1      43.901  18.561  -3.797  1.00  0.00     0.094 C
HETATM   38  C12 UNL     1      45.044  18.606  -4.780  1.00  0.00     0.052 C
HETATM   39  C13 UNL     1      42.673  19.194  -4.405  1.00  0.00     0.052 C
BRANCH  37  40
HETATM   40  O1  UNL     1      44.244  19.277  -2.668  1.00  0.00    -0.384 OA
ATOM     41  H1  UNL     1      44.489  20.164  -2.904  1.00  0.00     0.211 HD
ENDBRANCH  37  40
ENDBRANCH   3  37
TORSDOF 9
ENDMDL