MODEL 1
REMARK VINA RESULT: -9.836661878      0.000      0.000
REMARK  9 active torsions:
REMARK  status: ('A' for Active; 'I' for Inactive)
REMARK    1  A    between atoms: O1_2  and  C2_3
REMARK    2  A    between atoms: C2_3  and  N1_4
REMARK    3  A    between atoms: C2_3  and  O2_44
REMARK    4  A    between atoms: N1_4  and  C3_6
REMARK    5  A    between atoms: C5_10  and  C6_11
REMARK    6  A    between atoms: C9_14  and  C10_15
REMARK    7  A    between atoms: C12_21  and  C13_22
REMARK    8  A    between atoms: N6_29  and  C18_31
REMARK    9  A    between atoms: C18_31  and  C19_32
ROOT
HETATM    1  C10 UNL     1      48.964   9.784  -0.406  1.00  0.00     0.071 A
HETATM    2  N3  UNL     1      50.068  10.050  -1.302  1.00  0.00    -0.350 N
ATOM      3  H3  UNL     1      50.872   9.451  -1.486  1.00  0.00     0.166 HD
HETATM    4  C11 UNL     1      49.812  11.241  -1.834  1.00  0.00     0.181 A
HETATM    5  N4  UNL     1      48.672  11.719  -1.332  1.00  0.00    -0.350 N
ATOM      6  H4  UNL     1      48.262  12.622  -1.572  1.00  0.00     0.166 HD
HETATM    7  C12 UNL     1      48.141  10.833  -0.460  1.00  0.00     0.075 A
ENDROOT
BRANCH   1   8
HETATM    8  C9  UNL     1      49.037   8.491   0.253  1.00  0.00    -0.007 A
HETATM    9  C8  UNL     1      48.224   8.285   1.357  1.00  0.00     0.014 A
HETATM   10  C7  UNL     1      48.552   7.303   2.320  1.00  0.00     0.013 A
HETATM   11  C6  UNL     1      49.692   6.554   2.134  1.00  0.00    -0.023 A
HETATM   12  C26 UNL     1      50.493   6.729   1.029  1.00  0.00     0.013 A
HETATM   13  C25 UNL     1      50.158   7.721   0.074  1.00  0.00     0.014 A
BRANCH  11  14
HETATM   14  C5  UNL     1      50.353   6.021   3.381  1.00  0.00     0.006 A
HETATM   15  C4  UNL     1      51.667   6.106   3.685  1.00  0.00     0.119 A
HETATM   16  N2  UNL     1      52.189   5.376   4.751  1.00  0.00    -0.201 N
HETATM   17  C3  UNL     1      51.436   4.592   5.481  1.00  0.00     0.681 A
ATOM     18  H2  UNL     1      53.182   5.455   4.968  1.00  0.00     0.183 HD
HETATM   19  N7  UNL     1      50.076   4.476   5.202  1.00  0.00    -0.201 N
HETATM   20  C27 UNL     1      49.575   5.195   4.163  1.00  0.00     0.119 A
ATOM     21  H7  UNL     1      49.475   3.870   5.760  1.00  0.00     0.183 HD
BRANCH  17  22
HETATM   22  N1  UNL     1      51.790   3.947   6.500  1.00  0.00    -0.176 N
ATOM     23  H1  UNL     1      52.061   4.362   7.391  1.00  0.00     0.182 HD
BRANCH  22  24
HETATM   24  C2  UNL     1      51.749   2.307   6.176  1.00  0.00     0.384 C
BRANCH  24  25
HETATM   25  O1  UNL     1      50.676   2.114   7.434  1.00  0.00    -0.349 OA
HETATM   26  C1  UNL     1      49.752   1.211   6.894  1.00  0.00     0.206 C
ENDBRANCH  24  25
BRANCH  24  27
HETATM   27  O2  UNL     1      52.783   2.150   6.931  1.00  0.00    -0.349 OA
HETATM   28  C28 UNL     1      53.731   1.153   6.607  1.00  0.00     0.206 C
ENDBRANCH  24  27
ENDBRANCH  22  24
ENDBRANCH  17  22
ENDBRANCH  11  14
ENDBRANCH   1   8
BRANCH   7  29
HETATM   29  C13 UNL     1      46.830  10.956   0.147  1.00  0.00     0.037 A
HETATM   30  C14 UNL     1      45.775  10.364  -0.606  1.00  0.00     0.019 A
HETATM   31  C15 UNL     1      44.484  10.379  -0.159  1.00  0.00     0.018 A
HETATM   32  C16 UNL     1      44.233  10.972   1.050  1.00  0.00     0.089 A
HETATM   33  N5  UNL     1      45.275  11.524   1.740  1.00  0.00    -0.352 N
HETATM   34  C17 UNL     1      46.540  11.551   1.348  1.00  0.00     0.113 A
ATOM     35  H5  UNL     1      45.060  11.956   2.639  1.00  0.00     0.166 HD
HETATM   36  N6  UNL     1      47.485  12.162   1.997  1.00  0.00    -0.371 N
ATOM     37  H6  UNL     1      48.410  12.167   1.569  1.00  0.00     0.161 HD
BRANCH  36  38
HETATM   38  C18 UNL     1      47.350  12.826   3.249  1.00  0.00     0.160 C
BRANCH  38  39
HETATM   39  C19 UNL     1      47.108  14.311   3.085  1.00  0.00    -0.039 A
HETATM   40  C20 UNL     1      47.944  15.279   3.567  1.00  0.00     0.009 A
HETATM   41  C21 UNL     1      47.603  16.583   3.525  1.00  0.00     0.002 A
HETATM   42  C22 UNL     1      46.380  16.942   2.982  1.00  0.00     0.024 A
HETATM   43  C23 UNL     1      45.517  15.954   2.478  1.00  0.00     0.034 A
HETATM   44 CL1  UNL     1      44.003  16.440   1.787  1.00  0.00    -0.084 Cl
HETATM   45  C24 UNL     1      45.891  14.638   2.536  1.00  0.00     0.032 A
ENDBRANCH  38  39
ENDBRANCH  36  38
ENDBRANCH   7  29
TORSDOF 9
ENDMDL