MODEL 1
REMARK VINA RESULT: -8.632610458      0.000      0.000
REMARK  9 active torsions:
REMARK  status: ('A' for Active; 'I' for Inactive)
REMARK    1  A    between atoms: C4_4  and  C5_5
REMARK    2  A    between atoms: C5_5  and  N1_6
REMARK    3  A    between atoms: N1_6  and  C6_8
REMARK    4  A    between atoms: C7_11  and  C8_12
REMARK    5  A    between atoms: C8_12  and  C9_13
REMARK    6  A    between atoms: C8_12  and  C15_19
REMARK    7  A    between atoms: C16_20  and  O1_21
REMARK    8  A    between atoms: N5_35  and  C24_36
REMARK    9  A    between atoms: C24_36  and  C25_37
ROOT
HETATM    1  C6  UNL     1      46.873  10.885   1.682  1.00  0.00     0.681 A
HETATM    2  N2  UNL     1      47.923  10.161   1.330  1.00  0.00    -0.190 N
ATOM      3  H2  UNL     1      48.794  10.321   1.835  1.00  0.00     0.184 HD
HETATM    4  C7  UNL     1      47.931   9.212   0.335  1.00  0.00     0.074 A
HETATM    5  C18 UNL     1      46.707   9.071  -0.288  1.00  0.00     0.019 A
HETATM    6  C19 UNL     1      46.595   8.142  -1.301  1.00  0.00     0.016 A
HETATM    7  C20 UNL     1      45.386   7.966  -1.951  1.00  0.00     0.001 A
HETATM    8  C21 UNL     1      44.314   8.726  -1.569  1.00  0.00     0.002 A
HETATM    9  C22 UNL     1      44.380   9.663  -0.562  1.00  0.00     0.031 A
HETATM   10  C23 UNL     1      45.585   9.839   0.084  1.00  0.00     0.064 A
HETATM   11  N5  UNL     1      45.662  10.748   1.067  1.00  0.00    -0.178 N
ENDROOT
BRANCH   4  12
HETATM   12  C8  UNL     1      49.163   8.471   0.019  1.00  0.00     0.022 C
BRANCH  12  13
HETATM   13  C9  UNL     1      50.160   9.118  -0.807  1.00  0.00    -0.022 A
HETATM   14  C10 UNL     1      51.454   8.736  -0.849  1.00  0.00     0.012 A
HETATM   15  C11 UNL     1      52.365   9.401  -1.645  1.00  0.00     0.001 A
HETATM   16  C12 UNL     1      51.996  10.471  -2.422  1.00  0.00     0.000 A
HETATM   17  C13 UNL     1      50.678  10.862  -2.378  1.00  0.00     0.001 A
HETATM   18  C14 UNL     1      49.781  10.193  -1.582  1.00  0.00     0.012 A
ENDBRANCH  12  13
BRANCH  12  19
HETATM   19  C15 UNL     1      49.602   7.493   1.032  1.00  0.00     0.099 A
HETATM   20  C16 UNL     1      50.413   7.544   2.124  1.00  0.00     0.172 A
HETATM   21  N3  UNL     1      50.451   6.321   2.674  1.00  0.00    -0.276 N
HETATM   22  N4  UNL     1      49.696   5.492   1.976  1.00  0.00    -0.264 N
ATOM     23  H3  UNL     1      50.983   6.069   3.507  1.00  0.00     0.189 HD
HETATM   24  C17 UNL     1      49.159   6.165   0.965  1.00  0.00     0.275 A
ATOM     25  H4  UNL     1      49.550   4.503   2.179  1.00  0.00     0.190 HD
HETATM   26  O2  UNL     1      48.388   5.662   0.111  1.00  0.00    -0.266 OA
BRANCH  20  27
HETATM   27  O1  UNL     1      51.070   8.662   2.577  1.00  0.00    -0.344 OA
ATOM     28  H1  UNL     1      51.474   8.755   3.432  1.00  0.00     0.219 HD
ENDBRANCH  20  27
ENDBRANCH  12  19
ENDBRANCH   4  12
BRANCH   1  29
HETATM   29  N1  UNL     1      46.910  11.741   2.664  1.00  0.00    -0.225 N
ATOM     30  H1  UNL     1      46.474  11.461   3.543  1.00  0.00     0.177 HD
BRANCH  29  31
HETATM   31  C5  UNL     1      47.509  13.034   2.616  1.00  0.00     0.143 C
BRANCH  31  32
HETATM   32  C4  UNL     1      47.495  13.569   4.053  1.00  0.00     0.008 A
HETATM   33  C2  UNL     1      47.372  15.074   4.202  1.00  0.00    -0.013 A
HETATM   34  C1  UNL     1      47.233  15.913   2.975  1.00  0.00     0.010 C
HETATM   35  C3  UNL     1      46.218  14.161   4.534  1.00  0.00     0.011 A
ENDBRANCH  31  32
ENDBRANCH  29  31
ENDBRANCH   1  29
BRANCH  11  36
HETATM   36  C24 UNL     1      44.579  11.593   1.464  1.00  0.00     0.186 C
BRANCH  36  37
HETATM   37  C25 UNL     1      44.420  12.848   0.689  1.00  0.00    -0.039 A
HETATM   38  C26 UNL     1      44.456  12.974  -0.660  1.00  0.00     0.012 A
HETATM   39  C27 UNL     1      44.341  14.222  -1.278  1.00  0.00     0.043 A
HETATM   40  C28 UNL     1      44.188  15.323  -0.477  1.00  0.00     0.116 A
HETATM   41  F1  UNL     1      44.071  16.556  -1.024  1.00  0.00    -0.206 F
HETATM   42  C29 UNL     1      44.147  15.222   0.901  1.00  0.00     0.043 A
HETATM   43  C30 UNL     1      44.261  14.000   1.473  1.00  0.00     0.012 A
ENDBRANCH  36  37
ENDBRANCH  11  36
TORSDOF 9
ENDMDL