MODEL 5
REMARK VINA RESULT: -10.155111399      5.296      8.779
REMARK  7 active torsions:
REMARK  status: ('A' for Active; 'I' for Inactive)
REMARK    1  A    between atoms: C1_2  and  C2_3
REMARK       I    between atoms: C1_2  and  N2_10
REMARK    2  A    between atoms: C2_3  and  C3_4
REMARK    3  A    between atoms: N2_10  and  C7_12
REMARK    4  A    between atoms: C10_15  and  C11_16
REMARK    5  A    between atoms: C11_16  and  N3_17
REMARK    6  A    between atoms: N7_30  and  C17_31
REMARK    7  A    between atoms: C17_31  and  C18_32
ROOT
HETATM    1  N3  UNL     1      50.533   8.775  -0.788  1.00  0.00    -0.349 N
ATOM      2  H3  UNL     1      51.293   8.161  -0.493  1.00  0.00     0.166 HD
HETATM    3  C12 UNL     1      49.687   8.938   0.103  1.00  0.00     0.137 A
HETATM    4  N4  UNL     1      49.892   8.299   1.293  1.00  0.00    -0.337 N
ATOM      5  H4  UNL     1      50.717   7.714   1.420  1.00  0.00     0.168 HD
HETATM    6  C13 UNL     1      49.010   8.438   2.298  1.00  0.00     0.183 A
HETATM    7  N5  UNL     1      47.910   9.191   2.187  1.00  0.00    -0.336 N
ATOM      8  H5  UNL     1      47.265   9.271   2.974  1.00  0.00     0.168 HD
HETATM    9  C14 UNL     1      47.655   9.839   1.052  1.00  0.00     0.140 A
HETATM   10  C15 UNL     1      48.561   9.706  -0.002  1.00  0.00     0.122 A
HETATM   11  N6  UNL     1      48.055  10.449  -0.982  1.00  0.00    -0.346 N
ATOM     12  H6  UNL     1      48.487  10.562  -1.899  1.00  0.00     0.167 HD
HETATM   13  C16 UNL     1      46.921  11.021  -0.616  1.00  0.00     0.185 A
HETATM   14  N7  UNL     1      46.649  10.660   0.641  1.00  0.00    -0.323 N
ENDROOT
BRANCH   1  15
HETATM   15  C11 UNL     1      50.699   9.232  -2.108  1.00  0.00     0.101 C
BRANCH  15  16
HETATM   16  C10 UNL     1      51.822  10.241  -2.121  1.00  0.00    -0.021 A
HETATM   17  C9  UNL     1      53.132   9.873  -1.926  1.00  0.00     0.015 A
HETATM   18  C8  UNL     1      54.139  10.810  -1.941  1.00  0.00     0.030 A
HETATM   19  C7  UNL     1      53.892  12.181  -2.154  1.00  0.00     0.034 A
HETATM   20  C29 UNL     1      52.583  12.529  -2.345  1.00  0.00     0.030 A
HETATM   21  C28 UNL     1      51.551  11.570  -2.331  1.00  0.00     0.015 A
BRANCH  19  22
HETATM   22  N2  UNL     1      54.981  13.080  -2.139  1.00  0.00    -0.327 N
HETATM   23  C1  UNL     1      55.477  13.755  -1.010  1.00  0.00     0.227 C
HETATM   24  O1  UNL     1      55.029  13.667   0.148  1.00  0.00    -0.273 OA
ATOM     25  H2  UNL     1      55.450  13.256  -3.027  1.00  0.00     0.169 HD
BRANCH  23  26
HETATM   26  C2  UNL     1      56.665  14.679  -1.206  1.00  0.00     0.159 C
BRANCH  26  27
HETATM   27  C3  UNL     1      56.191  16.068  -1.011  1.00  0.00     0.017 A
HETATM   28  C4  UNL     1      56.950  17.133  -0.516  1.00  0.00     0.027 A
HETATM   29  C5  UNL     1      56.124  18.228  -0.501  1.00  0.00     0.019 A
HETATM   30  C6  UNL     1      54.881  17.865  -0.972  1.00  0.00     0.088 A
HETATM   31  N1  UNL     1      54.960  16.557  -1.269  1.00  0.00    -0.369 N
ATOM     32  H1  UNL     1      54.187  16.005  -1.642  1.00  0.00     0.165 HD
ENDBRANCH  26  27
ENDBRANCH  23  26
ENDBRANCH  19  22
ENDBRANCH  15  16
ENDBRANCH   1  15
BRANCH  14  33
HETATM   33  C17 UNL     1      45.511  11.053   1.438  1.00  0.00     0.170 C
BRANCH  33  34
HETATM   34  C18 UNL     1      45.552  12.514   1.770  1.00  0.00    -0.039 A
HETATM   35  C19 UNL     1      44.587  13.395   1.329  1.00  0.00     0.010 A
HETATM   36  C20 UNL     1      44.639  14.737   1.642  1.00  0.00     0.013 A
HETATM   37  C21 UNL     1      45.659  15.256   2.409  1.00  0.00    -0.026 A
HETATM   38  C22 UNL     1      45.716  16.606   2.726  1.00  0.00     0.015 A
HETATM   39  C26 UNL     1      46.630  14.387   2.856  1.00  0.00    -0.022 A
HETATM   40  C23 UNL     1      46.735  17.119   3.491  1.00  0.00     0.043 A
HETATM   41  C24 UNL     1      47.711  16.254   3.942  1.00  0.00     0.117 A
HETATM   42  F1  UNL     1      48.709  16.783   4.697  1.00  0.00    -0.206 F
HETATM   43  C25 UNL     1      47.649  14.910   3.624  1.00  0.00     0.054 A
HETATM   44  C27 UNL     1      46.574  13.040   2.540  1.00  0.00     0.021 A
ENDBRANCH  33  34
ENDBRANCH  14  33
TORSDOF 7
ENDMDL