MODEL 2
REMARK VINA RESULT: -8.370380576      1.008      1.846
REMARK  10 active torsions:
REMARK  status: ('A' for Active; 'I' for Inactive)
REMARK    1  A    between atoms: C2_2  and  C3_4
REMARK    2  A    between atoms: C12_14  and  O2_15
REMARK    3  A    between atoms: O2_15  and  C13_16
REMARK    4  A    between atoms: C13_16  and  C14_17
REMARK    5  A    between atoms: C14_17  and  O3_18
REMARK    6  A    between atoms: O3_18  and  C15_19
REMARK    7  A    between atoms: C16_20  and  C17_21
REMARK    8  A    between atoms: C16_20  and  C18_24
REMARK    9  A    between atoms: C17_21  and  O4_22
REMARK   10  A    between atoms: C18_24  and  O5_25
ROOT
HETATM    1  C3  UNL     1      46.964  16.393   3.174  1.00  0.00     0.063 C
HETATM    2  C4  UNL     1      45.726  17.129   2.707  1.00  0.00     0.013 C
HETATM    3  C5  UNL     1      44.952  16.020   2.029  1.00  0.00     0.007 C
HETATM    4  C6  UNL     1      45.370  14.727   2.735  1.00  0.00     0.002 C
HETATM    5  C7  UNL     1      45.802  13.707   1.736  1.00  0.00     0.029 C
HETATM    6  C8  UNL     1      44.555  13.049   1.202  1.00  0.00     0.175 C
HETATM    7  F1  UNL     1      43.920  14.023   0.415  1.00  0.00    -0.249 F
HETATM    8  C9  UNL     1      44.791  11.868   0.339  1.00  0.00     0.050 C
HETATM    9  C10 UNL     1      46.187  11.351   0.319  1.00  0.00    -0.008 C
HETATM   10  C11 UNL     1      47.105  12.167  -0.559  1.00  0.00     0.019 C
HETATM   11  C12 UNL     1      46.351   9.924  -0.064  1.00  0.00     0.130 C
HETATM   12  C26 UNL     1      47.709   9.583   0.540  1.00  0.00     0.033 C
HETATM   13  C27 UNL     1      48.014  10.634   1.576  1.00  0.00     0.013 C
HETATM   14  C28 UNL     1      46.696  11.357   1.749  1.00  0.00    -0.030 C
HETATM   15  C29 UNL     1      45.857  10.555   2.675  1.00  0.00     0.016 C
HETATM   16  C30 UNL     1      46.839  12.754   2.207  1.00  0.00     0.002 C
HETATM   17  C31 UNL     1      46.811  12.737   3.742  1.00  0.00     0.007 C
HETATM   18  C32 UNL     1      47.364  14.108   4.134  1.00  0.00     0.011 C
HETATM   19  C33 UNL     1      46.362  15.127   3.744  1.00  0.00    -0.030 C
HETATM   20  C34 UNL     1      45.614  15.553   5.016  1.00  0.00     0.016 C
ENDROOT
BRANCH  11  21
HETATM   21  O2  UNL     1      46.423   9.810  -1.433  1.00  0.00    -0.383 OA
BRANCH  21  22
HETATM   22  C13 UNL     1      46.519   8.544  -1.935  1.00  0.00     0.194 C
BRANCH  22  23
HETATM   23  C14 UNL     1      46.079   8.376  -3.366  1.00  0.00     0.194 C
BRANCH  23  24
HETATM   24  O3  UNL     1      44.720   8.068  -3.334  1.00  0.00    -0.382 OA
BRANCH  24  25
HETATM   25  C15 UNL     1      43.930   9.079  -3.897  1.00  0.00     0.142 C
HETATM   26  C16 UNL     1      42.889   9.556  -2.950  1.00  0.00     0.029 C
HETATM   27  C19 UNL     1      41.484   9.165  -3.299  1.00  0.00     0.017 C
HETATM   28  C20 UNL     1      41.096   9.419  -4.713  1.00  0.00     0.006 C
HETATM   29  C21 UNL     1      42.177   9.218  -5.707  1.00  0.00    -0.008 C
HETATM   30  C22 UNL     1      41.618   8.349  -6.841  1.00  0.00     0.011 C
HETATM   31  C23 UNL     1      43.400   8.549  -5.202  1.00  0.00    -0.017 C
HETATM   32  C24 UNL     1      43.264   7.039  -5.087  1.00  0.00     0.018 C
HETATM   33  C25 UNL     1      44.505   8.782  -6.243  1.00  0.00     0.018 C
BRANCH  26  34
HETATM   34  C17 UNL     1      43.015  11.056  -2.711  1.00  0.00     0.178 C
BRANCH  34  35
HETATM   35  O4  UNL     1      44.253  11.552  -3.030  1.00  0.00    -0.400 OA
ATOM     36  H4  UNL     1      44.952  11.188  -2.500  1.00  0.00     0.209 HD
ENDBRANCH  34  35
ENDBRANCH  26  34
BRANCH  26  37
HETATM   37  C18 UNL     1      43.177   8.914  -1.584  1.00  0.00     0.178 C
BRANCH  37  38
HETATM   38  O5  UNL     1      42.454   7.702  -1.481  1.00  0.00    -0.400 OA
ATOM     39  H5  UNL     1      43.065   6.984  -1.364  1.00  0.00     0.209 HD
ENDBRANCH  37  38
ENDBRANCH  26  37
ENDBRANCH  24  25
ENDBRANCH  23  24
ENDBRANCH  22  23
ENDBRANCH  21  22
ENDBRANCH  11  21
BRANCH   1  40
HETATM   40  C2  UNL     1      47.635  17.218   4.199  1.00  0.00     0.128 C
HETATM   41  C1  UNL     1      48.962  16.842   4.789  1.00  0.00     0.091 C
HETATM   42  O1  UNL     1      47.133  18.260   4.623  1.00  0.00    -0.298 OA
ENDBRANCH   1  40
TORSDOF 10
ENDMDL