MODEL 3
REMARK VINA RESULT: -7.480085030      1.676      2.275
REMARK  11 active torsions:
REMARK  status: ('A' for Active; 'I' for Inactive)
REMARK    1  A    between atoms: C2_2  and  C3_3
REMARK    2  A    between atoms: C3_3  and  C4_4
REMARK    3  A    between atoms: C3_3  and  N3_20
REMARK    4  A    between atoms: C6_6  and  C7_7
REMARK    5  A    between atoms: C13_14  and  N1_15
REMARK    6  A    between atoms: N1_15  and  N2_17
REMARK    7  A    between atoms: N3_20  and  C15_21
REMARK       I    between atoms: N3_20  and  C25_32
REMARK    8  A    between atoms: C15_21  and  C16_22
REMARK    9  A    between atoms: C25_32  and  C26_34
REMARK   10  A    between atoms: C26_34  and  C27_35
REMARK   11  A    between atoms: C27_35  and  C28_36
ROOT
HETATM    1  N3  UNL     1      45.551  11.591   0.588  1.00  0.00    -0.339 N
HETATM    2  C25 UNL     1      46.408  10.748   1.330  1.00  0.00     0.221 C
HETATM    3  O2  UNL     1      46.522  10.736   2.574  1.00  0.00    -0.273 OA
ENDROOT
BRANCH   1   4
HETATM    4  C3  UNL     1      45.590  11.508  -0.849  1.00  0.00     0.122 C
BRANCH   4   5
HETATM    5  C2  UNL     1      44.120  11.075  -1.210  1.00  0.00     0.026 C
HETATM    6  C1  UNL     1      44.017   9.642  -1.548  1.00  0.00     0.007 C
ENDBRANCH   4   5
BRANCH   4   7
HETATM    7  C4  UNL     1      45.882  12.673  -1.641  1.00  0.00    -0.005 A
HETATM    8  C5  UNL     1      44.935  13.684  -1.745  1.00  0.00     0.019 A
HETATM    9  C6  UNL     1      45.170  14.850  -2.448  1.00  0.00    -0.048 A
HETATM   10  C11 UNL     1      46.390  14.978  -3.054  1.00  0.00     0.034 A
HETATM   11  C12 UNL     1      47.344  14.000  -2.972  1.00  0.00     0.063 A
HETATM   12 CL1  UNL     1      48.913  14.154  -3.743  1.00  0.00    -0.082 Cl
HETATM   13  C13 UNL     1      47.107  12.834  -2.267  1.00  0.00     0.080 A
BRANCH   9  14
HETATM   14  C7  UNL     1      44.161  15.949  -2.566  1.00  0.00    -0.024 C
HETATM   15  C8  UNL     1      44.655  17.208  -1.863  1.00  0.00     0.019 C
HETATM   16  C9  UNL     1      42.877  15.513  -1.938  1.00  0.00     0.019 C
HETATM   17  C10 UNL     1      43.961  16.318  -4.032  1.00  0.00     0.019 C
ENDBRANCH   9  14
BRANCH  13  18
HETATM   18  N1  UNL     1      48.091  11.821  -2.212  1.00  0.00    -0.301 N
HETATM   19  C14 UNL     1      48.031  10.717  -3.132  1.00  0.00     0.177 C
BRANCH  18  20
HETATM   20  N2  UNL     1      49.108  11.920  -1.296  1.00  0.00    -0.343 N
ATOM     21  H22 UNL     1      49.829  12.635  -1.389  1.00  0.00     0.177 HD
ATOM     22  H21 UNL     1      49.129  11.281  -0.501  1.00  0.00     0.177 HD
ENDBRANCH  18  20
ENDBRANCH  13  18
ENDBRANCH   4   7
ENDBRANCH   1   4
BRANCH   1  23
HETATM   23  C15 UNL     1      44.619  12.408   1.278  1.00  0.00     0.165 C
BRANCH  23  24
HETATM   24  C16 UNL     1      45.030  13.720   1.776  1.00  0.00    -0.039 A
HETATM   25  C17 UNL     1      44.479  14.917   1.406  1.00  0.00     0.011 A
HETATM   26  C18 UNL     1      44.903  16.152   1.920  1.00  0.00     0.039 A
HETATM   27  C19 UNL     1      45.919  16.184   2.837  1.00  0.00     0.086 A
HETATM   28  O1  UNL     1      46.486  17.187   3.450  1.00  0.00    -0.315 OA
HETATM   29  C23 UNL     1      46.509  15.003   3.243  1.00  0.00     0.001 A
HETATM   30  C20 UNL     1      47.443  16.724   4.262  1.00  0.00     0.050 A
HETATM   31  C21 UNL     1      48.264  17.633   5.095  1.00  0.00     0.077 C
HETATM   32  C22 UNL     1      47.480  15.357   4.152  1.00  0.00     0.046 A
HETATM   33  C24 UNL     1      46.065  13.819   2.720  1.00  0.00     0.023 A
ENDBRANCH  23  24
ENDBRANCH   1  23
BRANCH   2  34
HETATM   34  C26 UNL     1      47.280   9.753   0.628  1.00  0.00     0.108 C
BRANCH  34  35
HETATM   35  C27 UNL     1      46.669   8.370   0.649  1.00  0.00     0.052 C
BRANCH  35  36
HETATM   36  C28 UNL     1      47.782   7.412   0.936  1.00  0.00    -0.011 A
HETATM   37  C29 UNL     1      48.414   6.757  -0.129  1.00  0.00     0.030 A
HETATM   38  C30 UNL     1      48.140   6.866  -1.584  1.00  0.00     0.070 C
HETATM   39  N4  UNL     1      49.345   5.987   0.449  1.00  0.00    -0.305 N
HETATM   40  N5  UNL     1      49.332   6.115   1.760  1.00  0.00    -0.305 N
ATOM     41  H4  UNL     1      49.984   5.378  -0.062  1.00  0.00     0.186 HD
HETATM   42  C31 UNL     1      48.364   7.001   2.085  1.00  0.00     0.030 A
ATOM     43  H5  UNL     1      49.945   5.631   2.415  1.00  0.00     0.186 HD
HETATM   44  C32 UNL     1      47.973   7.471   3.431  1.00  0.00     0.070 C
ENDBRANCH  35  36
ENDBRANCH  34  35
ENDBRANCH   2  34
TORSDOF 11
ENDMDL