MODEL 3
REMARK VINA RESULT: -7.860436433      2.110      3.529
REMARK  10 active torsions:
REMARK  status: ('A' for Active; 'I' for Inactive)
REMARK    1  A    between atoms: C2_2  and  O1_5
REMARK    2  A    between atoms: O1_5  and  C5_6
REMARK    3  A    between atoms: C5_6  and  C6_7
REMARK    4  A    between atoms: C6_7  and  N1_8
REMARK    5  A    between atoms: N1_8  and  C7_10
REMARK    6  A    between atoms: C7_10  and  C8_11
REMARK    7  A    between atoms: C8_11  and  C9_13
REMARK    8  A    between atoms: C10_14  and  C11_15
REMARK    9  A    between atoms: C24_30  and  C26_32
REMARK   10  A    between atoms: C26_32  and  C27_33
ROOT
HETATM    1  C9  UNL     1      46.807  10.237   0.498  1.00  0.00     0.080 C
HETATM    2  C10 UNL     1      47.584  10.833  -0.643  1.00  0.00     0.060 C
HETATM    3  C12 UNL     1      48.008   9.635  -1.496  1.00  0.00     0.017 C
HETATM    4  C13 UNL     1      47.504   8.469  -0.712  1.00  0.00    -0.004 C
HETATM    5  C14 UNL     1      48.249   7.221  -0.870  1.00  0.00     0.006 C
HETATM    6  C15 UNL     1      49.676   7.470  -0.505  1.00  0.00     0.010 C
HETATM    7  C16 UNL     1      49.882   8.070   0.846  1.00  0.00    -0.035 C
HETATM    8  C17 UNL     1      51.111   8.990   0.671  1.00  0.00     0.016 C
HETATM    9  C18 UNL     1      50.436   6.948   1.725  1.00  0.00     0.005 C
HETATM   10  C19 UNL     1      51.645   7.331   2.508  1.00  0.00     0.076 C
HETATM   11  C20 UNL     1      51.877   6.476   3.715  1.00  0.00     0.098 C
HETATM   12  F1  UNL     1      52.924   6.784   4.559  1.00  0.00    -0.211 F
HETATM   13  C21 UNL     1      51.135   5.433   4.029  1.00  0.00    -0.032 C
HETATM   14  C22 UNL     1      49.991   5.050   3.159  1.00  0.00     0.023 C
HETATM   15  C23 UNL     1      49.327   4.507   4.395  1.00  0.00     0.024 C
HETATM   16  C24 UNL     1      50.742   4.257   4.879  1.00  0.00    -0.007 C
HETATM   17  C25 UNL     1      51.345   2.997   4.293  1.00  0.00     0.021 C
HETATM   18  C28 UNL     1      49.374   6.218   2.496  1.00  0.00    -0.001 C
HETATM   19  C29 UNL     1      48.609   7.143   3.359  1.00  0.00     0.006 C
HETATM   20  C30 UNL     1      48.643   8.565   2.954  1.00  0.00     0.006 C
HETATM   21  C31 UNL     1      48.738   8.828   1.446  1.00  0.00     0.003 C
HETATM   22  C32 UNL     1      47.451   8.884   0.760  1.00  0.00    -0.025 C
HETATM   23  C33 UNL     1      46.375   7.968   1.354  1.00  0.00     0.016 C
ENDROOT
BRANCH   1  24
HETATM   24  C8  UNL     1      46.462  11.094   1.590  1.00  0.00     0.170 C
HETATM   25  O2  UNL     1      47.258  11.507   2.459  1.00  0.00    -0.291 OA
BRANCH  24  26
HETATM   26  C7  UNL     1      45.088  11.605   1.829  1.00  0.00     0.138 C
BRANCH  26  27
HETATM   27  N1  UNL     1      44.629  12.521   0.864  1.00  0.00    -0.373 N
ATOM     28  H1  UNL     1      44.070  12.175   0.083  1.00  0.00     0.164 HD
BRANCH  27  29
HETATM   29  C6  UNL     1      44.914  13.894   0.939  1.00  0.00     0.086 C
BRANCH  29  30
HETATM   30  C5  UNL     1      44.775  14.582   2.244  1.00  0.00     0.213 C
BRANCH  30  31
HETATM   31  O1  UNL     1      45.711  15.510   2.579  1.00  0.00    -0.376 OA
BRANCH  31  32
HETATM   32  C2  UNL     1      46.159  15.650   3.839  1.00  0.00     0.050 C
HETATM   33  C1  UNL     1      46.702  14.371   4.454  1.00  0.00     0.045 C
HETATM   34  C3  UNL     1      45.310  16.382   4.823  1.00  0.00     0.045 C
HETATM   35  C4  UNL     1      47.448  16.535   3.704  1.00  0.00     0.045 C
ENDBRANCH  31  32
ENDBRANCH  30  31
ENDBRANCH  29  30
ENDBRANCH  27  29
ENDBRANCH  26  27
ENDBRANCH  24  26
ENDBRANCH   1  24
BRANCH   2  36
HETATM   36  C11 UNL     1      48.632  11.771  -0.378  1.00  0.00     0.236 C
HETATM   37  O3  UNL     1      49.680  11.681  -1.022  1.00  0.00    -0.306 OA
ENDBRANCH   2  36
BRANCH  16  38
HETATM   38  C26 UNL     1      51.009   4.480   6.329  1.00  0.00     0.127 C
BRANCH  38  39
HETATM   39  C27 UNL     1      52.270   3.848   6.786  1.00  0.00     0.173 C
HETATM   40  O4  UNL     1      53.359   4.474   6.599  1.00  0.00    -0.648 OA
HETATM   41  O5  UNL     1      52.323   2.618   7.404  1.00  0.00    -0.648 OA
ENDBRANCH  38  39
ENDBRANCH  16  38
TORSDOF 10
ENDMDL