MODEL 2
REMARK VINA RESULT: -6.385175468      1.510      1.882
REMARK  11 active torsions:
REMARK  status: ('A' for Active; 'I' for Inactive)
REMARK    1  A    between atoms: C2_2  and  O2_4
REMARK    2  A    between atoms: O2_4  and  C3_5
REMARK    3  A    between atoms: C12_14  and  C13_15
REMARK    4  A    between atoms: C13_15  and  O3_18
REMARK    5  A    between atoms: C18_22  and  C19_23
REMARK    6  A    between atoms: C19_23  and  C21_25
REMARK    7  A    between atoms: C21_25  and  N1_26
REMARK    8  A    between atoms: N1_26  and  C22_27
REMARK    9  A    between atoms: N1_26  and  C24_30
REMARK   10  A    between atoms: C22_27  and  C23_28
REMARK   11  A    between atoms: C24_30  and  C25_31
ROOT
HETATM    1  C3  UNL     1      46.070   8.033  -5.217  1.00  0.00     0.154 C
HETATM    2  C4  UNL     1      45.573   7.745  -3.829  1.00  0.00     0.002 C
HETATM    3  C5  UNL     1      45.231   8.730  -3.016  1.00  0.00    -0.018 C
HETATM    4  C6  UNL     1      45.363  10.113  -3.545  1.00  0.00    -0.018 C
HETATM    5  C7  UNL     1      44.360  10.373  -4.677  1.00  0.00     0.020 C
HETATM    6  C8  UNL     1      46.773  10.172  -4.083  1.00  0.00     0.004 C
HETATM    7  C9  UNL     1      47.200  11.526  -4.501  1.00  0.00     0.033 C
HETATM    8  C10 UNL     1      47.324  12.592  -3.517  1.00  0.00    -0.023 C
HETATM    9  C11 UNL     1      47.353  12.361  -2.067  1.00  0.00    -0.071 C
HETATM   10  C12 UNL     1      48.602  12.254  -1.294  1.00  0.00     0.048 C
HETATM   11  C16 UNL     1      48.614  11.092  -0.310  1.00  0.00     0.012 C
HETATM   12  C17 UNL     1      47.618  11.146   0.794  1.00  0.00     0.007 C
HETATM   13  C18 UNL     1      46.564  12.161   0.703  1.00  0.00     0.003 C
HETATM   14  C26 UNL     1      45.563  11.951  -0.353  1.00  0.00    -0.032 C
HETATM   15  C27 UNL     1      44.891  13.288  -0.649  1.00  0.00     0.016 C
HETATM   16  C28 UNL     1      44.559  10.863  -0.179  1.00  0.00     0.011 C
HETATM   17  C29 UNL     1      43.978  10.824  -1.596  1.00  0.00     0.007 C
HETATM   18  C30 UNL     1      45.132  11.187  -2.507  1.00  0.00     0.007 C
HETATM   19  C31 UNL     1      46.300  11.417  -1.601  1.00  0.00     0.028 C
HETATM   20  C32 UNL     1      46.935   9.257  -5.248  1.00  0.00     0.042 C
ENDROOT
BRANCH  13  21
HETATM   21  C19 UNL     1      46.008  12.600   2.064  1.00  0.00     0.025 C
HETATM   22  C20 UNL     1      46.322  11.672   3.151  1.00  0.00     0.016 C
BRANCH  21  23
HETATM   23  C21 UNL     1      46.394  14.021   2.295  1.00  0.00     0.068 C
BRANCH  23  24
HETATM   24  N1  UNL     1      45.755  14.791   3.254  1.00  0.00    -0.364 N
BRANCH  24  25
HETATM   25  C22 UNL     1      46.185  15.012   4.547  1.00  0.00     0.078 C
BRANCH  25  26
HETATM   26  C23 UNL     1      46.885  16.333   4.797  1.00  0.00     0.159 C
HETATM   27 CL1  UNL     1      48.412  16.441   3.902  1.00  0.00    -0.125 Cl
ENDBRANCH  25  26
ENDBRANCH  24  25
BRANCH  24  28
HETATM   28  C24 UNL     1      44.414  15.214   2.938  1.00  0.00     0.226 C
BRANCH  28  29
HETATM   29  C25 UNL     1      44.302  16.378   2.068  1.00  0.00     0.249 C
HETATM   30  N2  UNL     1      44.691  17.649   2.548  1.00  0.00    -0.061 NA
HETATM   31  O4  UNL     1      43.870  16.311   0.893  1.00  0.00    -0.275 OA
ENDBRANCH  28  29
ENDBRANCH  24  28
ENDBRANCH  23  24
ENDBRANCH  21  23
ENDBRANCH  13  21
BRANCH  10  32
HETATM   32  C13 UNL     1      49.948  12.259  -1.923  1.00  0.00     0.058 C
HETATM   33  C14 UNL     1      50.265  13.334  -2.911  1.00  0.00     0.046 C
HETATM   34  C15 UNL     1      50.226  10.965  -2.669  1.00  0.00     0.046 C
BRANCH  32  35
HETATM   35  O3  UNL     1      50.983  12.227  -0.953  1.00  0.00    -0.390 OA
ATOM     36  H3  UNL     1      51.550  11.473  -1.068  1.00  0.00     0.210 HD
ENDBRANCH  32  35
ENDBRANCH  10  32
BRANCH   1  37
HETATM   37  O2  UNL     1      46.779   6.928  -5.758  1.00  0.00    -0.312 OA
BRANCH  37  38
HETATM   38  C2  UNL     1      47.362   5.949  -4.970  1.00  0.00     0.255 C
HETATM   39  C1  UNL     1      48.543   6.139  -4.122  1.00  0.00     0.126 C
HETATM   40  O1  UNL     1      46.818   4.811  -4.996  1.00  0.00    -0.266 OA
ENDBRANCH  37  38
ENDBRANCH   1  37
TORSDOF 11
ENDMDL