MODEL 4
REMARK VINA RESULT: -6.924141772      6.456     10.248
REMARK  11 active torsions:
REMARK  status: ('A' for Active; 'I' for Inactive)
REMARK    1  A    between atoms: C3_3  and  C4_4
REMARK    2  A    between atoms: C4_4  and  C5_6
REMARK    3  A    between atoms: C8_10  and  C10_12
REMARK    4  A    between atoms: C10_12  and  O2_13
REMARK    5  A    between atoms: C20_24  and  C21_25
REMARK    6  A    between atoms: C21_25  and  C23_27
REMARK    7  A    between atoms: C24_28  and  C25_29
REMARK       I    between atoms: C25_29  and  N1_31
REMARK       I    between atoms: N1_31  and  C26_33
REMARK    8  A    between atoms: C26_33  and  O5_35
REMARK    9  A    between atoms: O5_35  and  C27_36
REMARK   10  A    between atoms: C27_36  and  C28_37
REMARK   11  A    between atoms: C28_37  and  C29_38
ROOT
HETATM    1  C1  UNL     1      40.334   5.989  -6.939  1.00  0.00     0.112 C
HETATM    2  C2  UNL     1      40.053   6.782  -5.736  1.00  0.00    -0.103 C
HETATM    3  C3  UNL     1      39.823   7.416  -4.735  1.00  0.00    -0.026 C
ENDROOT
BRANCH   3   4
HETATM    4  C4  UNL     1      39.558   8.163  -3.514  1.00  0.00     0.242 C
HETATM    5  O1  UNL     1      38.926   7.586  -2.635  1.00  0.00    -0.280 OA
BRANCH   4   6
HETATM    6  C5  UNL     1      40.095   9.548  -3.488  1.00  0.00     0.180 C
HETATM    7  F1  UNL     1      39.369  10.139  -2.430  1.00  0.00    -0.233 F
HETATM    8  C6  UNL     1      39.729  10.340  -4.713  1.00  0.00     0.054 C
HETATM    9  C7  UNL     1      40.853  11.196  -5.211  1.00  0.00     0.015 C
HETATM   10  C8  UNL     1      42.122  10.397  -5.482  1.00  0.00    -0.018 C
HETATM   11  C9  UNL     1      43.051  11.335  -6.159  1.00  0.00     0.018 C
HETATM   12  C11 UNL     1      42.540   9.741  -4.228  1.00  0.00     0.012 C
HETATM   13  C12 UNL     1      43.811  10.275  -3.600  1.00  0.00     0.020 C
HETATM   14  C34 UNL     1      41.520   9.689  -3.146  1.00  0.00     0.043 C
HETATM   15  C13 UNL     1      45.070   9.735  -4.236  1.00  0.00     0.010 C
HETATM   16  C31 UNL     1      43.939   9.964  -2.153  1.00  0.00    -0.074 C
HETATM   17  C14 UNL     1      46.275  10.238  -3.532  1.00  0.00     0.011 C
HETATM   18  C15 UNL     1      46.356   9.914  -2.053  1.00  0.00    -0.032 C
HETATM   19  C16 UNL     1      46.434   8.444  -1.900  1.00  0.00     0.016 C
HETATM   20  C17 UNL     1      45.109  10.547  -1.447  1.00  0.00     0.023 C
HETATM   21  C20 UNL     1      47.438  10.731  -1.469  1.00  0.00     0.002 C
HETATM   22  C18 UNL     1      45.357  11.987  -1.672  1.00  0.00     0.010 C
HETATM   23  C19 UNL     1      46.872  12.141  -1.654  1.00  0.00     0.007 C
HETATM   24  C32 UNL     1      43.129   9.204  -1.440  1.00  0.00    -0.023 C
HETATM   25  C33 UNL     1      41.968   8.597  -2.163  1.00  0.00     0.036 C
BRANCH  10  26
HETATM   26  C10 UNL     1      41.765   9.349  -6.553  1.00  0.00     0.173 C
BRANCH  26  27
HETATM   27  O2  UNL     1      42.900   8.596  -6.881  1.00  0.00    -0.400 OA
ATOM     28  H2  UNL     1      42.743   7.677  -6.699  1.00  0.00     0.209 HD
ENDBRANCH  26  27
ENDBRANCH  10  26
BRANCH  21  29
HETATM   29  C21 UNL     1      47.797  10.563  -0.038  1.00  0.00     0.009 C
HETATM   30  C22 UNL     1      49.243  10.440   0.299  1.00  0.00     0.014 C
BRANCH  29  31
HETATM   31  C23 UNL     1      47.302  11.807   0.661  1.00  0.00    -0.017 C
HETATM   32  C24 UNL     1      46.785  11.780   1.856  1.00  0.00     0.071 C
BRANCH  32  33
HETATM   33  C25 UNL     1      46.301  12.970   2.544  1.00  0.00     0.249 C
HETATM   34  O3  UNL     1      46.808  13.270   3.647  1.00  0.00    -0.268 OA
HETATM   35  N1  UNL     1      45.282  13.751   1.959  1.00  0.00    -0.269 N
HETATM   36  C26 UNL     1      44.772  14.934   2.598  1.00  0.00     0.367 C
ATOM     37  H1  UNL     1      44.897  13.468   1.058  1.00  0.00     0.174 HD
HETATM   38  O4  UNL     1      43.867  15.605   2.048  1.00  0.00    -0.238 OA
BRANCH  36  39
HETATM   39  O5  UNL     1      45.246  15.362   3.808  1.00  0.00    -0.304 OA
BRANCH  39  40
HETATM   40  C27 UNL     1      45.347  16.689   4.252  1.00  0.00     0.180 C
BRANCH  40  41
HETATM   41  C28 UNL     1      46.542  17.426   3.696  1.00  0.00     0.026 C
BRANCH  41  42
HETATM   42  C29 UNL     1      47.600  17.444   4.785  1.00  0.00    -0.002 C
HETATM   43  C30 UNL     1      48.801  16.592   4.421  1.00  0.00     0.005 C
ENDBRANCH  41  42
ENDBRANCH  40  41
ENDBRANCH  39  40
ENDBRANCH  36  39
ENDBRANCH  32  33
ENDBRANCH  29  31
ENDBRANCH  21  29
ENDBRANCH   4   6
ENDBRANCH   3   4
TORSDOF 11
ENDMDL