MODEL 5
REMARK VINA RESULT: -7.073875740      3.315      5.483
REMARK  10 active torsions:
REMARK  status: ('A' for Active; 'I' for Inactive)
REMARK    1  A    between atoms: C4_4  and  C5_5
REMARK    2  A    between atoms: C5_5  and  C6_6
REMARK    3  A    between atoms: C6_6  and  C7_7
REMARK    4  A    between atoms: C6_6  and  C14_15
REMARK    5  A    between atoms: C9_9  and  C10_10
REMARK    6  A    between atoms: C11_11  and  C13_13
REMARK    7  A    between atoms: C18_21  and  C19_22
REMARK    8  A    between atoms: C19_22  and  C20_23
REMARK    9  A    between atoms: C20_23  and  C21_24
REMARK   10  A    between atoms: C29_33  and  O4_35
ROOT
HETATM    1  C14 UNL     1      46.949  11.517   0.722  1.00  0.00     0.097 C
HETATM    2  C15 UNL     1      47.610  11.099   1.966  1.00  0.00     0.033 C
HETATM    3  C16 UNL     1      47.915  11.431  -0.447  1.00  0.00     0.216 C
HETATM    4  O2  UNL     1      48.197  12.369  -1.213  1.00  0.00    -0.288 OA
HETATM    5  C17 UNL     1      48.562  10.126  -0.693  1.00  0.00     0.229 C
HETATM    6  O3  UNL     1      49.710  10.216  -1.144  1.00  0.00    -0.283 OA
HETATM    7  C18 UNL     1      47.846   8.911  -0.400  1.00  0.00     0.025 C
HETATM    8  C31 UNL     1      46.587   9.073   0.103  1.00  0.00    -0.001 C
HETATM    9  C32 UNL     1      45.785   7.862   0.431  1.00  0.00     0.053 C
HETATM   10  C33 UNL     1      46.010  10.385   0.358  1.00  0.00     0.173 C
HETATM   11  O5  UNL     1      44.825  10.573   0.282  1.00  0.00    -0.291 OA
ENDROOT
BRANCH   1  12
HETATM   12  C6  UNL     1      46.292  12.815   0.657  1.00  0.00     0.041 C
BRANCH  12  13
HETATM   13  C5  UNL     1      44.970  12.865  -0.093  1.00  0.00     0.038 C
BRANCH  13  14
HETATM   14  C4  UNL     1      45.008  13.533  -1.397  1.00  0.00    -0.024 C
HETATM   15  C2  UNL     1      44.673  14.779  -1.594  1.00  0.00    -0.091 C
HETATM   16  C1  UNL     1      44.752  15.365  -2.983  1.00  0.00     0.042 C
HETATM   17  C3  UNL     1      44.202  15.695  -0.526  1.00  0.00     0.042 C
ENDBRANCH  13  14
ENDBRANCH  12  13
BRANCH  12  18
HETATM   18  C7  UNL     1      45.982  13.481   1.952  1.00  0.00    -0.078 C
HETATM   19  C8  UNL     1      44.504  13.572   2.261  1.00  0.00     0.044 C
HETATM   20  C9  UNL     1      46.776  14.019   2.826  1.00  0.00     0.003 C
BRANCH  20  21
HETATM   21  C10 UNL     1      46.337  14.644   4.068  1.00  0.00     0.010 C
HETATM   22  C11 UNL     1      46.929  15.747   4.476  1.00  0.00    -0.024 C
HETATM   23  C12 UNL     1      48.042  16.382   3.704  1.00  0.00     0.051 C
BRANCH  22  24
HETATM   24  C13 UNL     1      46.517  16.389   5.701  1.00  0.00     0.265 C
HETATM   25  O1  UNL     1      46.942  17.514   6.063  1.00  0.00    -0.302 OA
ENDBRANCH  22  24
ENDBRANCH  20  21
ENDBRANCH  12  18
ENDBRANCH   1  12
BRANCH   7  26
HETATM   26  C19 UNL     1      48.306   7.575  -0.609  1.00  0.00     0.003 C
BRANCH  26  27
HETATM   27  C20 UNL     1      49.382   6.819  -0.032  1.00  0.00     0.025 C
HETATM   28  C22 UNL     1      49.499   7.249   1.461  1.00  0.00     0.023 C
HETATM   29  C23 UNL     1      48.474   6.716   2.361  1.00  0.00    -0.010 C
HETATM   30  C24 UNL     1      48.395   7.681   3.550  1.00  0.00     0.010 C
HETATM   31  C25 UNL     1      48.977   5.400   2.937  1.00  0.00     0.007 C
HETATM   32  C26 UNL     1      49.318   5.510   4.402  1.00  0.00     0.014 C
HETATM   33  C27 UNL     1      50.169   4.910   2.214  1.00  0.00    -0.023 C
HETATM   34  C28 UNL     1      50.406   4.858   0.916  1.00  0.00     0.008 C
HETATM   35  C29 UNL     1      49.414   5.328  -0.129  1.00  0.00     0.084 C
HETATM   36  C30 UNL     1      48.233   4.505  -0.056  1.00  0.00     0.051 C
BRANCH  27  37
HETATM   37  C21 UNL     1      50.793   7.193  -0.469  1.00  0.00     0.131 C
HETATM   38 CL1  UNL     1      51.630   8.201   0.745  1.00  0.00    -0.129 Cl
ENDBRANCH  27  37
BRANCH  35  39
HETATM   39  O4  UNL     1      50.041   5.013  -1.368  1.00  0.00    -0.385 OA
ATOM     40  H4  UNL     1      49.682   4.180  -1.651  1.00  0.00     0.211 HD
ENDBRANCH  35  39
ENDBRANCH  26  27
ENDBRANCH   7  26
TORSDOF 10
ENDMDL