MODEL 5
REMARK VINA RESULT: -7.562987874      1.210      1.411
REMARK  11 active torsions:
REMARK  status: ('A' for Active; 'I' for Inactive)
REMARK    1  A    between atoms: C11_11  and  O1_12
REMARK    2  A    between atoms: C23_26  and  C24_27
REMARK    3  A    between atoms: C24_27  and  C25_29
REMARK    4  A    between atoms: C25_29  and  C26_30
REMARK    5  A    between atoms: C26_30  and  O4_32
REMARK    6  A    between atoms: O4_32  and  C27_33
REMARK    7  A    between atoms: C27_33  and  C28_34
REMARK    8  A    between atoms: C28_34  and  C29_35
REMARK    9  A    between atoms: C29_35  and  C30_36
REMARK   10  A    between atoms: C30_36  and  C31_37
REMARK   11  A    between atoms: C31_37  and  N1_38
ROOT
HETATM    1  C1  UNL     1      47.238  10.659  -0.478  1.00  0.00     0.015 C
HETATM    2  C2  UNL     1      46.501  10.173   0.711  1.00  0.00    -0.039 C
HETATM    3  C3  UNL     1      45.844   8.825   0.512  1.00  0.00     0.010 C
HETATM    4  C4  UNL     1      46.946   7.764   0.513  1.00  0.00     0.007 C
HETATM    5  C5  UNL     1      47.635   7.755   1.847  1.00  0.00     0.003 C
HETATM    6  C6  UNL     1      48.316   9.114   2.107  1.00  0.00    -0.001 C
HETATM    7  C7  UNL     1      49.513   9.261   1.264  1.00  0.00     0.033 C
HETATM    8  C8  UNL     1      50.444   8.143   1.588  1.00  0.00    -0.023 C
HETATM    9  C9  UNL     1      49.987   6.967   1.967  1.00  0.00    -0.072 C
HETATM   10  C10 UNL     1      50.970   5.899   2.273  1.00  0.00     0.067 C
HETATM   11  C11 UNL     1      50.647   4.755   1.343  1.00  0.00     0.130 C
HETATM   12  C12 UNL     1      49.223   4.314   1.356  1.00  0.00    -0.013 C
HETATM   13  C13 UNL     1      49.044   3.320   2.473  1.00  0.00     0.013 C
HETATM   14  C14 UNL     1      47.753   2.564   2.430  1.00  0.00     0.021 C
HETATM   15  C15 UNL     1      47.672   1.803   1.133  1.00  0.00     0.082 C
HETATM   16 CL1  UNL     1      46.212   0.799   1.024  1.00  0.00    -0.125 Cl
HETATM   17  C16 UNL     1      47.705   2.836   0.020  1.00  0.00     0.021 C
HETATM   18  C17 UNL     1      49.046   3.493   0.063  1.00  0.00     0.013 C
HETATM   19  C18 UNL     1      48.196   5.391   1.304  1.00  0.00     0.026 C
HETATM   20  C19 UNL     1      48.543   6.614   2.111  1.00  0.00    -0.016 C
HETATM   21  C20 UNL     1      48.324   6.235   3.587  1.00  0.00     0.020 C
HETATM   22  C21 UNL     1      47.245  10.097   1.997  1.00  0.00    -0.001 C
HETATM   23  C22 UNL     1      47.498  11.520   2.340  1.00  0.00     0.018 C
HETATM   24  C23 UNL     1      46.033  12.007   2.249  1.00  0.00     0.057 C
HETATM   25  C32 UNL     1      45.470  11.259   1.059  1.00  0.00     0.021 C
ENDROOT
BRANCH  24  26
HETATM   26  C24 UNL     1      45.904  13.449   2.203  1.00  0.00     0.140 C
HETATM   27  O2  UNL     1      46.665  14.173   2.802  1.00  0.00    -0.297 OA
BRANCH  26  28
HETATM   28  C25 UNL     1      44.818  14.061   1.405  1.00  0.00     0.189 C
BRANCH  28  29
HETATM   29  C26 UNL     1      44.264  15.237   2.174  1.00  0.00     0.265 C
HETATM   30  O3  UNL     1      43.697  15.058   3.282  1.00  0.00    -0.265 OA
BRANCH  29  31
HETATM   31  O4  UNL     1      44.367  16.522   1.686  1.00  0.00    -0.321 OA
BRANCH  31  32
HETATM   32  C27 UNL     1      45.417  17.409   1.936  1.00  0.00     0.178 C
BRANCH  32  33
HETATM   33  C28 UNL     1      45.764  17.591   3.389  1.00  0.00     0.027 C
BRANCH  33  34
HETATM   34  C29 UNL     1      47.247  17.293   3.619  1.00  0.00     0.004 C
BRANCH  34  35
HETATM   35  C30 UNL     1      47.450  16.787   5.023  1.00  0.00     0.027 C
BRANCH  35  36
HETATM   36  C31 UNL     1      46.111  16.352   5.595  1.00  0.00     0.229 C
BRANCH  36  37
HETATM   37  N1  UNL     1      45.952  14.921   5.572  1.00  0.00    -0.079 N
ATOM     38  H13 UNL     1      46.062  14.552   4.628  1.00  0.00     0.274 HD
ATOM     39  H12 UNL     1      46.740  14.454   6.020  1.00  0.00     0.274 HD
ATOM     40  H11 UNL     1      45.066  14.627   5.983  1.00  0.00     0.274 HD
ENDBRANCH  36  37
ENDBRANCH  35  36
ENDBRANCH  34  35
ENDBRANCH  33  34
ENDBRANCH  32  33
ENDBRANCH  31  32
ENDBRANCH  29  31
ENDBRANCH  28  29
ENDBRANCH  26  28
ENDBRANCH  24  26
BRANCH  11  41
HETATM   41  O1  UNL     1      50.921   5.199   0.031  1.00  0.00    -0.394 OA
ATOM     42  H1  UNL     1      50.085   5.374  -0.383  1.00  0.00     0.210 HD
ENDBRANCH  11  41
TORSDOF 11
ENDMDL