MODEL 1
REMARK VINA RESULT: -6.448632892      0.000      0.000
REMARK  8 active torsions:
REMARK  status: ('A' for Active; 'I' for Inactive)
REMARK    1  A    between atoms: C6_7  and  C8_9
REMARK    2  A    between atoms: C9_12  and  N1_13
REMARK    3  A    between atoms: N1_13  and  C10_15
REMARK    4  A    between atoms: C10_15  and  C11_16
REMARK    5  A    between atoms: C11_16  and  C12_17
REMARK    6  A    between atoms: C18_24  and  O4_25
REMARK    7  A    between atoms: C27_35  and  C28_36
REMARK    8  A    between atoms: C28_36  and  C29_37
ROOT
HETATM    1  C1  UNL     1      44.537   8.597   0.313  1.00  0.00     0.016 C
HETATM    2  C2  UNL     1      45.625   9.354   0.005  1.00  0.00    -0.069 C
HETATM    3  C3  UNL     1      46.805   8.513   0.180  1.00  0.00     0.052 C
HETATM    4  C4  UNL     1      46.847   8.108   1.619  1.00  0.00     0.004 C
HETATM    5  C5  UNL     1      47.896   7.471   2.128  1.00  0.00     0.029 C
HETATM    6 CL1  UNL     1      47.921   7.008   3.834  1.00  0.00    -0.088 Cl
HETATM    7  C6  UNL     1      49.004   7.148   1.189  1.00  0.00     0.103 C
HETATM    8  C7  UNL     1      48.501   5.987   0.332  1.00  0.00     0.035 C
HETATM    9  C9  UNL     1      49.339   8.317   0.360  1.00  0.00     0.113 C
HETATM   10  C14 UNL     1      48.130   9.025  -0.212  1.00  0.00     0.092 C
HETATM   11  C15 UNL     1      48.078  10.490   0.119  1.00  0.00     0.144 C
HETATM   12  O3  UNL     1      48.452  10.888   1.185  1.00  0.00    -0.297 OA
HETATM   13  C16 UNL     1      47.580  11.536  -0.796  1.00  0.00     0.119 C
HETATM   14  C17 UNL     1      48.341  11.329  -2.088  1.00  0.00     0.052 C
HETATM   15  C18 UNL     1      47.553  10.791  -2.996  1.00  0.00     0.177 C
HETATM   16  O5  UNL     1      46.306  10.607  -2.443  1.00  0.00    -0.317 OA
HETATM   17  C20 UNL     1      46.187  11.424  -1.265  1.00  0.00     0.099 C
HETATM   18  C21 UNL     1      45.667  12.746  -1.701  1.00  0.00     0.023 C
HETATM   19  C22 UNL     1      46.699  13.606  -2.432  1.00  0.00     0.013 C
HETATM   20  C23 UNL     1      44.589  12.484  -2.719  1.00  0.00    -0.012 C
HETATM   21  C24 UNL     1      43.796  13.787  -2.922  1.00  0.00     0.010 C
HETATM   22  C25 UNL     1      43.714  11.345  -2.421  1.00  0.00     0.006 C
HETATM   23  C26 UNL     1      43.958  10.509  -1.259  1.00  0.00     0.018 C
HETATM   24  C27 UNL     1      45.182  10.718  -0.398  1.00  0.00     0.019 C
ENDROOT
BRANCH   9  25
HETATM   25  N1  UNL     1      50.242   9.294   0.777  1.00  0.00    -0.415 N
ATOM     26  H1  UNL     1      49.997   9.810   1.622  1.00  0.00     0.153 HD
BRANCH  25  27
HETATM   27  C10 UNL     1      51.444   9.639   0.161  1.00  0.00     0.114 C
BRANCH  27  28
HETATM   28  C11 UNL     1      51.752   8.622  -0.954  1.00  0.00     0.019 C
BRANCH  28  29
HETATM   29  C12 UNL     1      51.523   9.274  -2.313  1.00  0.00    -0.003 C
HETATM   30  C13 UNL     1      50.591   8.423  -3.148  1.00  0.00     0.005 C
ENDBRANCH  28  29
ENDBRANCH  27  28
ENDBRANCH  25  27
ENDBRANCH   9  25
BRANCH   7  31
HETATM   31  C8  UNL     1      50.158   6.549   1.917  1.00  0.00     0.189 C
HETATM   32  O1  UNL     1      51.006   7.203   2.563  1.00  0.00    -0.647 OA
HETATM   33  O2  UNL     1      50.285   5.173   1.867  1.00  0.00    -0.647 OA
ENDBRANCH   7  31
BRANCH  24  34
HETATM   34  C28 UNL     1      44.875  11.494   0.859  1.00  0.00     0.044 C
BRANCH  34  35
HETATM   35  C29 UNL     1      44.531  12.911   0.750  1.00  0.00    -0.024 C
HETATM   36  C30 UNL     1      45.044  13.904   1.478  1.00  0.00    -0.091 C
HETATM   37  C31 UNL     1      46.059  13.771   2.531  1.00  0.00     0.042 C
HETATM   38  C32 UNL     1      44.553  15.317   1.224  1.00  0.00     0.042 C
ENDBRANCH  34  35
ENDBRANCH  24  34
BRANCH  15  39
HETATM   39  O4  UNL     1      47.927  10.472  -4.275  1.00  0.00    -0.336 OA
HETATM   40  C19 UNL     1      48.831  11.205  -5.031  1.00  0.00     0.212 C
ENDBRANCH  15  39
TORSDOF 8
ENDMDL