MODEL 3
REMARK VINA RESULT: -6.184627706      3.902      7.995
REMARK  9 active torsions:
REMARK  status: ('A' for Active; 'I' for Inactive)
REMARK    1  A    between atoms: C2_2  and  C3_3
REMARK    2  A    between atoms: C5_5  and  C6_6
REMARK    3  A    between atoms: C10_11  and  O2_12
REMARK    4  A    between atoms: O2_12  and  C11_13
REMARK    5  A    between atoms: C11_13  and  C12_15
REMARK    6  A    between atoms: C12_15  and  C13_16
REMARK    7  A    between atoms: C12_15  and  C14_18
REMARK    8  A    between atoms: C14_18  and  O4_20
REMARK    9  A    between atoms: C24_30  and  O5_31
ROOT
HETATM    1  C6  UNL     1      45.375  11.874  -1.312  1.00  0.00     0.094 C
HETATM    2  O1  UNL     1      46.177  10.830  -0.863  1.00  0.00    -0.362 OA
HETATM    3  C7  UNL     1      45.695   9.611  -1.221  1.00  0.00     0.083 C
HETATM    4  C8  UNL     1      46.822   8.819  -1.873  1.00  0.00     0.048 C
HETATM    5  C9  UNL     1      45.395   8.778   0.007  1.00  0.00     0.048 C
HETATM    6  C10 UNL     1      44.502   9.822  -2.119  1.00  0.00     0.177 C
HETATM    7  C16 UNL     1      44.580  11.278  -2.513  1.00  0.00     0.028 C
HETATM    8  C17 UNL     1      45.485  11.283  -3.741  1.00  0.00     0.022 C
HETATM    9  C18 UNL     1      43.365  12.011  -2.804  1.00  0.00     0.029 C
HETATM   10  C19 UNL     1      42.208  11.347  -3.491  1.00  0.00     0.011 C
HETATM   11  C20 UNL     1      41.085  12.286  -3.851  1.00  0.00     0.011 C
HETATM   12  C21 UNL     1      41.413  13.650  -4.277  1.00  0.00    -0.027 C
HETATM   13  C22 UNL     1      41.190  14.680  -3.177  1.00  0.00     0.016 C
HETATM   14  C23 UNL     1      40.431  14.065  -5.370  1.00  0.00     0.046 C
HETATM   15  C24 UNL     1      40.568  13.261  -6.614  1.00  0.00     0.141 C
HETATM   16  C25 UNL     1      41.875  12.575  -6.736  1.00  0.00     0.002 C
HETATM   17  C26 UNL     1      42.887  12.745  -5.919  1.00  0.00    -0.014 C
HETATM   18  C27 UNL     1      42.847  13.660  -4.757  1.00  0.00     0.004 C
HETATM   19  C28 UNL     1      43.210  15.005  -5.319  1.00  0.00     0.025 C
HETATM   20  C29 UNL     1      43.647  13.254  -3.574  1.00  0.00    -0.066 C
HETATM   21  C30 UNL     1      44.619  14.117  -3.270  1.00  0.00    -0.022 C
HETATM   22  C31 UNL     1      45.655  14.239  -2.257  1.00  0.00     0.035 C
HETATM   23  C32 UNL     1      46.227  13.033  -1.644  1.00  0.00     0.024 C
HETATM   24  C33 UNL     1      47.614  12.683  -2.196  1.00  0.00     0.014 C
ENDROOT
BRANCH   6  25
HETATM   25  O2  UNL     1      43.390   9.146  -1.941  1.00  0.00    -0.312 OA
BRANCH  25  26
HETATM   26  C11 UNL     1      42.927   7.892  -2.245  1.00  0.00     0.267 C
HETATM   27  O3  UNL     1      42.474   7.445  -1.199  1.00  0.00    -0.265 OA
BRANCH  26  28
HETATM   28  C12 UNL     1      42.965   7.224  -3.539  1.00  0.00     0.127 C
BRANCH  28  29
HETATM   29  C13 UNL     1      41.805   7.780  -4.373  1.00  0.00     0.132 C
HETATM   30 CL1  UNL     1      40.825   6.395  -4.897  1.00  0.00    -0.130 Cl
ENDBRANCH  28  29
BRANCH  28  31
HETATM   31  C14 UNL     1      44.234   7.589  -4.276  1.00  0.00     0.128 C
HETATM   32  C15 UNL     1      43.930   8.385  -5.534  1.00  0.00     0.040 C
BRANCH  31  33
HETATM   33  O4  UNL     1      44.930   6.426  -4.659  1.00  0.00    -0.395 OA
ATOM     34  H4  UNL     1      45.853   6.511  -4.452  1.00  0.00     0.210 HD
ENDBRANCH  31  33
ENDBRANCH  28  31
ENDBRANCH  26  28
ENDBRANCH  25  26
ENDBRANCH   6  25
BRANCH   1  35
HETATM   35  C5  UNL     1      44.478  12.241  -0.191  1.00  0.00     0.019 C
HETATM   36  C3  UNL     1      44.855  12.716   1.108  1.00  0.00    -0.064 C
HETATM   37  C4  UNL     1      45.020  14.203   1.286  1.00  0.00     0.048 C
BRANCH  36  38
HETATM   38  C2  UNL     1      45.718  12.022   2.040  1.00  0.00    -0.004 C
HETATM   39  C1  UNL     1      47.004  12.221   2.281  1.00  0.00     0.012 C
ENDBRANCH  36  38
ENDBRANCH   1  35
BRANCH  15  40
HETATM   40  O5  UNL     1      39.545  12.342  -6.827  1.00  0.00    -0.392 OA
ATOM     41  H5  UNL     1      39.833  11.442  -6.923  1.00  0.00     0.210 HD
ENDBRANCH  15  40
TORSDOF 9
ENDMDL