MODEL 1
REMARK VINA RESULT: -8.499536552      0.000      0.000
REMARK  7 active torsions:
REMARK  status: ('A' for Active; 'I' for Inactive)
REMARK    1  A    between atoms: C4_10  and  C5_11
REMARK    2  A    between atoms: N4_14  and  C8_15
REMARK    3  A    between atoms: C8_15  and  C9_16
REMARK    4  A    between atoms: N6_21  and  C13_22
REMARK    5  A    between atoms: C13_22  and  C14_23
REMARK    6  A    between atoms: C14_23  and  C15_24
REMARK    7  A    between atoms: C20_33  and  C21_34
ROOT
HETATM    1  C5  UNL     1      17.869 -13.359  10.478  1.00  0.00    -0.017 A
HETATM    2  C6  UNL     1      17.194 -12.929  11.594  1.00  0.00     0.029 A
HETATM    3  C7  UNL     1      17.641 -11.850  12.310  1.00  0.00     0.092 A
HETATM    4  N4  UNL     1      18.762 -11.164  11.954  1.00  0.00    -0.351 N
HETATM    5  C20 UNL     1      19.414 -11.589  10.865  1.00  0.00     0.050 A
HETATM    6  C22 UNL     1      18.990 -12.674  10.119  1.00  0.00     0.043 A
ENDROOT
BRANCH   4   7
HETATM    7  C8  UNL     1      19.121 -10.089  12.814  1.00  0.00     0.170 C
BRANCH   7   8
HETATM    8  C9  UNL     1      18.277  -8.906  12.805  1.00  0.00    -0.008 A
HETATM    9  C10 UNL     1      17.289  -8.767  13.757  1.00  0.00     0.101 A
HETATM   10  N5  UNL     1      16.526  -7.659  13.702  1.00  0.00    -0.356 N
HETATM   11  C11 UNL     1      15.475  -7.506  14.710  1.00  0.00     0.156 C
HETATM   12  C12 UNL     1      16.687  -6.704  12.771  1.00  0.00     0.189 A
HETATM   13  N6  UNL     1      17.623  -6.797  11.839  1.00  0.00    -0.328 N
HETATM   14  C19 UNL     1      18.413  -7.918  11.876  1.00  0.00     0.107 A
BRANCH  13  15
HETATM   15  C13 UNL     1      17.860  -5.852  10.836  1.00  0.00     0.097 C
BRANCH  15  16
HETATM   16  C14 UNL     1      16.971  -4.710  10.675  1.00  0.00     0.020 C
BRANCH  16  17
HETATM   17  C15 UNL     1      17.195  -3.568   9.811  1.00  0.00     0.032 C
HETATM   18  C16 UNL     1      17.914  -3.627   8.556  1.00  0.00     0.048 A
HETATM   19  C17 UNL     1      19.305  -3.607   8.472  1.00  0.00     0.118 A
HETATM   20  N8  UNL     1      17.504  -3.615   7.280  1.00  0.00    -0.351 N
HETATM   21  N7  UNL     1      19.640  -3.585   7.179  1.00  0.00    -0.360 N
HETATM   22  C18 UNL     1      18.531  -3.589   6.422  1.00  0.00     0.180 A
ATOM     23  H7  UNL     1      20.596  -3.569   6.821  1.00  0.00     0.166 HD
ATOM     24  H8  UNL     1      16.524  -3.624   6.995  1.00  0.00     0.166 HD
ENDBRANCH  16  17
ENDBRANCH  15  16
ENDBRANCH  13  15
ENDBRANCH   7   8
ENDBRANCH   4   7
BRANCH   5  25
HETATM   25  C21 UNL     1      20.578 -10.867  10.434  1.00  0.00     0.110 C
HETATM   26  N9  UNL     1      21.250 -11.168   9.412  1.00  0.00    -0.406 N
ATOM     27  H92 UNL     1      20.935 -11.972   8.871  1.00  0.00     0.155 HD
ATOM     28  H91 UNL     1      22.078 -10.655   9.106  1.00  0.00     0.155 HD
ENDBRANCH   5  25
BRANCH   1  29
HETATM   29  C4  UNL     1      17.414 -14.505   9.685  1.00  0.00     0.033 A
HETATM   30  C3  UNL     1      16.224 -14.452   8.999  1.00  0.00     0.112 A
HETATM   31  N2  UNL     1      15.856 -15.556   8.286  1.00  0.00    -0.338 N
HETATM   32  N3  UNL     1      15.451 -13.438   8.985  1.00  0.00    -0.385 N
HETATM   33  C2  UNL     1      16.610 -16.668   8.237  1.00  0.00     0.183 A
ATOM     34  H2  UNL     1      14.976 -15.537   7.771  1.00  0.00     0.168 HD
HETATM   35  N1  UNL     1      17.777 -16.733   8.902  1.00  0.00    -0.356 N
HETATM   36  C1  UNL     1      18.569 -17.957   8.827  1.00  0.00     0.156 C
HETATM   37  C23 UNL     1      18.160 -15.662   9.612  1.00  0.00     0.107 A
ATOM     38  H32 UNL     1      14.569 -13.399   8.475  1.00  0.00     0.157 HD
ATOM     39  H31 UNL     1      15.726 -12.613   9.518  1.00  0.00     0.157 HD
ENDBRANCH   1  29
TORSDOF 7
ENDMDL