MODEL 5
REMARK VINA RESULT: -7.041860834      2.322      5.736
REMARK  10 active torsions:
REMARK  status: ('A' for Active; 'I' for Inactive)
REMARK    1  A    between atoms: C3_6  and  N3_7
REMARK    2  A    between atoms: N3_7  and  C4_8
REMARK    3  A    between atoms: C4_8  and  C5_9
REMARK    4  A    between atoms: C5_9  and  N4_10
REMARK    5  A    between atoms: N4_10  and  C6_12
REMARK    6  A    between atoms: C11_19  and  C12_20
REMARK    7  A    between atoms: C12_20  and  C13_21
REMARK    8  A    between atoms: C13_21  and  C14_22
REMARK    9  A    between atoms: C14_22  and  C15_23
REMARK   10  A    between atoms: C15_23  and  N6_24
ROOT
HETATM    1  C1  UNL     1      16.921  -3.307  10.065  1.00  0.00     0.156 C
HETATM    2  N1  UNL     1      17.389  -4.588  10.540  1.00  0.00    -0.357 N
HETATM    3  C2  UNL     1      18.517  -5.159  10.075  1.00  0.00     0.184 A
HETATM    4  N2  UNL     1      18.941  -6.342  10.519  1.00  0.00    -0.327 N
ATOM      5  H2  UNL     1      19.802  -6.728  10.130  1.00  0.00     0.169 HD
HETATM    6  C3  UNL     1      18.269  -7.066  11.479  1.00  0.00     0.186 A
HETATM    7  C11 UNL     1      17.091  -6.471  11.968  1.00  0.00     0.016 A
HETATM    8  C23 UNL     1      16.706  -5.257  11.472  1.00  0.00     0.103 A
ENDROOT
BRANCH   7   9
HETATM    9  C12 UNL     1      16.282  -7.152  13.018  1.00  0.00     0.045 C
BRANCH   9  10
HETATM   10  C13 UNL     1      16.732  -6.795  14.405  1.00  0.00     0.006 C
BRANCH  10  11
HETATM   11  C14 UNL     1      15.842  -5.848  15.130  1.00  0.00     0.021 C
BRANCH  11  12
HETATM   12  C15 UNL     1      16.087  -4.398  14.929  1.00  0.00     0.128 C
BRANCH  12  13
HETATM   13  N6  UNL     1      15.571  -3.543  15.975  1.00  0.00    -0.362 N
HETATM   14  C16 UNL     1      14.402  -3.865  16.610  1.00  0.00     0.119 A
HETATM   15  C17 UNL     1      13.909  -3.065  17.612  1.00  0.00     0.090 A
HETATM   16  N7  UNL     1      12.691  -3.412  18.265  1.00  0.00    -0.099 NA
HETATM   17  C18 UNL     1      14.561  -1.919  18.013  1.00  0.00     0.087 A
HETATM   18  N8  UNL     1      14.361  -0.946  18.926  1.00  0.00    -0.349 N
HETATM   19  C21 UNL     1      15.739  -1.588  17.377  1.00  0.00     0.079 A
HETATM   20  C19 UNL     1      15.361  -0.029  18.883  1.00  0.00     0.183 A
ATOM     21  H8  UNL     1      13.565  -0.905  19.564  1.00  0.00     0.167 HD
HETATM   22  N9  UNL     1      16.195  -0.448  17.923  1.00  0.00    -0.344 N
HETATM   23  C20 UNL     1      17.406   0.224  17.528  1.00  0.00     0.157 C
HETATM   24  C22 UNL     1      16.195  -2.432  16.371  1.00  0.00     0.122 A
ENDBRANCH  12  13
ENDBRANCH  11  12
ENDBRANCH  10  11
ENDBRANCH   9  10
ENDBRANCH   7   9
BRANCH   6  25
HETATM   25  N3  UNL     1      18.673  -8.138  11.855  1.00  0.00    -0.402 NA
BRANCH  25  26
HETATM   26  C4  UNL     1      19.094  -9.319  12.263  1.00  0.00     0.177 C
BRANCH  26  27
HETATM   27  C5  UNL     1      19.134 -10.447  11.217  1.00  0.00     0.180 C
BRANCH  27  28
HETATM   28  N4  UNL     1      17.865 -11.118  11.145  1.00  0.00    -0.371 N
ATOM     29  H4  UNL     1      17.060 -10.761  11.659  1.00  0.00     0.161 HD
BRANCH  28  30
HETATM   30  C6  UNL     1      17.763 -12.178  10.419  1.00  0.00     0.101 A
HETATM   31  C7  UNL     1      16.540 -12.730  10.099  1.00  0.00     0.048 A
HETATM   32  C8  UNL     1      16.551 -13.866   9.316  1.00  0.00     0.005 A
HETATM   33  C9  UNL     1      17.722 -14.447   8.858  1.00  0.00     0.017 A
HETATM   34  C10 UNL     1      18.906 -13.845   9.214  1.00  0.00     0.089 A
HETATM   35  N5  UNL     1      18.897 -12.740   9.975  1.00  0.00    -0.353 N
ATOM     36  H5  UNL     1      19.787 -12.310  10.226  1.00  0.00     0.166 HD
ENDBRANCH  28  30
ENDBRANCH  27  28
ENDBRANCH  26  27
ENDBRANCH  25  26
ENDBRANCH   6  25
TORSDOF 10
ENDMDL