MODEL 5
REMARK VINA RESULT: -7.144419252      2.212      3.054
REMARK  11 active torsions:
REMARK  status: ('A' for Active; 'I' for Inactive)
REMARK    1  A    between atoms: C3_5  and  C4_6
REMARK    2  A    between atoms: C3_5  and  N7_27
REMARK    3  A    between atoms: C4_6  and  N2_7
REMARK    4  A    between atoms: N2_7  and  C7_10
REMARK    5  A    between atoms: N3_14  and  C11_15
REMARK    6  A    between atoms: C11_15  and  C12_16
REMARK    7  A    between atoms: C12_16  and  C13_17
REMARK    8  A    between atoms: C13_17  and  C14_18
REMARK    9  A    between atoms: C14_18  and  N4_19
REMARK   10  A    between atoms: N7_27  and  C18_29
REMARK   11  A    between atoms: C21_34  and  N9_35
ROOT
HETATM    1  C1  UNL     1      16.833 -14.334   8.782  1.00  0.00     0.037 C
HETATM    2  C2  UNL     1      16.727 -13.526   9.674  1.00  0.00     0.000 C
HETATM    3  N1  UNL     1      16.588 -12.582  10.698  1.00  0.00    -0.304 N
ATOM      4  H1  UNL     1      15.846 -11.886  10.620  1.00  0.00     0.177 HD
HETATM    5  C3  UNL     1      17.349 -12.552  11.731  1.00  0.00     0.117 C
ENDROOT
BRANCH   5   6
HETATM    6  C4  UNL     1      17.247 -11.585  12.836  1.00  0.00     0.320 C
BRANCH   6   7
HETATM    7  N2  UNL     1      18.145 -10.467  12.760  1.00  0.00    -0.037 N
HETATM    8  C5  UNL     1      18.899 -10.382  11.534  1.00  0.00     0.279 C
HETATM    9  C6  UNL     1      19.019 -10.515  13.926  1.00  0.00     0.279 C
BRANCH   7  10
HETATM   10  C7  UNL     1      17.360  -9.266  12.800  1.00  0.00     0.151 A
HETATM   11  C8  UNL     1      16.221  -9.206  13.566  1.00  0.00     0.040 A
HETATM   12  C9  UNL     1      15.503  -8.023  13.567  1.00  0.00     0.019 A
HETATM   13  C10 UNL     1      15.968  -6.981  12.806  1.00  0.00     0.090 A
HETATM   14  N3  UNL     1      17.098  -7.078  12.061  1.00  0.00    -0.364 N
HETATM   15  C17 UNL     1      17.809  -8.217  12.047  1.00  0.00     0.127 A
BRANCH  14  16
HETATM   16  C11 UNL     1      17.489  -5.913  11.299  1.00  0.00     0.128 C
BRANCH  16  17
HETATM   17  C12 UNL     1      16.662  -4.700  11.658  1.00  0.00     0.022 C
BRANCH  17  18
HETATM   18  C13 UNL     1      16.866  -3.572  10.678  1.00  0.00     0.023 C
BRANCH  18  19
HETATM   19  C14 UNL     1      18.250  -3.699  10.093  1.00  0.00     0.150 C
BRANCH  19  20
HETATM   20  N4  UNL     1      18.200  -3.658   8.646  1.00  0.00    -0.287 N
HETATM   21  C15 UNL     1      17.071  -3.560   7.938  1.00  0.00     0.201 A
HETATM   22  N5  UNL     1      17.451  -3.554   6.640  1.00  0.00    -0.346 N
HETATM   23  C16 UNL     1      18.788  -3.649   6.606  1.00  0.00     0.198 A
ATOM     24  H5  UNL     1      16.832  -3.489   5.832  1.00  0.00     0.167 HD
HETATM   25  N6  UNL     1      19.247  -3.714   7.856  1.00  0.00    -0.293 N
ATOM     26  H6  UNL     1      20.223  -3.790   8.143  1.00  0.00     0.188 HD
ENDBRANCH  19  20
ENDBRANCH  18  19
ENDBRANCH  17  18
ENDBRANCH  16  17
ENDBRANCH  14  16
ENDBRANCH   7  10
ENDBRANCH   6   7
ENDBRANCH   5   6
BRANCH   5  27
HETATM   27  N7  UNL     1      18.374 -13.534  11.815  1.00  0.00    -0.330 N
ATOM     28  H7  UNL     1      19.002 -13.635  11.019  1.00  0.00     0.168 HD
BRANCH  27  29
HETATM   29  C18 UNL     1      18.558 -14.294  12.816  1.00  0.00     0.123 A
HETATM   30  C19 UNL     1      19.730 -14.270  13.537  1.00  0.00     0.066 A
HETATM   31  C20 UNL     1      19.926 -15.106  14.636  1.00  0.00     0.110 A
HETATM   32  N8  UNL     1      18.962 -15.962  15.015  1.00  0.00    -0.202 N
HETATM   33  C21 UNL     1      17.824 -15.970  14.298  1.00  0.00     0.677 A
ATOM     34  H8  UNL     1      19.088 -16.581  15.816  1.00  0.00     0.183 HD
HETATM   35  N10 UNL     1      17.618 -15.160  13.224  1.00  0.00    -0.177 N
ATOM     36  H10 UNL     1      16.732 -15.213  12.720  1.00  0.00     0.185 HD
BRANCH  33  37
HETATM   37  N9  UNL     1      16.901 -16.789  14.660  1.00  0.00    -0.234 N
ATOM     38  H92 UNL     1      16.369 -16.601  15.510  1.00  0.00     0.174 HD
ATOM     39  H91 UNL     1      16.738 -17.605  14.070  1.00  0.00     0.174 HD
ENDBRANCH  33  37
ENDBRANCH  27  29
ENDBRANCH   5  27
TORSDOF 11
ENDMDL