MODEL 2
REMARK VINA RESULT: -6.827561976      1.702      2.543
REMARK  13 active torsions:
REMARK  status: ('A' for Active; 'I' for Inactive)
REMARK    1  A    between atoms: C4_5  and  C5_6
REMARK    2  A    between atoms: C5_6  and  N2_7
REMARK    3  A    between atoms: C10_14  and  C11_15
REMARK    4  A    between atoms: C12_16  and  C13_17
REMARK    5  A    between atoms: C14_18  and  C15_19
REMARK    6  A    between atoms: C15_19  and  N4_20
REMARK    7  A    between atoms: N4_20  and  C16_22
REMARK    8  A    between atoms: N5_24  and  C18_25
REMARK    9  A    between atoms: C18_25  and  C19_26
REMARK   10  A    between atoms: C19_26  and  C20_27
REMARK   11  A    between atoms: C20_27  and  C21_28
REMARK   12  A    between atoms: C21_28  and  C22_29
REMARK   13  A    between atoms: C22_29  and  N6_30
ROOT
HETATM    1  C15 UNL     1      15.917  -7.412  13.376  1.00  0.00     0.216 C
ENDROOT
BRANCH   1   2
HETATM    2  C14 UNL     1      16.507  -8.573  12.680  1.00  0.00    -0.073 C
HETATM    3  C13 UNL     1      16.991  -9.533  12.131  1.00  0.00    -0.013 C
BRANCH   3   4
HETATM    4  C12 UNL     1      17.564 -10.670  11.507  1.00  0.00    -0.008 C
HETATM    5  C11 UNL     1      18.049 -11.650  10.994  1.00  0.00    -0.035 C
BRANCH   5   6
HETATM    6  C10 UNL     1      18.621 -12.829  10.405  1.00  0.00     0.089 A
HETATM    7  N1  UNL     1      19.816 -12.791   9.777  1.00  0.00    -0.354 N
HETATM    8  C1  UNL     1      20.563 -11.532   9.682  1.00  0.00     0.156 C
HETATM    9  C2  UNL     1      20.372 -13.869   9.222  1.00  0.00     0.092 A
HETATM   10  C3  UNL     1      19.664 -15.067   9.311  1.00  0.00     0.026 A
HETATM   11  C4  UNL     1      18.452 -15.147   9.936  1.00  0.00    -0.036 A
HETATM   12  C9  UNL     1      17.905 -14.019  10.499  1.00  0.00     0.048 A
BRANCH  11  13
HETATM   13  C5  UNL     1      17.716 -16.423  10.022  1.00  0.00     0.167 C
BRANCH  13  14
HETATM   14  N2  UNL     1      16.775 -16.604   8.938  1.00  0.00    -0.347 N
HETATM   15  C6  UNL     1      16.323 -17.782   8.481  1.00  0.00     0.109 A
HETATM   16  C7  UNL     1      15.447 -17.528   7.448  1.00  0.00     0.106 A
HETATM   17  N3  UNL     1      15.388 -16.182   7.302  1.00  0.00    -0.361 N
HETATM   18  C8  UNL     1      16.201 -15.627   8.216  1.00  0.00     0.182 A
ATOM     19  H3  UNL     1      14.824 -15.678   6.617  1.00  0.00     0.166 HD
ENDBRANCH  13  14
ENDBRANCH  11  13
ENDBRANCH   5   6
ENDBRANCH   3   4
ENDBRANCH   1   2
BRANCH   1  20
HETATM   20  N4  UNL     1      16.811  -6.310  13.216  1.00  0.00    -0.365 N
ATOM     21  H4  UNL     1      17.486  -6.135  13.960  1.00  0.00     0.162 HD
BRANCH  20  22
HETATM   22  C16 UNL     1      16.826  -5.521  12.195  1.00  0.00     0.117 A
HETATM   23  C17 UNL     1      17.902  -5.485  11.353  1.00  0.00     0.138 A
HETATM   24  N5  UNL     1      17.983  -4.672  10.254  1.00  0.00    -0.362 N
HETATM   25  C23 UNL     1      16.939  -3.880  10.014  1.00  0.00     0.107 A
HETATM   26  C24 UNL     1      15.830  -3.892  10.852  1.00  0.00     0.107 A
HETATM   27  N7  UNL     1      15.782  -4.714  11.936  1.00  0.00    -0.350 N
ATOM     28  H7  UNL     1      14.965  -4.717  12.546  1.00  0.00     0.166 HD
BRANCH  24  29
HETATM   29  C18 UNL     1      19.168  -4.746   9.425  1.00  0.00     0.128 C
BRANCH  29  30
HETATM   30  C19 UNL     1      19.171  -3.596   8.462  1.00  0.00     0.020 C
BRANCH  30  31
HETATM   31  C20 UNL     1      19.266  -3.959   7.037  1.00  0.00     0.003 C
BRANCH  31  32
HETATM   32  C21 UNL     1      18.164  -3.521   6.150  1.00  0.00     0.027 C
BRANCH  32  33
HETATM   33  C22 UNL     1      16.828  -3.555   6.816  1.00  0.00     0.229 C
BRANCH  33  34
HETATM   34  N6  UNL     1      15.719  -3.906   6.009  1.00  0.00    -0.079 N
ATOM     35  H63 UNL     1      14.881  -3.447   6.364  1.00  0.00     0.274 HD
ATOM     36  H62 UNL     1      15.807  -3.459   5.096  1.00  0.00     0.274 HD
ATOM     37  H61 UNL     1      15.537  -4.902   5.884  1.00  0.00     0.274 HD
ENDBRANCH  33  34
ENDBRANCH  32  33
ENDBRANCH  31  32
ENDBRANCH  30  31
ENDBRANCH  29  30
ENDBRANCH  24  29
ENDBRANCH  20  22
ENDBRANCH   1  20
TORSDOF 13
ENDMDL