MODEL 3
REMARK VINA RESULT: -8.454196591      1.045      1.661
REMARK  11 active torsions:
REMARK  status: ('A' for Active; 'I' for Inactive)
REMARK    1  A    between atoms: C2_2  and  O1_3
REMARK    2  A    between atoms: C2_2  and  C3_5
REMARK    3  A    between atoms: C2_2  and  C15_26
REMARK    4  A    between atoms: C4_6  and  C5_7
REMARK    5  A    between atoms: C5_7  and  N1_8
REMARK    6  A    between atoms: C9_12  and  C10_13
REMARK    7  A    between atoms: C10_13  and  C11_14
REMARK    8  A    between atoms: C11_14  and  C12_15
REMARK    9  A    between atoms: C12_15  and  N2_16
REMARK   10  A    between atoms: C15_26  and  C16_27
REMARK   11  A    between atoms: C16_27  and  N6_28
ROOT
HETATM    1  C5  UNL     1      18.599  -9.060  11.362  1.00  0.00     0.221 C
ENDROOT
BRANCH   1   2
HETATM    2  C4  UNL     1      18.090 -10.417  11.134  1.00  0.00    -0.083 C
HETATM    3  C3  UNL     1      17.684 -11.539  10.962  1.00  0.00    -0.067 C
BRANCH   3   4
HETATM    4  C2  UNL     1      17.206 -12.914  10.769  1.00  0.00     0.119 C
HETATM    5  C1  UNL     1      16.503 -13.319  12.038  1.00  0.00     0.060 C
BRANCH   4   6
HETATM    6  O1  UNL     1      16.292 -12.927   9.709  1.00  0.00    -0.378 OA
ATOM      7  H1  UNL     1      16.034 -12.036   9.505  1.00  0.00     0.211 HD
ENDBRANCH   4   6
BRANCH   4   8
HETATM    8  C15 UNL     1      18.390 -13.760  10.449  1.00  0.00     0.071 C
BRANCH   8   9
HETATM    9  C16 UNL     1      18.432 -14.223   9.016  1.00  0.00     0.134 C
BRANCH   9  10
HETATM   10  N6  UNL     1      18.377 -15.671   8.978  1.00  0.00    -0.341 N
HETATM   11  C17 UNL     1      19.353 -16.472   9.472  1.00  0.00     0.183 A
HETATM   12  N7  UNL     1      18.961 -17.740   9.262  1.00  0.00    -0.350 N
HETATM   13  C18 UNL     1      17.770 -17.785   8.652  1.00  0.00     0.060 A
ATOM     14  H7  UNL     1      19.500 -18.563   9.533  1.00  0.00     0.166 HD
HETATM   15  C19 UNL     1      16.915 -18.765   8.207  1.00  0.00     0.032 A
HETATM   16  C23 UNL     1      17.395 -16.465   8.469  1.00  0.00     0.062 A
HETATM   17  C20 UNL     1      15.711 -18.465   7.592  1.00  0.00     0.002 A
HETATM   18  C21 UNL     1      15.375 -17.133   7.429  1.00  0.00     0.002 A
HETATM   19  C22 UNL     1      16.204 -16.126   7.860  1.00  0.00     0.032 A
ENDBRANCH   9  10
ENDBRANCH   8   9
ENDBRANCH   4   8
ENDBRANCH   3   4
ENDBRANCH   1   2
BRANCH   1  20
HETATM   20  N1  UNL     1      17.654  -8.216  12.032  1.00  0.00    -0.355 N
HETATM   21  C6  UNL     1      16.810  -8.729  12.935  1.00  0.00     0.091 A
HETATM   22  C7  UNL     1      15.894  -7.941  13.593  1.00  0.00     0.018 A
HETATM   23  C8  UNL     1      15.851  -6.590  13.308  1.00  0.00     0.014 A
HETATM   24  C9  UNL     1      16.700  -6.050  12.392  1.00  0.00    -0.021 A
HETATM   25  C14 UNL     1      17.592  -6.916  11.777  1.00  0.00     0.102 A
BRANCH  24  26
HETATM   26  C10 UNL     1      16.654  -4.665  12.013  1.00  0.00     0.010 C
BRANCH  26  27
HETATM   27  C11 UNL     1      16.971  -4.005  10.965  1.00  0.00    -0.003 C
BRANCH  27  28
HETATM   28  C12 UNL     1      16.199  -3.613   9.799  1.00  0.00     0.198 C
BRANCH  28  29
HETATM   29  N2  UNL     1      16.934  -3.657   8.561  1.00  0.00    -0.212 N
HETATM   30  N3  UNL     1      18.251  -3.741   8.492  1.00  0.00    -0.232 N
HETATM   31  C13 UNL     1      18.564  -3.761   7.192  1.00  0.00     0.355 A
ATOM     32  H3  UNL     1      18.902  -3.783   9.277  1.00  0.00     0.193 HD
HETATM   33  O2  UNL     1      19.722  -3.835   6.676  1.00  0.00    -0.244 OA
HETATM   34  N4  UNL     1      17.450  -3.690   6.467  1.00  0.00    -0.234 N
HETATM   35  N5  UNL     1      16.456  -3.626   7.337  1.00  0.00    -0.222 N
ATOM     36  H4  UNL     1      17.377  -3.686   5.450  1.00  0.00     0.193 HD
ATOM     37  H5  UNL     1      15.468  -3.562   7.094  1.00  0.00     0.210 HD
ENDBRANCH  28  29
ENDBRANCH  27  28
ENDBRANCH  26  27
ENDBRANCH  24  26
ENDBRANCH   1  20
TORSDOF 11
ENDMDL