MODEL 2
REMARK VINA RESULT: -7.926816249      0.624      1.683
REMARK  8 active torsions:
REMARK  status: ('A' for Active; 'I' for Inactive)
REMARK    1  A    between atoms: N2_8  and  C5_10
REMARK    2  A    between atoms: C5_10  and  C6_11
REMARK    3  A    between atoms: C6_11  and  C7_12
REMARK    4  A    between atoms: C7_12  and  N3_13
REMARK    5  A    between atoms: C12_18  and  C13_19
REMARK    6  A    between atoms: C17_25  and  C18_26
REMARK    7  A    between atoms: C18_26  and  C19_27
REMARK    8  A    between atoms: C19_27  and  C20_28
ROOT
HETATM    1  C1  UNL     1      16.109  -4.574  13.941  1.00  0.00     0.032 C
HETATM    2  C2  UNL     1      16.715  -5.454  13.198  1.00  0.00     0.050 A
HETATM    3  C3  UNL     1      17.059  -6.679  13.806  1.00  0.00     0.271 A
HETATM    4  O1  UNL     1      16.778  -6.848  15.031  1.00  0.00    -0.267 OA
HETATM    5  N1  UNL     1      17.665  -7.646  13.118  1.00  0.00    -0.155 N
ATOM      6  H1  UNL     1      17.901  -8.522  13.586  1.00  0.00     0.187 HD
HETATM    7  C4  UNL     1      17.968  -7.487  11.827  1.00  0.00     0.681 A
HETATM    8  N2  UNL     1      18.552  -8.435  11.196  1.00  0.00    -0.226 N
ATOM      9  H2  UNL     1      18.791  -8.328  10.210  1.00  0.00     0.177 HD
HETATM   10  N4  UNL     1      17.647  -6.332  11.251  1.00  0.00    -0.191 N
ATOM     11  H4  UNL     1      17.883  -6.219  10.264  1.00  0.00     0.184 HD
HETATM   12  C17 UNL     1      17.022  -5.274  11.874  1.00  0.00     0.060 A
ENDROOT
BRANCH   8  13
HETATM   13  C5  UNL     1      18.870  -9.657  11.895  1.00  0.00     0.139 C
BRANCH  13  14
HETATM   14  C6  UNL     1      19.183 -10.784  10.934  1.00  0.00     0.040 C
BRANCH  14  15
HETATM   15  C7  UNL     1      17.925 -11.491  10.481  1.00  0.00     0.130 C
BRANCH  15  16
HETATM   16  N3  UNL     1      18.218 -12.846  10.100  1.00  0.00    -0.360 N
HETATM   17  C8  UNL     1      19.509 -13.264  10.134  1.00  0.00     0.091 A
HETATM   18  C9  UNL     1      19.864 -14.548   9.803  1.00  0.00     0.024 A
HETATM   19  C10 UNL     1      18.917 -15.468   9.421  1.00  0.00    -0.052 A
HETATM   20  C11 UNL     1      19.284 -16.843   9.067  1.00  0.00     0.049 C
HETATM   21  C12 UNL     1      17.612 -15.030   9.391  1.00  0.00    -0.030 A
HETATM   22  C15 UNL     1      17.283 -13.719   9.732  1.00  0.00     0.014 A
HETATM   23  C16 UNL     1      15.863 -13.320   9.652  1.00  0.00     0.069 C
BRANCH  21  24
HETATM   24  C13 UNL     1      16.564 -15.980   8.997  1.00  0.00     0.036 C
HETATM   25  C14 UNL     1      16.090 -15.722   7.569  1.00  0.00     0.010 C
ENDBRANCH  21  24
ENDBRANCH  15  16
ENDBRANCH  14  15
ENDBRANCH  13  14
ENDBRANCH   8  13
BRANCH  12  26
HETATM   26  C18 UNL     1      16.819  -4.212  11.174  1.00  0.00     0.010 C
BRANCH  26  27
HETATM   27  C19 UNL     1      16.365  -3.787   9.882  1.00  0.00     0.088 C
BRANCH  27  28
HETATM   28  C20 UNL     1      17.452  -3.678   8.864  1.00  0.00     0.030 A
HETATM   29  C21 UNL     1      18.825  -3.577   9.081  1.00  0.00     0.114 A
HETATM   30  N5  UNL     1      19.470  -3.491   7.908  1.00  0.00    -0.360 N
HETATM   31  C22 UNL     1      18.515  -3.538   6.973  1.00  0.00     0.182 A
ATOM     32  H5  UNL     1      20.476  -3.408   7.760  1.00  0.00     0.166 HD
HETATM   33  N6  UNL     1      17.287  -3.651   7.557  1.00  0.00    -0.349 N
HETATM   34  C23 UNL     1      16.066  -3.718   6.770  1.00  0.00     0.156 C
ENDBRANCH  27  28
ENDBRANCH  26  27
ENDBRANCH  12  26
TORSDOF 8
ENDMDL