MODEL 2
REMARK VINA RESULT: -8.454691982      1.744      2.400
REMARK  12 active torsions:
REMARK  status: ('A' for Active; 'I' for Inactive)
REMARK    1  A    between atoms: C3_3  and  C4_4
REMARK    2  A    between atoms: C4_4  and  C5_5
REMARK    3  A    between atoms: C5_5  and  C6_6
REMARK    4  A    between atoms: C6_6  and  C7_7
REMARK    5  A    between atoms: C8_8  and  C9_9
REMARK    6  A    between atoms: C9_9  and  C10_10
REMARK    7  A    between atoms: C10_10  and  C11_11
REMARK    8  A    between atoms: C11_11  and  N1_12
REMARK    9  A    between atoms: C15_16  and  C16_17
REMARK   10  A    between atoms: C16_17  and  O1_18
REMARK   11  A    between atoms: N2_20  and  N3_22
REMARK   12  A    between atoms: C21_32  and  O2_33
ROOT
HETATM    1  C7  UNL     1      16.718  -9.523  13.668  1.00  0.00    -0.107 C
HETATM    2  C8  UNL     1      16.915  -8.337  13.591  1.00  0.00    -0.107 C
ENDROOT
BRANCH   1   3
HETATM    3  C6  UNL     1      16.499 -10.998  13.766  1.00  0.00     0.094 C
BRANCH   3   4
HETATM    4  C5  UNL     1      17.463 -11.647  12.839  1.00  0.00     0.017 C
BRANCH   4   5
HETATM    5  C4  UNL     1      17.269 -11.467  11.391  1.00  0.00     0.041 C
BRANCH   5   6
HETATM    6  C3  UNL     1      18.134 -12.200  10.474  1.00  0.00    -0.033 C
HETATM    7  C2  UNL     1      17.577 -13.240   9.876  1.00  0.00    -0.011 C
HETATM    8  C1  UNL     1      16.183 -13.500  10.220  1.00  0.00     0.052 C
HETATM    9  C22 UNL     1      18.207 -14.168   8.906  1.00  0.00     0.106 C
HETATM   10  N6  UNL     1      19.594 -14.387   8.678  1.00  0.00    -0.327 N
HETATM   11  N7  UNL     1      17.386 -14.854   8.190  1.00  0.00    -0.385 N
HETATM   12  C20 UNL     1      20.664 -13.595   9.176  1.00  0.00     0.130 C
ATOM     13  H6  UNL     1      19.845 -15.190   8.101  1.00  0.00     0.169 HD
HETATM   14  N5  UNL     1      20.556 -12.276   9.744  1.00  0.00    -0.345 N
HETATM   15  C21 UNL     1      21.870 -14.123   9.107  1.00  0.00     0.179 C
HETATM   16  C18 UNL     1      19.510 -11.731  10.265  1.00  0.00     0.100 C
HETATM   17  C19 UNL     1      21.777 -11.493   9.707  1.00  0.00     0.157 C
ATOM     18  H72 UNL     1      16.391 -14.697   8.354  1.00  0.00     0.157 HD
ATOM     19  H71 UNL     1      17.819 -15.492   7.523  1.00  0.00     0.157 HD
BRANCH  15  20
HETATM   20  O2  UNL     1      22.060 -15.386   8.575  1.00  0.00    -0.369 OA
ATOM     21  H2  UNL     1      22.635 -15.518   7.830  1.00  0.00     0.216 HD
ENDBRANCH  15  20
ENDBRANCH   5   6
ENDBRANCH   4   5
ENDBRANCH   3   4
ENDBRANCH   1   3
BRANCH   2  22
HETATM   22  C9  UNL     1      17.184  -6.884  13.502  1.00  0.00     0.095 C
BRANCH  22  23
HETATM   23  C10 UNL     1      16.856  -6.357  12.134  1.00  0.00     0.032 C
BRANCH  23  24
HETATM   24  C11 UNL     1      18.055  -5.926  11.353  1.00  0.00     0.128 C
BRANCH  24  25
HETATM   25  N1  UNL     1      17.730  -4.902  10.411  1.00  0.00    -0.365 N
HETATM   26  C12 UNL     1      16.722  -4.051  10.673  1.00  0.00     0.090 A
HETATM   27  C13 UNL     1      16.421  -3.074   9.749  1.00  0.00     0.018 A
HETATM   28  C14 UNL     1      17.117  -2.945   8.576  1.00  0.00     0.018 A
HETATM   29  C15 UNL     1      18.138  -3.808   8.315  1.00  0.00     0.032 A
HETATM   30  C17 UNL     1      18.415  -4.778   9.263  1.00  0.00     0.106 A
BRANCH  29  31
HETATM   31  C16 UNL     1      18.936  -3.744   7.088  1.00  0.00     0.167 C
HETATM   32  N2  UNL     1      20.006  -4.439   7.007  1.00  0.00    -0.265 N
ATOM     33  H2  UNL     1      20.288  -5.025   7.793  1.00  0.00     0.190 HD
BRANCH  31  34
HETATM   34  O1  UNL     1      18.536  -2.946   6.040  1.00  0.00    -0.344 OA
ATOM     35  H1  UNL     1      17.821  -3.217   5.475  1.00  0.00     0.219 HD
ENDBRANCH  31  34
BRANCH  32  36
HETATM   36  N3  UNL     1      20.796  -4.408   5.854  1.00  0.00    -0.247 N
HETATM   37  N4  UNL     1      21.778  -5.188   5.669  1.00  0.00    -0.331 N
ATOM     38  H42 UNL     1      21.988  -5.863   6.404  1.00  0.00     0.178 HD
ATOM     39  H41 UNL     1      22.354  -5.165   4.828  1.00  0.00     0.178 HD
ATOM     40  H3  UNL     1      20.572  -3.727   5.129  1.00  0.00     0.207 HD
ENDBRANCH  32  36
ENDBRANCH  29  31
ENDBRANCH  24  25
ENDBRANCH  23  24
ENDBRANCH  22  23
ENDBRANCH   2  22
TORSDOF 12
ENDMDL