MODEL 3
REMARK VINA RESULT: -5.161702281      2.443      7.235
REMARK  12 active torsions:
REMARK  status: ('A' for Active; 'I' for Inactive)
REMARK    1  A    between atoms: C3_3  and  N1_4
REMARK    2  A    between atoms: C6_9  and  C7_10
REMARK    3  A    between atoms: C8_11  and  C9_12
REMARK    4  A    between atoms: C9_12  and  N3_13
REMARK    5  A    between atoms: C12_16  and  C13_17
REMARK    6  A    between atoms: C12_16  and  N6_22
REMARK    7  A    between atoms: N7_27  and  C19_29
REMARK    8  A    between atoms: C19_29  and  C20_30
REMARK    9  A    between atoms: C20_30  and  C21_31
REMARK   10  A    between atoms: C21_31  and  C22_32
REMARK   11  A    between atoms: C22_32  and  C23_33
REMARK   12  A    between atoms: C23_33  and  N8_34
ROOT
HETATM    1  C1  UNL     1      19.204 -17.282  12.684  1.00  0.00     0.113 C
HETATM    2  C2  UNL     1      18.390 -17.156  11.454  1.00  0.00    -0.087 C
HETATM    3  C3  UNL     1      17.718 -17.066  10.454  1.00  0.00     0.019 C
ENDROOT
BRANCH   3   4
HETATM    4  N1  UNL     1      16.926 -16.959   9.307  1.00  0.00    -0.257 N
HETATM    5  C4  UNL     1      16.456 -17.942   8.503  1.00  0.00     0.198 A
HETATM    6  N2  UNL     1      15.731 -17.410   7.506  1.00  0.00    -0.358 N
HETATM    7  C5  UNL     1      15.731 -16.074   7.661  1.00  0.00     0.129 A
ATOM      8  H2  UNL     1      15.264 -17.928   6.762  1.00  0.00     0.166 HD
HETATM    9  C6  UNL     1      16.486 -15.797   8.797  1.00  0.00     0.117 A
BRANCH   9  10
HETATM   10  C7  UNL     1      16.768 -14.502   9.363  1.00  0.00    -0.044 C
HETATM   11  C8  UNL     1      17.019 -13.420   9.836  1.00  0.00    -0.069 C
BRANCH  11  12
HETATM   12  C9  UNL     1      17.310 -12.093  10.437  1.00  0.00     0.365 C
BRANCH  12  13
HETATM   13  N3  UNL     1      18.590 -12.106  11.117  1.00  0.00     0.097 N
HETATM   14  C10 UNL     1      18.486 -13.184  12.106  1.00  0.00     0.311 C
HETATM   15  C11 UNL     1      19.559 -12.435  10.094  1.00  0.00     0.322 C
HETATM   16  C12 UNL     1      20.984 -12.394  10.510  1.00  0.00     0.240 C
HETATM   17  C16 UNL     1      21.217 -11.685  11.795  1.00  0.00     0.081 C
HETATM   18  C17 UNL     1      20.167 -10.760  12.267  1.00  0.00     0.275 C
HETATM   19  N7  UNL     1      18.832 -10.930  11.784  1.00  0.00     0.085 N
HETATM   20  C18 UNL     1      18.441  -9.803  10.934  1.00  0.00     0.309 C
BRANCH  16  21
HETATM   21  C13 UNL     1      21.860 -11.811   9.456  1.00  0.00     0.128 C
HETATM   22  N4  UNL     1      23.110 -11.557   9.620  1.00  0.00    -0.389 N
ATOM     23  H42 UNL     1      23.500 -11.777  10.536  1.00  0.00     0.157 HD
ATOM     24  H41 UNL     1      23.710 -11.158   8.897  1.00  0.00     0.157 HD
HETATM   25  N5  UNL     1      21.316 -11.504   8.178  1.00  0.00    -0.085 NA
ENDBRANCH  16  21
BRANCH  16  26
HETATM   26  N6  UNL     1      21.404 -13.803  10.625  1.00  0.00     0.098 N
HETATM   27  C14 UNL     1      20.604 -14.681   9.827  1.00  0.00     0.310 C
HETATM   28  C15 UNL     1      21.555 -14.224  11.978  1.00  0.00     0.310 C
ENDBRANCH  16  26
BRANCH  19  29
HETATM   29  C19 UNL     1      17.956 -10.853  12.951  1.00  0.00     0.272 C
BRANCH  29  30
HETATM   30  C20 UNL     1      17.362  -9.461  12.996  1.00  0.00     0.030 C
BRANCH  30  31
HETATM   31  C21 UNL     1      16.085  -9.454  13.839  1.00  0.00     0.003 C
BRANCH  31  32
HETATM   32  C22 UNL     1      15.213  -8.290  13.484  1.00  0.00     0.027 C
BRANCH  32  33
HETATM   33  C23 UNL     1      15.905  -6.957  13.587  1.00  0.00     0.229 C
BRANCH  33  34
HETATM   34  N8  UNL     1      15.873  -6.197  12.373  1.00  0.00    -0.079 N
ATOM     35  H83 UNL     1      16.300  -6.720  11.608  1.00  0.00     0.274 HD
ATOM     36  H82 UNL     1      14.919  -6.125  12.018  1.00  0.00     0.274 HD
ATOM     37  H81 UNL     1      16.295  -5.272  12.457  1.00  0.00     0.274 HD
ENDBRANCH  33  34
ENDBRANCH  32  33
ENDBRANCH  31  32
ENDBRANCH  30  31
ENDBRANCH  29  30
ENDBRANCH  19  29
ENDBRANCH  12  13
ENDBRANCH  11  12
ENDBRANCH   9  10
ENDBRANCH   3   4
TORSDOF 12
ENDMDL