MODEL 3
REMARK VINA RESULT: -7.380955390      1.382      1.978
REMARK  11 active torsions:
REMARK  status: ('A' for Active; 'I' for Inactive)
REMARK    1  A    between atoms: C4_5  and  C5_6
REMARK       I    between atoms: C5_6  and  N1_8
REMARK    2  A    between atoms: N1_8  and  C6_10
REMARK    3  A    between atoms: C8_13  and  C9_14
REMARK    4  A    between atoms: C9_14  and  O3_15
REMARK    5  A    between atoms: C10_17  and  O4_18
REMARK    6  A    between atoms: C11_20  and  O5_21
REMARK    7  A    between atoms: C12_23  and  C13_24
REMARK    8  A    between atoms: C13_24  and  S2_25
REMARK    9  A    between atoms: S2_25  and  C14_26
REMARK   10  A    between atoms: C17_33  and  C18_34
REMARK   11  A    between atoms: C18_34  and  N3_35
ROOT
HETATM    1  C1  UNL     1      57.724  15.665  16.075  1.00  0.00     0.027 C
HETATM    2  C2  UNL     1      57.941  17.072  15.588  1.00  0.00     0.007 C
HETATM    3  C3  UNL     1      56.757  17.663  14.906  1.00  0.00     0.027 C
HETATM    4  S1  UNL     1      58.468  18.071  17.039  1.00  0.00    -0.144 SA
HETATM    5  C4  UNL     1      59.796  19.045  16.208  1.00  0.00     0.145 C
HETATM    6  C12 UNL     1      59.513  18.666  14.781  1.00  0.00     0.025 C
HETATM    7  C17 UNL     1      59.221  17.188  14.750  1.00  0.00     0.035 C
ENDROOT
BRANCH   5   8
HETATM    8  C5  UNL     1      59.649  20.470  16.501  1.00  0.00     0.232 C
HETATM    9  O1  UNL     1      58.510  20.987  16.509  1.00  0.00    -0.272 OA
HETATM   10  N1  UNL     1      60.760  21.306  16.780  1.00  0.00    -0.351 N
ATOM     11  H1  UNL     1      61.696  20.903  16.778  1.00  0.00     0.163 HD
BRANCH  10  12
HETATM   12  C6  UNL     1      60.600  22.733  17.073  1.00  0.00     0.139 C
HETATM   13  C7  UNL     1      61.817  23.153  17.847  1.00  0.00     0.196 C
HETATM   14  O2  UNL     1      61.791  24.457  18.274  1.00  0.00    -0.379 OA
HETATM   15  C8  UNL     1      61.275  25.360  17.380  1.00  0.00     0.176 C
HETATM   16  C10 UNL     1      61.155  24.869  15.982  1.00  0.00     0.180 C
HETATM   17  C11 UNL     1      60.525  23.534  15.819  1.00  0.00     0.174 C
BRANCH  15  18
HETATM   18  C9  UNL     1      59.957  25.964  17.889  1.00  0.00     0.198 C
BRANCH  18  19
HETATM   19  O3  UNL     1      59.456  26.886  16.986  1.00  0.00    -0.398 OA
ATOM     20  H3  UNL     1      59.260  26.472  16.153  1.00  0.00     0.209 HD
ENDBRANCH  18  19
ENDBRANCH  15  18
BRANCH  16  21
HETATM   21  O4  UNL     1      62.412  24.916  15.336  1.00  0.00    -0.390 OA
ATOM     22  H4  UNL     1      62.917  24.139  15.542  1.00  0.00     0.210 HD
ENDBRANCH  16  21
BRANCH  17  23
HETATM   23  O5  UNL     1      61.179  22.846  14.807  1.00  0.00    -0.391 OA
ATOM     24  H5  UNL     1      61.277  23.422  14.058  1.00  0.00     0.210 HD
ENDBRANCH  17  23
ENDBRANCH  10  12
ENDBRANCH   5   8
BRANCH   6  25
HETATM   25  C13 UNL     1      60.574  19.067  13.804  1.00  0.00     0.085 C
BRANCH  25  26
HETATM   26  S2  UNL     1      60.120  18.358  12.174  1.00  0.00    -0.109 SA
BRANCH  26  27
HETATM   27  C14 UNL     1      59.808  19.709  11.008  1.00  0.00     0.385 C
HETATM   28  N2  UNL     1      60.053  19.333   9.652  1.00  0.00    -0.037 N
HETATM   29  C15 UNL     1      61.418  19.677   9.362  1.00  0.00     0.262 C
ATOM     30  H22 UNL     1      59.837  18.354   9.462  1.00  0.00     0.281 HD
ATOM     31  H21 UNL     1      59.388  19.742   8.996  1.00  0.00     0.281 HD
HETATM   32  C16 UNL     1      61.732  20.692  10.435  1.00  0.00     0.199 C
HETATM   33  O6  UNL     1      60.610  20.802  11.230  1.00  0.00    -0.350 OA
ENDBRANCH  26  27
ENDBRANCH  25  26
ENDBRANCH   6  25
BRANCH   7  34
HETATM   34  C18 UNL     1      60.239  16.340  15.439  1.00  0.00     0.236 C
BRANCH  34  35
HETATM   35  N3  UNL     1      60.112  14.933  15.251  1.00  0.00    -0.079 N
ATOM     36  H33 UNL     1      60.542  14.439  16.034  1.00  0.00     0.274 HD
ATOM     37  H32 UNL     1      59.138  14.655  15.371  1.00  0.00     0.274 HD
ATOM     38  H31 UNL     1      60.471  14.565  14.370  1.00  0.00     0.274 HD
ENDBRANCH  34  35
ENDBRANCH   7  34
TORSDOF 11
ENDMDL