MODEL 3
REMARK VINA RESULT: -3.753259137      0.987      1.675
REMARK  13 active torsions:
REMARK  status: ('A' for Active; 'I' for Inactive)
REMARK    1  A    between atoms: O1_2  and  C2_3
REMARK    2  A    between atoms: C3_4  and  C4_5
REMARK    3  A    between atoms: C4_5  and  O2_6
REMARK    4  A    between atoms: C11_14  and  C13_16
REMARK    5  A    between atoms: C13_16  and  O3_17
REMARK    6  A    between atoms: C14_19  and  O4_20
REMARK    7  A    between atoms: O4_20  and  C15_21
REMARK    8  A    between atoms: C16_23  and  C17_24
REMARK    9  A    between atoms: C17_24  and  O6_25
REMARK   10  A    between atoms: C18_27  and  O7_28
REMARK   11  A    between atoms: C19_30  and  O8_31
REMARK   12  A    between atoms: C20_33  and  O9_34
REMARK   13  A    between atoms: C21_36  and  O10_37
ROOT
HETATM    1  C2  UNL     1      60.696  20.677  12.971  1.00  0.00     0.159 C
HETATM    2  C3  UNL     1      60.685  19.200  13.300  1.00  0.00     0.046 C
HETATM    3  C5  UNL     1      59.904  18.805  14.492  1.00  0.00     0.003 C
HETATM    4  C6  UNL     1      58.744  17.880  14.199  1.00  0.00    -0.014 C
HETATM    5  C7  UNL     1      59.161  16.406  14.324  1.00  0.00     0.010 C
HETATM    6  C8  UNL     1      57.770  18.113  15.325  1.00  0.00     0.005 C
HETATM    7  C9  UNL     1      58.443  19.117  16.278  1.00  0.00     0.006 C
HETATM    8  C10 UNL     1      59.311  19.875  15.321  1.00  0.00     0.003 C
HETATM    9  C11 UNL     1      60.300  20.728  16.051  1.00  0.00     0.010 C
HETATM   10  C12 UNL     1      59.603  21.264  17.278  1.00  0.00     0.020 C
HETATM   11  C14 UNL     1      60.819  21.866  15.200  1.00  0.00     0.166 C
HETATM   12  C21 UNL     1      61.555  21.389  13.988  1.00  0.00     0.180 C
ENDROOT
BRANCH  11  13
HETATM   13  O4  UNL     1      61.672  22.583  15.989  1.00  0.00    -0.350 OA
BRANCH  13  14
HETATM   14  C15 UNL     1      61.135  23.579  16.753  1.00  0.00     0.292 C
HETATM   15  O5  UNL     1      60.701  24.571  15.933  1.00  0.00    -0.348 OA
HETATM   16  C16 UNL     1      61.500  25.613  15.662  1.00  0.00     0.179 C
HETATM   17  C18 UNL     1      61.942  26.353  16.872  1.00  0.00     0.180 C
HETATM   18  C19 UNL     1      61.409  25.575  18.086  1.00  0.00     0.183 C
HETATM   19  C20 UNL     1      61.877  24.115  17.904  1.00  0.00     0.204 C
BRANCH  16  20
HETATM   20  C17 UNL     1      62.603  25.290  14.681  1.00  0.00     0.198 C
BRANCH  20  21
HETATM   21  O6  UNL     1      63.686  26.137  14.929  1.00  0.00    -0.398 OA
ATOM     22  H6  UNL     1      64.490  25.637  14.845  1.00  0.00     0.209 HD
ENDBRANCH  20  21
ENDBRANCH  16  20
BRANCH  17  23
HETATM   23  O7  UNL     1      61.386  27.615  16.916  1.00  0.00    -0.390 OA
ATOM     24  H7  UNL     1      62.001  28.249  17.265  1.00  0.00     0.210 HD
ENDBRANCH  17  23
BRANCH  18  25
HETATM   25  O8  UNL     1      60.042  25.684  18.079  1.00  0.00    -0.390 OA
ATOM     26  H8  UNL     1      59.693  24.869  17.736  1.00  0.00     0.210 HD
ENDBRANCH  18  25
BRANCH  19  27
HETATM   27  O9  UNL     1      63.241  24.242  17.674  1.00  0.00    -0.388 OA
ATOM     28  H9  UNL     1      63.606  25.058  17.995  1.00  0.00     0.210 HD
ENDBRANCH  19  27
ENDBRANCH  13  14
ENDBRANCH  11  13
BRANCH   9  29
HETATM   29  C13 UNL     1      61.461  19.916  16.586  1.00  0.00     0.176 C
BRANCH  29  30
HETATM   30  O3  UNL     1      62.020  20.528  17.706  1.00  0.00    -0.400 OA
ATOM     31  H3  UNL     1      61.363  21.016  18.189  1.00  0.00     0.209 HD
ENDBRANCH  29  30
ENDBRANCH   9  29
BRANCH  12  32
HETATM   32  O10 UNL     1      62.208  22.393  13.338  1.00  0.00    -0.385 OA
HETATM   33  C22 UNL     1      62.234  22.276  11.960  1.00  0.00     0.202 C
ENDBRANCH  12  32
BRANCH   1  34
HETATM   34  O1  UNL     1      59.519  21.246  12.657  1.00  0.00    -0.388 OA
HETATM   35  C1  UNL     1      59.427  21.891  11.455  1.00  0.00     0.202 C
ENDBRANCH   1  34
BRANCH   2  36
HETATM   36  C4  UNL     1      60.407  18.370  12.051  1.00  0.00     0.171 C
BRANCH  36  37
HETATM   37  O2  UNL     1      61.110  19.029  11.010  1.00  0.00    -0.400 OA
ATOM     38  H2  UNL     1      61.354  18.339  10.405  1.00  0.00     0.209 HD
ENDBRANCH  36  37
ENDBRANCH   2  36
TORSDOF 13
ENDMDL