MODEL 1
REMARK VINA RESULT: -8.445855118      0.000      0.000
REMARK  12 active torsions:
REMARK  status: ('A' for Active; 'I' for Inactive)
REMARK    1  A    between atoms: O1_2  and  C2_3
REMARK    2  A    between atoms: C3_4  and  C4_5
REMARK    3  A    between atoms: C4_5  and  C5_6
REMARK    4  A    between atoms: C7_11  and  O5_12
REMARK    5  A    between atoms: O5_12  and  C8_13
REMARK    6  A    between atoms: C11_16  and  N1_17
REMARK    7  A    between atoms: C12_21  and  O6_22
REMARK    8  A    between atoms: C13_24  and  O7_25
REMARK    9  A    between atoms: C14_27  and  O8_28
REMARK   10  A    between atoms: O8_28  and  C15_29
REMARK   11  A    between atoms: C18_32  and  O9_34
REMARK   12  A    between atoms: C21_37  and  O10_38
ROOT
HETATM    1  C2  UNL     1      61.782  22.860  16.408  1.00  0.00     0.181 C
HETATM    2  C3  UNL     1      62.042  22.033  17.627  1.00  0.00     0.163 C
HETATM    3  O4  UNL     1      61.445  20.793  17.591  1.00  0.00    -0.380 OA
HETATM    4  C6  UNL     1      60.094  20.786  17.335  1.00  0.00     0.203 C
HETATM    5  C7  UNL     1      59.900  20.357  15.874  1.00  0.00     0.177 C
HETATM    6  C14 UNL     1      60.164  21.564  15.042  1.00  0.00     0.184 C
HETATM    7  C21 UNL     1      61.628  21.960  15.166  1.00  0.00     0.181 C
ENDROOT
BRANCH   5   8
HETATM    8  O5  UNL     1      58.617  19.887  15.673  1.00  0.00    -0.373 OA
BRANCH   8   9
HETATM    9  C8  UNL     1      58.360  18.661  16.296  1.00  0.00     0.153 C
HETATM   10  C9  UNL     1      56.893  18.368  15.974  1.00  0.00     0.037 C
HETATM   11  C10 UNL     1      56.489  17.112  16.697  1.00  0.00     0.038 C
HETATM   12  C11 UNL     1      57.323  15.941  16.215  1.00  0.00     0.214 C
HETATM   13  C12 UNL     1      58.805  16.243  16.317  1.00  0.00     0.179 C
HETATM   14  C13 UNL     1      59.162  17.546  15.672  1.00  0.00     0.177 C
BRANCH  12  15
HETATM   15  N1  UNL     1      56.908  15.548  14.895  1.00  0.00    -0.072 N
ATOM     16  H13 UNL     1      57.163  16.241  14.192  1.00  0.00     0.274 HD
ATOM     17  H12 UNL     1      57.457  14.766  14.539  1.00  0.00     0.274 HD
ATOM     18  H11 UNL     1      55.907  15.346  14.888  1.00  0.00     0.274 HD
ENDBRANCH  12  15
BRANCH  13  19
HETATM   19  O6  UNL     1      59.275  16.146  17.597  1.00  0.00    -0.391 OA
ATOM     20  H6  UNL     1      60.196  16.370  17.666  1.00  0.00     0.210 HD
ENDBRANCH  13  19
BRANCH  14  21
HETATM   21  O7  UNL     1      58.999  17.526  14.288  1.00  0.00    -0.390 OA
ATOM     22  H7  UNL     1      58.085  17.634  14.051  1.00  0.00     0.210 HD
ENDBRANCH  14  21
ENDBRANCH   8   9
ENDBRANCH   5   8
BRANCH   6  23
HETATM   23  O8  UNL     1      59.770  21.504  13.716  1.00  0.00    -0.375 OA
BRANCH  23  24
HETATM   24  C15 UNL     1      60.848  21.395  12.844  1.00  0.00     0.125 C
HETATM   25  C16 UNL     1      60.892  22.402  11.754  1.00  0.00     0.035 C
HETATM   26  C17 UNL     1      61.499  21.679  10.571  1.00  0.00     0.040 C
HETATM   27  C18 UNL     1      60.902  20.318  10.658  1.00  0.00     0.057 C
HETATM   28  C19 UNL     1      61.886  19.314  10.081  1.00  0.00     0.045 C
HETATM   29  C20 UNL     1      60.620  20.066  12.098  1.00  0.00     0.069 C
BRANCH  27  30
HETATM   30  O9  UNL     1      59.768  20.261   9.848  1.00  0.00    -0.390 OA
ATOM     31  H9  UNL     1      60.032  20.306   8.936  1.00  0.00     0.210 HD
ENDBRANCH  27  30
ENDBRANCH  23  24
ENDBRANCH   6  23
BRANCH   7  32
HETATM   32  O10 UNL     1      62.387  20.823  15.426  1.00  0.00    -0.390 OA
ATOM     33  H10 UNL     1      61.820  20.085  15.234  1.00  0.00     0.210 HD
ENDBRANCH   7  32
BRANCH   2  34
HETATM   34  C4  UNL     1      61.652  22.746  18.905  1.00  0.00     0.147 C
BRANCH  34  35
HETATM   35  C5  UNL     1      62.567  23.899  19.061  1.00  0.00     0.175 C
HETATM   36  O2  UNL     1      63.822  23.825  18.987  1.00  0.00    -0.648 OA
HETATM   37  O3  UNL     1      61.992  25.160  19.304  1.00  0.00    -0.648 OA
ENDBRANCH  34  35
ENDBRANCH   2  34
BRANCH   1  38
HETATM   38  O1  UNL     1      60.696  23.706  16.528  1.00  0.00    -0.385 OA
HETATM   39  C1  UNL     1      60.942  25.009  16.160  1.00  0.00     0.202 C
ENDBRANCH   1  38
TORSDOF 12
ENDMDL