MODEL 2
REMARK VINA RESULT: -7.189292323      1.225      1.710
REMARK  11 active torsions:
REMARK  status: ('A' for Active; 'I' for Inactive)
REMARK    1  A    between atoms: C2_2  and  N1_3
REMARK    2  A    between atoms: N1_3  and  C3_4
REMARK       I    between atoms: N1_3  and  C5_6
REMARK       I    between atoms: C5_6  and  N2_8
REMARK    3  A    between atoms: N2_8  and  C6_10
REMARK    4  A    between atoms: C7_11  and  O2_12
REMARK    5  A    between atoms: C9_16  and  O3_17
REMARK    6  A    between atoms: C11_19  and  N3_20
REMARK    7  A    between atoms: C12_24  and  O4_25
REMARK    8  A    between atoms: O4_25  and  C13_26
REMARK    9  A    between atoms: C15_29  and  O5_30
REMARK   10  A    between atoms: C16_32  and  O6_33
REMARK   11  A    between atoms: C17_35  and  O7_36
ROOT
HETATM    1  C6  UNL     1      60.424  18.987  16.229  1.00  0.00     0.147 C
HETATM    2  C7  UNL     1      59.762  18.197  17.305  1.00  0.00     0.160 C
HETATM    3  C8  UNL     1      59.153  16.896  16.935  1.00  0.00     0.120 C
HETATM    4  S1  UNL     1      57.377  17.078  16.700  1.00  0.00    -0.087 SA
HETATM    5  C9  UNL     1      59.860  16.361  15.714  1.00  0.00     0.171 C
HETATM    6  C11 UNL     1      59.598  17.279  14.524  1.00  0.00     0.244 C
HETATM    7  C12 UNL     1      59.934  18.717  14.851  1.00  0.00     0.181 C
ENDROOT
BRANCH   7   8
HETATM    8  O4  UNL     1      60.943  19.150  13.924  1.00  0.00    -0.363 OA
BRANCH   8   9
HETATM    9  C13 UNL     1      60.483  20.073  13.035  1.00  0.00     0.214 C
HETATM   10  S2  UNL     1      61.137  21.746  13.374  1.00  0.00    -0.132 SA
HETATM   11  C14 UNL     1      61.812  22.343  11.789  1.00  0.00     0.111 C
HETATM   12  C15 UNL     1      60.870  22.049  10.649  1.00  0.00     0.159 C
HETATM   13  C16 UNL     1      60.283  20.680  10.683  1.00  0.00     0.179 C
HETATM   14  C17 UNL     1      60.991  19.734  11.650  1.00  0.00     0.188 C
BRANCH  12  15
HETATM   15  O5  UNL     1      59.821  22.982  10.614  1.00  0.00    -0.392 OA
ATOM     16  H5  UNL     1      59.303  22.879   9.824  1.00  0.00     0.210 HD
ENDBRANCH  12  15
BRANCH  13  17
HETATM   17  O6  UNL     1      60.356  20.110   9.401  1.00  0.00    -0.390 OA
ATOM     18  H6  UNL     1      59.678  20.483   8.851  1.00  0.00     0.210 HD
ENDBRANCH  13  17
BRANCH  14  19
HETATM   19  O7  UNL     1      60.708  18.429  11.308  1.00  0.00    -0.389 OA
ATOM     20  H7  UNL     1      60.288  18.372  10.458  1.00  0.00     0.210 HD
ENDBRANCH  14  19
ENDBRANCH   8   9
ENDBRANCH   7   8
BRANCH   1  21
HETATM   21  N2  UNL     1      60.343  20.394  16.528  1.00  0.00    -0.333 N
HETATM   22  C5  UNL     1      61.318  21.286  16.947  1.00  0.00     0.318 C
HETATM   23  N1  UNL     1      61.077  22.660  17.209  1.00  0.00    -0.335 N
HETATM   24  O1  UNL     1      62.513  20.910  17.122  1.00  0.00    -0.247 OA
ATOM     25  H2  UNL     1      59.414  20.800  16.414  1.00  0.00     0.164 HD
BRANCH  23  26
HETATM   26  C2  UNL     1      59.755  23.194  17.076  1.00  0.00     0.123 C
HETATM   27  C1  UNL     1      59.761  24.718  16.987  1.00  0.00     0.026 C
ENDBRANCH  23  26
BRANCH  23  28
HETATM   28  C3  UNL     1      62.197  23.526  17.616  1.00  0.00     0.123 C
HETATM   29  C4  UNL     1      62.469  23.460  19.089  1.00  0.00     0.026 C
ENDBRANCH  23  28
ENDBRANCH   1  21
BRANCH   6  30
HETATM   30  N3  UNL     1      58.210  17.237  14.117  1.00  0.00    -0.070 N
ATOM     31  H33 UNL     1      58.119  17.051  13.118  1.00  0.00     0.274 HD
ATOM     32  H32 UNL     1      57.741  16.404  14.475  1.00  0.00     0.274 HD
ATOM     33  H31 UNL     1      57.715  18.087  14.384  1.00  0.00     0.274 HD
ENDBRANCH   6  30
BRANCH   2  34
HETATM   34  O2  UNL     1      58.891  19.035  18.000  1.00  0.00    -0.392 OA
ATOM     35  H2  UNL     1      58.037  18.996  17.585  1.00  0.00     0.210 HD
ENDBRANCH   2  34
BRANCH   5  36
HETATM   36  O3  UNL     1      59.712  15.055  15.456  1.00  0.00    -0.387 OA
HETATM   37  C10 UNL     1      58.566  14.422  15.849  1.00  0.00     0.202 C
ENDBRANCH   5  36
TORSDOF 11
ENDMDL