MODEL 1
REMARK VINA RESULT: -8.680632773      0.000      0.000
REMARK  13 active torsions:
REMARK  status: ('A' for Active; 'I' for Inactive)
REMARK    1  A    between atoms: C2_2  and  C3_3
REMARK    2  A    between atoms: C3_3  and  C4_4
REMARK    3  A    between atoms: C6_7  and  O2_8
REMARK    4  A    between atoms: O2_8  and  C7_9
REMARK    5  A    between atoms: C9_11  and  C11_13
REMARK    6  A    between atoms: C13_15  and  O3_16
REMARK    7  A    between atoms: O3_16  and  C14_17
REMARK    8  A    between atoms: C16_20  and  O5_21
REMARK    9  A    between atoms: C17_23  and  O6_24
REMARK   10  A    between atoms: C18_26  and  O7_27
REMARK   11  A    between atoms: C19_29  and  O8_30
REMARK   12  A    between atoms: C20_32  and  O9_33
REMARK   13  A    between atoms: C22_36  and  N1_37
ROOT
HETATM    1  C7  UNL     1      59.785  18.149  16.748  1.00  0.00     0.157 C
HETATM    2  C8  UNL     1      58.352  18.468  16.818  1.00  0.00     0.050 C
HETATM    3  C9  UNL     1      57.368  17.466  16.306  1.00  0.00     0.004 C
HETATM    4  C10 UNL     1      56.159  17.364  17.250  1.00  0.00     0.022 C
HETATM    5  C13 UNL     1      57.871  16.096  16.094  1.00  0.00     0.168 C
HETATM    6  C19 UNL     1      59.073  15.750  16.949  1.00  0.00     0.179 C
HETATM    7  C20 UNL     1      60.198  16.726  16.778  1.00  0.00     0.178 C
ENDROOT
BRANCH   1   8
HETATM    8  O2  UNL     1      60.343  18.783  15.639  1.00  0.00    -0.353 OA
BRANCH   8   9
HETATM    9  C6  UNL     1      60.396  20.160  15.760  1.00  0.00     0.262 C
HETATM   10  O1  UNL     1      61.022  20.586  16.903  1.00  0.00    -0.361 OA
HETATM   11  C5  UNL     1      61.485  21.874  16.864  1.00  0.00     0.177 C
HETATM   12  C4  UNL     1      60.594  22.801  16.031  1.00  0.00     0.043 C
HETATM   13  C22 UNL     1      60.572  22.297  14.600  1.00  0.00     0.194 C
HETATM   14  C21 UNL     1      61.050  20.826  14.571  1.00  0.00     0.094 C
BRANCH  12  15
HETATM   15  C3  UNL     1      61.196  24.155  16.127  1.00  0.00     0.035 C
BRANCH  15  16
HETATM   16  C2  UNL     1      62.117  24.426  17.217  1.00  0.00    -0.036 C
HETATM   17  C1  UNL     1      63.049  25.348  17.235  1.00  0.00     0.007 C
ENDBRANCH  15  16
ENDBRANCH  12  15
BRANCH  13  18
HETATM   18  N1  UNL     1      61.395  23.081  13.723  1.00  0.00    -0.074 N
ATOM     19  H13 UNL     1      61.308  24.075  13.932  1.00  0.00     0.274 HD
ATOM     20  H12 UNL     1      62.384  22.953  13.939  1.00  0.00     0.274 HD
ATOM     21  H11 UNL     1      61.209  22.896  12.737  1.00  0.00     0.274 HD
ENDBRANCH  13  18
ENDBRANCH   8   9
ENDBRANCH   1   8
BRANCH   7  22
HETATM   22  O9  UNL     1      61.202  16.450  17.735  1.00  0.00    -0.390 OA
ATOM     23  H9  UNL     1      61.400  15.525  17.821  1.00  0.00     0.210 HD
ENDBRANCH   7  22
BRANCH   3  24
HETATM   24  C11 UNL     1      56.827  17.985  15.023  1.00  0.00    -0.025 C
HETATM   25  C12 UNL     1      57.252  17.489  13.882  1.00  0.00     0.008 C
ENDBRANCH   3  24
BRANCH   6  26
HETATM   26  O8  UNL     1      59.505  14.449  16.716  1.00  0.00    -0.390 OA
ATOM     27  H8  UNL     1      58.775  13.865  16.549  1.00  0.00     0.210 HD
ENDBRANCH   6  26
BRANCH   5  28
HETATM   28  O3  UNL     1      56.838  15.172  16.324  1.00  0.00    -0.350 OA
BRANCH  28  29
HETATM   29  C14 UNL     1      56.469  14.479  15.198  1.00  0.00     0.291 C
HETATM   30  O4  UNL     1      56.768  13.110  15.428  1.00  0.00    -0.356 OA
HETATM   31  C15 UNL     1      55.969  12.269  14.688  1.00  0.00     0.205 C
HETATM   32  C16 UNL     1      54.545  12.194  15.211  1.00  0.00     0.173 C
HETATM   33  C17 UNL     1      54.193  13.581  15.713  1.00  0.00     0.182 C
HETATM   34  C18 UNL     1      55.027  14.542  14.871  1.00  0.00     0.204 C
BRANCH  32  35
HETATM   35  O5  UNL     1      54.487  11.295  16.288  1.00  0.00    -0.391 OA
ATOM     36  H5  UNL     1      54.330  11.774  17.093  1.00  0.00     0.210 HD
ENDBRANCH  32  35
BRANCH  33  37
HETATM   37  O6  UNL     1      54.426  13.727  17.059  1.00  0.00    -0.390 OA
ATOM     38  H6  UNL     1      55.310  13.479  17.303  1.00  0.00     0.210 HD
ENDBRANCH  33  37
BRANCH  34  39
HETATM   39  O7  UNL     1      54.433  15.769  14.955  1.00  0.00    -0.388 OA
ATOM     40  H7  UNL     1      53.596  15.868  14.517  1.00  0.00     0.210 HD
ENDBRANCH  34  39
ENDBRANCH  28  29
ENDBRANCH   5  28
TORSDOF 13
ENDMDL