MODEL 4
REMARK VINA RESULT: -8.569424357      1.754      3.461
REMARK  13 active torsions:
REMARK  status: ('A' for Active; 'I' for Inactive)
REMARK    1  A    between atoms: C3_4  and  O2_5
REMARK    2  A    between atoms: O2_5  and  C4_6
REMARK    3  A    between atoms: C9_11  and  C10_12
REMARK    4  A    between atoms: C10_12  and  S1_13
REMARK    5  A    between atoms: S1_13  and  C11_14
REMARK    6  A    between atoms: C11_14  and  C12_15
REMARK    7  A    between atoms: C14_17  and  O3_18
REMARK    8  A    between atoms: C15_20  and  O4_21
REMARK    9  A    between atoms: C16_23  and  C17_24
REMARK   10  A    between atoms: C17_24  and  O5_25
REMARK   11  A    between atoms: C18_28  and  O7_29
REMARK   12  A    between atoms: C19_31  and  O8_32
REMARK   13  A    between atoms: C20_34  and  O9_35
ROOT
HETATM    1  C4  UNL     1      59.358  17.493  16.215  1.00  0.00     0.129 C
HETATM    2  C5  UNL     1      60.190  17.051  15.080  1.00  0.00     0.032 C
HETATM    3  C6  UNL     1      59.971  17.795  13.791  1.00  0.00     0.002 C
HETATM    4  C7  UNL     1      60.266  19.250  14.094  1.00  0.00     0.001 C
HETATM    5  C8  UNL     1      59.172  19.707  15.037  1.00  0.00     0.008 C
HETATM    6  C9  UNL     1      59.151  18.986  16.343  1.00  0.00     0.024 C
ENDROOT
BRANCH   6   7
HETATM    7  C10 UNL     1      60.159  19.574  17.296  1.00  0.00     0.081 C
BRANCH   7   8
HETATM    8  S1  UNL     1      60.211  21.328  17.439  1.00  0.00    -0.166 SA
BRANCH   8   9
HETATM    9  C11 UNL     1      61.255  22.247  16.348  1.00  0.00     0.105 C
BRANCH   9  10
HETATM   10  C12 UNL     1      60.662  23.471  15.723  1.00  0.00     0.134 C
HETATM   11  C13 UNL     1      59.536  23.997  16.606  1.00  0.00     0.067 C
HETATM   12  C14 UNL     1      59.901  25.198  17.404  1.00  0.00     0.152 C
HETATM   13  C15 UNL     1      61.355  25.431  17.617  1.00  0.00     0.178 C
HETATM   14  C16 UNL     1      62.261  24.907  16.557  1.00  0.00     0.176 C
HETATM   15  O6  UNL     1      61.580  24.454  15.431  1.00  0.00    -0.375 OA
BRANCH  12  16
HETATM   16  O3  UNL     1      59.261  26.363  16.931  1.00  0.00    -0.393 OA
ATOM     17  H3  UNL     1      59.644  27.153  17.294  1.00  0.00     0.210 HD
ENDBRANCH  12  16
BRANCH  13  18
HETATM   18  O4  UNL     1      61.786  24.990  18.890  1.00  0.00    -0.390 OA
ATOM     19  H4  UNL     1      61.467  25.549  19.590  1.00  0.00     0.210 HD
ENDBRANCH  13  18
BRANCH  14  20
HETATM   20  C17 UNL     1      63.246  25.962  16.097  1.00  0.00     0.198 C
BRANCH  20  21
HETATM   21  O5  UNL     1      62.668  27.226  16.147  1.00  0.00    -0.398 OA
ATOM     22  H5  UNL     1      62.640  27.545  17.042  1.00  0.00     0.209 HD
ENDBRANCH  20  21
ENDBRANCH  14  20
ENDBRANCH   9  10
ENDBRANCH   8   9
ENDBRANCH   7   8
ENDBRANCH   6   7
BRANCH   1  23
HETATM   23  O2  UNL     1      58.139  16.802  16.271  1.00  0.00    -0.353 OA
BRANCH  23  24
HETATM   24  C3  UNL     1      57.747  16.261  15.077  1.00  0.00     0.291 C
HETATM   25  O1  UNL     1      57.895  14.880  15.020  1.00  0.00    -0.351 OA
HETATM   26  C2  UNL     1      56.892  14.153  15.588  1.00  0.00     0.152 C
HETATM   27  C1  UNL     1      56.250  13.309  14.477  1.00  0.00     0.042 C
HETATM   28  C20 UNL     1      55.803  14.910  16.263  1.00  0.00     0.178 C
HETATM   29  C19 UNL     1      55.283  16.066  15.482  1.00  0.00     0.183 C
HETATM   30  C18 UNL     1      56.376  16.598  14.612  1.00  0.00     0.204 C
BRANCH  28  31
HETATM   31  O9  UNL     1      54.717  14.019  16.443  1.00  0.00    -0.390 OA
ATOM     32  H9  UNL     1      55.064  13.221  16.823  1.00  0.00     0.210 HD
ENDBRANCH  28  31
BRANCH  29  33
HETATM   33  O8  UNL     1      54.120  15.736  14.753  1.00  0.00    -0.390 OA
ATOM     34  H8  UNL     1      53.629  15.026  15.150  1.00  0.00     0.210 HD
ENDBRANCH  29  33
BRANCH  30  35
HETATM   35  O7  UNL     1      56.150  17.940  14.366  1.00  0.00    -0.388 OA
ATOM     36  H7  UNL     1      56.126  18.185  13.448  1.00  0.00     0.210 HD
ENDBRANCH  30  35
ENDBRANCH  23  24
ENDBRANCH   1  23
TORSDOF 13
ENDMDL