MODEL 2
REMARK VINA RESULT: -9.825005952      1.359      1.891
REMARK  12 active torsions:
REMARK  status: ('A' for Active; 'I' for Inactive)
REMARK    1  A    between atoms: C2_2  and  O1_4
REMARK    2  A    between atoms: C2_2  and  C4_6
REMARK    3  A    between atoms: C5_7  and  C6_8
REMARK    4  A    between atoms: C7_10  and  O3_11
REMARK    5  A    between atoms: O3_11  and  C8_12
REMARK    6  A    between atoms: C10_15  and  O5_16
REMARK    7  A    between atoms: C11_18  and  O6_19
REMARK    8  A    between atoms: C12_21  and  O7_22
REMARK    9  A    between atoms: C14_25  and  S1_26
REMARK   10  A    between atoms: S1_26  and  C15_27
REMARK   11  A    between atoms: C17_29  and  C18_30
REMARK   12  A    between atoms: C19_33  and  O9_34
ROOT
HETATM    1  C6  UNL     1      60.669  20.326  15.159  1.00  0.00     0.161 C
HETATM    2  O2  UNL     1      60.304  19.028  14.853  1.00  0.00    -0.351 OA
HETATM    3  C7  UNL     1      58.959  18.891  15.185  1.00  0.00     0.265 C
HETATM    4  C13 UNL     1      58.934  19.595  16.549  1.00  0.00     0.079 C
HETATM    5  C14 UNL     1      59.712  20.863  16.165  1.00  0.00     0.085 C
ENDROOT
BRANCH   3   6
HETATM    6  O3  UNL     1      58.558  17.585  15.277  1.00  0.00    -0.329 OA
BRANCH   6   7
HETATM    7  C8  UNL     1      57.200  17.446  15.600  1.00  0.00     0.294 C
HETATM    8  O4  UNL     1      56.360  17.675  14.542  1.00  0.00    -0.356 OA
HETATM    9  C9  UNL     1      56.127  16.621  13.702  1.00  0.00     0.205 C
HETATM   10  C10 UNL     1      55.765  15.332  14.387  1.00  0.00     0.173 C
HETATM   11  C11 UNL     1      56.901  15.023  15.356  1.00  0.00     0.182 C
HETATM   12  C12 UNL     1      56.934  16.162  16.344  1.00  0.00     0.204 C
BRANCH  10  13
HETATM   13  O5  UNL     1      54.536  15.400  15.033  1.00  0.00    -0.391 OA
ATOM     14  H5  UNL     1      54.520  14.894  15.837  1.00  0.00     0.210 HD
ENDBRANCH  10  13
BRANCH  11  15
HETATM   15  O6  UNL     1      56.737  13.791  15.947  1.00  0.00    -0.390 OA
ATOM     16  H6  UNL     1      56.824  13.087  15.314  1.00  0.00     0.210 HD
ENDBRANCH  11  15
BRANCH  12  17
HETATM   17  O7  UNL     1      55.676  16.277  16.933  1.00  0.00    -0.388 OA
ATOM     18  H7  UNL     1      55.033  16.031  16.277  1.00  0.00     0.210 HD
ENDBRANCH  12  17
ENDBRANCH   6   7
ENDBRANCH   3   6
BRANCH   1  19
HETATM   19  C5  UNL     1      60.704  21.137  13.905  1.00  0.00     0.005 C
HETATM   20  C4  UNL     1      60.837  20.548  12.741  1.00  0.00     0.008 C
BRANCH  20  21
HETATM   21  C2  UNL     1      60.871  21.368  11.489  1.00  0.00     0.068 C
HETATM   22  C1  UNL     1      61.350  20.514  10.334  1.00  0.00     0.050 C
HETATM   23  C3  UNL     1      61.794  22.542  11.675  1.00  0.00     0.050 C
BRANCH  21  24
HETATM   24  O1  UNL     1      59.589  21.858  11.218  1.00  0.00    -0.387 OA
ATOM     25  H1  UNL     1      59.002  21.137  11.022  1.00  0.00     0.211 HD
ENDBRANCH  21  24
ENDBRANCH  20  21
ENDBRANCH   1  19
BRANCH   5  26
HETATM   26  S1  UNL     1      60.420  21.679  17.576  1.00  0.00    -0.154 SA
BRANCH  26  27
HETATM   27  C15 UNL     1      61.580  22.973  17.175  1.00  0.00     0.078 C
HETATM   28  C16 UNL     1      61.242  23.828  15.960  1.00  0.00     0.034 C
HETATM   29  C17 UNL     1      61.918  24.979  16.722  1.00  0.00     0.106 C
HETATM   30  C19 UNL     1      61.464  24.244  17.992  1.00  0.00     0.144 C
BRANCH  29  31
HETATM   31  C18 UNL     1      61.292  26.296  16.518  1.00  0.00     0.237 C
HETATM   32  N1  UNL     1      62.066  27.278  15.845  1.00  0.00    -0.062 NA
HETATM   33  O8  UNL     1      60.124  26.506  16.935  1.00  0.00    -0.276 OA
ENDBRANCH  29  31
BRANCH  30  34
HETATM   34  O9  UNL     1      62.371  24.309  19.039  1.00  0.00    -0.394 OA
ATOM     35  H9  UNL     1      62.989  25.027  18.958  1.00  0.00     0.210 HD
ENDBRANCH  30  34
ENDBRANCH  26  27
ENDBRANCH   5  26
TORSDOF 12
ENDMDL