MODEL 2
REMARK VINA RESULT: -5.811332975      6.281     11.105
REMARK  12 active torsions:
REMARK  status: ('A' for Active; 'I' for Inactive)
REMARK    1  A    between atoms: O1_2  and  C2_3
REMARK    2  A    between atoms: C3_4  and  C4_5
REMARK    3  A    between atoms: C4_5  and  O2_6
REMARK    4  A    between atoms: C5_9  and  O4_10
REMARK    5  A    between atoms: O4_10  and  C6_11
REMARK    6  A    between atoms: C7_12  and  O5_13
REMARK    7  A    between atoms: C8_15  and  O6_16
REMARK    8  A    between atoms: C10_19  and  C11_20
REMARK    9  A    between atoms: C11_20  and  O7_21
REMARK   10  A    between atoms: O7_21  and  C12_22
REMARK   11  A    between atoms: C15_27  and  O9_29
REMARK   12  A    between atoms: C19_33  and  N2_34
ROOT
HETATM    1  C6  UNL     1      56.830  14.653  14.818  1.00  0.00     0.163 C
HETATM    2  C7  UNL     1      55.970  15.856  15.135  1.00  0.00     0.176 C
HETATM    3  C8  UNL     1      54.607  15.804  14.552  1.00  0.00     0.150 C
HETATM    4  C9  UNL     1      53.865  14.543  14.797  1.00  0.00     0.046 C
HETATM    5  C10 UNL     1      54.663  13.344  15.109  1.00  0.00    -0.007 C
HETATM    6  C13 UNL     1      54.093  12.233  14.205  1.00  0.00     0.015 C
HETATM    7  C14 UNL     1      55.235  11.449  13.683  1.00  0.00     0.038 C
HETATM    8  C15 UNL     1      56.333  12.517  13.570  1.00  0.00     0.061 C
HETATM    9  C16 UNL     1      57.629  11.714  13.660  1.00  0.00     0.046 C
HETATM   10  C17 UNL     1      56.107  13.361  14.833  1.00  0.00     0.062 C
ENDROOT
BRANCH   1  11
HETATM   11  O4  UNL     1      57.839  14.722  15.777  1.00  0.00    -0.353 OA
BRANCH  11  12
HETATM   12  C5  UNL     1      59.003  15.338  15.391  1.00  0.00     0.263 C
HETATM   13  O3  UNL     1      59.591  15.833  16.579  1.00  0.00    -0.351 OA
HETATM   14  C3  UNL     1      58.931  17.026  16.960  1.00  0.00     0.179 C
HETATM   15  C2  UNL     1      59.574  18.118  16.149  1.00  0.00     0.185 C
HETATM   16  C19 UNL     1      59.837  17.580  14.774  1.00  0.00     0.258 C
HETATM   17  C18 UNL     1      58.812  16.481  14.442  1.00  0.00     0.099 C
BRANCH  14  18
HETATM   18  C4  UNL     1      59.283  17.232  18.412  1.00  0.00     0.198 C
BRANCH  18  19
HETATM   19  O2  UNL     1      60.378  16.390  18.693  1.00  0.00    -0.398 OA
ATOM     20  H2  UNL     1      61.092  16.950  18.976  1.00  0.00     0.209 HD
ENDBRANCH  18  19
ENDBRANCH  14  18
BRANCH  15  21
HETATM   21  O1  UNL     1      58.986  19.336  16.233  1.00  0.00    -0.386 OA
HETATM   22  C1  UNL     1      59.658  20.267  17.005  1.00  0.00     0.202 C
ENDBRANCH  15  21
BRANCH  16  23
HETATM   23  N2  UNL     1      59.869  18.592  13.782  1.00  0.00     0.087 N
HETATM   24  C20 UNL     1      59.811  18.187  12.423  1.00  0.00     0.310 C
HETATM   25  C21 UNL     1      60.910  19.533  14.014  1.00  0.00     0.310 C
ENDBRANCH  16  23
ENDBRANCH  11  12
ENDBRANCH   1  11
BRANCH   2  26
HETATM   26  O5  UNL     1      55.967  16.132  16.508  1.00  0.00    -0.390 OA
ATOM     27  H5  UNL     1      55.119  15.949  16.895  1.00  0.00     0.210 HD
ENDBRANCH   2  26
BRANCH   3  28
HETATM   28  O6  UNL     1      54.685  16.135  13.198  1.00  0.00    -0.393 OA
ATOM     29  H6  UNL     1      55.068  15.404  12.727  1.00  0.00     0.210 HD
ENDBRANCH   3  28
BRANCH   5  30
HETATM   30  C11 UNL     1      54.398  12.839  16.537  1.00  0.00     0.190 C
BRANCH  30  31
HETATM   31  O7  UNL     1      55.529  12.197  17.069  1.00  0.00    -0.306 OA
BRANCH  31  32
HETATM   32  C12 UNL     1      55.389  10.950  17.630  1.00  0.00     0.372 C
HETATM   33  N1  UNL     1      55.684   9.734  16.964  1.00  0.00    -0.032 NA
HETATM   34  O8  UNL     1      54.973  10.872  18.814  1.00  0.00    -0.242 OA
ENDBRANCH  31  32
ENDBRANCH  30  31
ENDBRANCH   5  30
BRANCH   8  35
HETATM   35  O9  UNL     1      56.251  13.241  12.412  1.00  0.00    -0.390 OA
ATOM     36  H9  UNL     1      56.833  13.991  12.405  1.00  0.00     0.210 HD
ENDBRANCH   8  35
TORSDOF 12
ENDMDL