MODEL 3
REMARK VINA RESULT: -7.618178309      0.993      1.430
REMARK  13 active torsions:
REMARK  status: ('A' for Active; 'I' for Inactive)
REMARK    1  A    between atoms: C4_4  and  C5_5
REMARK    2  A    between atoms: C5_5  and  C6_6
REMARK    3  A    between atoms: C9_10  and  O2_11
REMARK    4  A    between atoms: O2_11  and  C10_12
REMARK    5  A    between atoms: C14_16  and  O3_17
REMARK    6  A    between atoms: O3_17  and  C15_18
REMARK    7  A    between atoms: C16_20  and  C17_21
REMARK    8  A    between atoms: C17_21  and  N1_22
REMARK    9  A    between atoms: C18_26  and  O5_27
REMARK   10  A    between atoms: C19_29  and  O6_30
REMARK   11  A    between atoms: C20_32  and  O7_33
REMARK   12  A    between atoms: C21_35  and  O8_36
REMARK   13  A    between atoms: C22_38  and  O9_39
ROOT
HETATM    1  C10 UNL     1      58.858  19.019  15.851  1.00  0.00     0.156 C
HETATM    2  C11 UNL     1      57.519  18.592  16.388  1.00  0.00     0.041 C
HETATM    3  C12 UNL     1      57.537  17.183  16.930  1.00  0.00     0.016 C
HETATM    4  C13 UNL     1      56.103  16.712  17.011  1.00  0.00     0.012 C
HETATM    5  C14 UNL     1      58.244  16.320  15.901  1.00  0.00     0.160 C
HETATM    6  C21 UNL     1      59.707  16.667  15.996  1.00  0.00     0.178 C
HETATM    7  C22 UNL     1      59.967  18.095  16.308  1.00  0.00     0.178 C
ENDROOT
BRANCH   5   8
HETATM    8  O3  UNL     1      57.690  16.573  14.678  1.00  0.00    -0.350 OA
BRANCH   8   9
HETATM    9  C15 UNL     1      57.100  15.467  14.057  1.00  0.00     0.292 C
HETATM   10  O4  UNL     1      57.048  14.376  14.863  1.00  0.00    -0.349 OA
HETATM   11  C16 UNL     1      56.235  13.345  14.577  1.00  0.00     0.181 C
HETATM   12  C18 UNL     1      54.910  13.640  13.999  1.00  0.00     0.180 C
HETATM   13  C19 UNL     1      54.638  15.070  13.690  1.00  0.00     0.183 C
HETATM   14  C20 UNL     1      55.850  15.899  13.392  1.00  0.00     0.204 C
BRANCH  11  15
HETATM   15  C17 UNL     1      57.019  12.290  13.818  1.00  0.00     0.264 C
BRANCH  15  16
HETATM   16  N1  UNL     1      56.781  12.249  12.426  1.00  0.00    -0.077 N
ATOM     17  H13 UNL     1      56.064  12.929  12.172  1.00  0.00     0.274 HD
ATOM     18  H12 UNL     1      57.580  12.634  11.921  1.00  0.00     0.274 HD
ATOM     19  H11 UNL     1      56.541  11.331  12.053  1.00  0.00     0.274 HD
ENDBRANCH  15  16
ENDBRANCH  11  15
BRANCH  12  20
HETATM   20  O5  UNL     1      53.875  13.173  14.817  1.00  0.00    -0.390 OA
ATOM     21  H5  UNL     1      53.168  12.797  14.307  1.00  0.00     0.210 HD
ENDBRANCH  12  20
BRANCH  13  22
HETATM   22  O6  UNL     1      53.881  15.651  14.722  1.00  0.00    -0.390 OA
ATOM     23  H6  UNL     1      54.199  15.353  15.565  1.00  0.00     0.210 HD
ENDBRANCH  13  22
BRANCH  14  24
HETATM   24  O7  UNL     1      55.533  17.207  13.834  1.00  0.00    -0.388 OA
ATOM     25  H7  UNL     1      54.861  17.147  14.502  1.00  0.00     0.210 HD
ENDBRANCH  14  24
ENDBRANCH   8   9
ENDBRANCH   5   8
BRANCH   6  26
HETATM   26  O8  UNL     1      60.255  15.874  17.022  1.00  0.00    -0.390 OA
ATOM     27  H8  UNL     1      60.699  16.462  17.622  1.00  0.00     0.210 HD
ENDBRANCH   6  26
BRANCH   7  28
HETATM   28  O9  UNL     1      60.154  18.224  17.683  1.00  0.00    -0.390 OA
ATOM     29  H9  UNL     1      59.332  18.459  18.100  1.00  0.00     0.210 HD
ENDBRANCH   7  28
BRANCH   1  30
HETATM   30  O2  UNL     1      59.146  20.345  16.128  1.00  0.00    -0.352 OA
BRANCH  30  31
HETATM   31  C9  UNL     1      60.285  20.833  15.540  1.00  0.00     0.270 C
HETATM   32  C6  UNL     1      60.474  22.348  15.695  1.00  0.00     0.031 C
HETATM   33  C7  UNL     1      59.245  22.936  16.308  1.00  0.00     0.023 C
HETATM   34  C8  UNL     1      60.619  22.414  14.213  1.00  0.00     0.185 C
HETATM   35  O1  UNL     1      60.241  21.053  14.168  1.00  0.00    -0.359 OA
BRANCH  32  36
HETATM   36  C5  UNL     1      61.699  22.707  16.506  1.00  0.00     0.043 C
BRANCH  36  37
HETATM   37  C4  UNL     1      62.186  24.063  16.229  1.00  0.00    -0.024 C
HETATM   38  C2  UNL     1      62.648  24.869  17.159  1.00  0.00    -0.091 C
HETATM   39  C1  UNL     1      63.121  26.223  16.794  1.00  0.00     0.042 C
HETATM   40  C3  UNL     1      62.714  24.458  18.584  1.00  0.00     0.042 C
ENDBRANCH  36  37
ENDBRANCH  32  36
ENDBRANCH  30  31
ENDBRANCH   1  30
TORSDOF 13
ENDMDL