MODEL 5
REMARK VINA RESULT: -8.715993109      3.419      4.718
REMARK  13 active torsions:
REMARK  status: ('A' for Active; 'I' for Inactive)
REMARK    1  A    between atoms: C1_4  and  N2_5
REMARK    2  A    between atoms: C1_4  and  C2_10
REMARK    3  A    between atoms: N2_5  and  N3_7
REMARK    4  A    between atoms: C6_14  and  O1_15
REMARK    5  A    between atoms: O1_15  and  C7_16
REMARK    6  A    between atoms: C8_18  and  O3_19
REMARK    7  A    between atoms: C9_21  and  O4_22
REMARK    8  A    between atoms: C10_24  and  O5_25
REMARK    9  A    between atoms: O5_25  and  C11_26
REMARK   10  A    between atoms: C11_26  and  C12_28
REMARK   11  A    between atoms: C13_29  and  C14_30
REMARK   12  A    between atoms: C14_30  and  C15_31
REMARK   13  A    between atoms: C21_37  and  O7_38
ROOT
HETATM    1  C7  UNL     1      56.811  15.978  15.860  1.00  0.00     0.297 C
HETATM    2  O2  UNL     1      57.730  15.184  16.510  1.00  0.00    -0.326 OA
HETATM    3  C8  UNL     1      58.979  15.449  15.988  1.00  0.00     0.291 C
HETATM    4  C9  UNL     1      59.455  16.835  16.124  1.00  0.00     0.205 C
HETATM    5  C10 UNL     1      58.405  17.903  16.027  1.00  0.00     0.199 C
HETATM    6  C21 UNL     1      57.011  17.392  16.314  1.00  0.00     0.205 C
ENDROOT
BRANCH   1   7
HETATM    7  O1  UNL     1      56.963  15.834  14.483  1.00  0.00    -0.329 OA
BRANCH   7   8
HETATM    8  C6  UNL     1      56.063  14.918  13.954  1.00  0.00     0.264 C
HETATM    9  C5  UNL     1      55.284  15.666  12.870  1.00  0.00     0.061 C
HETATM   10  C4  UNL     1      54.231  14.736  12.348  1.00  0.00     0.008 C
HETATM   11  C3  UNL     1      54.725  13.358  12.060  1.00  0.00     0.040 C
HETATM   12  C2  UNL     1      55.774  12.889  13.044  1.00  0.00     0.193 C
HETATM   13  O8  UNL     1      56.720  13.873  13.309  1.00  0.00    -0.348 OA
BRANCH  12  14
HETATM   14  C1  UNL     1      56.415  11.688  12.463  1.00  0.00     0.118 C
HETATM   15  N1  UNL     1      55.955  11.129  11.402  1.00  0.00    -0.386 N
ATOM     16  H12 UNL     1      56.397  10.302  11.001  1.00  0.00     0.157 HD
ATOM     17  H11 UNL     1      55.129  11.523  10.951  1.00  0.00     0.157 HD
BRANCH  14  18
HETATM   18  N2  UNL     1      57.561  11.141  13.087  1.00  0.00    -0.294 N
ATOM     19  H2  UNL     1      57.870  11.561  13.964  1.00  0.00     0.187 HD
BRANCH  18  20
HETATM   20  N3  UNL     1      58.293  10.073  12.590  1.00  0.00    -0.344 N
ATOM     21  H32 UNL     1      58.884  10.261  11.780  1.00  0.00     0.176 HD
ATOM     22  H31 UNL     1      58.276   9.130  12.978  1.00  0.00     0.176 HD
ENDBRANCH  18  20
ENDBRANCH  14  18
ENDBRANCH  12  14
ENDBRANCH   7   8
ENDBRANCH   1   7
BRANCH   6  23
HETATM   23  O7  UNL     1      56.720  17.434  17.687  1.00  0.00    -0.388 OA
ATOM     24  H7  UNL     1      57.545  17.528  18.147  1.00  0.00     0.210 HD
ENDBRANCH   6  23
BRANCH   3  25
HETATM   25  O3  UNL     1      59.880  14.570  16.623  1.00  0.00    -0.368 OA
ATOM     26  H3  UNL     1      60.289  14.054  15.938  1.00  0.00     0.212 HD
ENDBRANCH   3  25
BRANCH   5  27
HETATM   27  O5  UNL     1      58.717  19.051  16.783  1.00  0.00    -0.307 OA
BRANCH  27  28
HETATM   28  C11 UNL     1      59.751  19.894  16.448  1.00  0.00     0.283 C
HETATM   29  O6  UNL     1      60.668  20.012  17.300  1.00  0.00    -0.260 OA
BRANCH  28  30
HETATM   30  C12 UNL     1      59.846  20.629  15.213  1.00  0.00     0.078 C
HETATM   31  C13 UNL     1      60.862  20.429  14.406  1.00  0.00    -0.016 C
BRANCH  31  32
HETATM   32  C14 UNL     1      61.048  21.136  13.112  1.00  0.00     0.066 C
BRANCH  32  33
HETATM   33  C15 UNL     1      60.615  20.291  11.966  1.00  0.00    -0.055 A
HETATM   34  C16 UNL     1      60.307  20.890  10.767  1.00  0.00     0.007 A
HETATM   35  C17 UNL     1      59.906  20.124   9.701  1.00  0.00     0.001 A
HETATM   36  C18 UNL     1      59.794  18.758   9.772  1.00  0.00     0.000 A
HETATM   37  C19 UNL     1      60.110  18.178  10.987  1.00  0.00     0.001 A
HETATM   38  C20 UNL     1      60.510  18.924  12.058  1.00  0.00     0.007 A
ENDBRANCH  32  33
ENDBRANCH  31  32
ENDBRANCH  28  30
ENDBRANCH  27  28
ENDBRANCH   5  27
BRANCH   4  39
HETATM   39  O4  UNL     1      60.484  17.042  15.184  1.00  0.00    -0.388 OA
ATOM     40  H4  UNL     1      61.057  17.723  15.515  1.00  0.00     0.210 HD
ENDBRANCH   4  39
TORSDOF 13
ENDMDL