MODEL 4
REMARK VINA RESULT: -5.524255822      2.974      3.546
REMARK  1 active torsions:
REMARK  status: ('A' for Active; 'I' for Inactive)
REMARK    1  A    between atoms: N2_4  and  N3_6
REMARK       I    between atoms: N3_6  and  C1_8
REMARK       I    between atoms: C1_8  and  N4_10
ROOT
HETATM    1  N3  UNL     1      -2.275  27.097  26.320  1.00  0.00    -0.237 N
ATOM      2  H3  UNL     1      -3.049  27.713  26.074  1.00  0.00     0.193 HD
HETATM    3  C1  UNL     1      -2.180  26.512  27.607  1.00  0.00     0.341 C
HETATM    4  O1  UNL     1      -1.227  25.759  27.900  1.00  0.00    -0.245 OA
HETATM    5  N4  UNL     1      -3.218  26.824  28.540  1.00  0.00    -0.289 N
ATOM      6  H4  UNL     1      -4.188  26.775  28.230  1.00  0.00     0.172 HD
HETATM    7  C2  UNL     1      -2.974  27.165  29.757  1.00  0.00     0.175 C
HETATM    8  N5  UNL     1      -1.701  27.291  30.381  1.00  0.00    -0.356 N
ATOM      9  H5  UNL     1      -0.825  26.853  30.097  1.00  0.00     0.162 HD
HETATM   10  C3  UNL     1      -1.920  28.187  31.518  1.00  0.00     0.248 C
HETATM   11  N6  UNL     1      -3.267  27.808  31.938  1.00  0.00    -0.338 N
ATOM     12  H6  UNL     1      -3.622  27.773  32.893  1.00  0.00     0.164 HD
HETATM   13  C4  UNL     1      -3.989  27.494  30.745  1.00  0.00     0.286 C
HETATM   14  O2  UNL     1      -5.241  27.506  30.605  1.00  0.00    -0.264 OA
ENDROOT
BRANCH   1  15
HETATM   15  N2  UNL     1      -1.264  26.796  25.400  1.00  0.00    -0.245 N
HETATM   16  N1  UNL     1      -0.130  27.323  25.599  1.00  0.00    -0.331 N
ATOM     17  H12 UNL     1       0.025  27.937  26.399  1.00  0.00     0.178 HD
ATOM     18  H11 UNL     1       0.607  27.103  24.928  1.00  0.00     0.178 HD
ATOM     19  H2  UNL     1      -1.434  26.181  24.606  1.00  0.00     0.208 HD
ENDBRANCH   1  15
TORSDOF 1
ENDMDL