MODEL 2
REMARK VINA RESULT: -5.190856362      6.388      7.299
REMARK  1 active torsions:
REMARK  status: ('A' for Active; 'I' for Inactive)
REMARK    1  A    between atoms: N1_1  and  N2_4
REMARK       I    between atoms: C1_6  and  N4_8
REMARK       I    between atoms: C2_10  and  N6_12
ROOT
HETATM    1  N2  UNL     1       2.509  26.793  33.966  1.00  0.00    -0.280 N
ATOM      2  H2  UNL     1       2.647  27.803  34.009  1.00  0.00     0.189 HD
HETATM    3  C1  UNL     1       1.411  26.330  33.450  1.00  0.00     0.209 C
HETATM    4  N3  UNL     1       0.455  27.261  32.970  1.00  0.00    -0.062 NA
HETATM    5  N4  UNL     1       1.243  24.936  33.399  1.00  0.00    -0.302 N
ATOM      6  H4  UNL     1       1.890  24.398  32.823  1.00  0.00     0.171 HD
HETATM    7  C2  UNL     1       0.325  24.293  34.033  1.00  0.00     0.212 C
HETATM    8  N5  UNL     1      -0.609  24.966  34.853  1.00  0.00    -0.062 NA
HETATM    9  N6  UNL     1       0.230  22.891  33.925  1.00  0.00    -0.253 N
HETATM   10  C3  UNL     1       0.883  21.713  34.472  1.00  0.00     0.256 C
HETATM   11  C4  UNL     1       0.453  21.086  33.213  1.00  0.00     0.256 C
HETATM   12  O1  UNL     1       0.803  20.162  32.469  1.00  0.00    -0.270 OA
HETATM   13  N7  UNL     1      -0.594  22.029  33.192  1.00  0.00    -0.264 N
ATOM     14  H7  UNL     1      -1.539  22.066  32.810  1.00  0.00     0.190 HD
ENDROOT
BRANCH   1  15
HETATM   15  N1  UNL     1       3.507  25.952  34.464  1.00  0.00    -0.343 N
ATOM     16  H12 UNL     1       3.886  25.238  33.840  1.00  0.00     0.176 HD
ATOM     17  H11 UNL     1       3.860  26.035  35.418  1.00  0.00     0.176 HD
ENDBRANCH   1  15
TORSDOF 1
ENDMDL