MODEL 3
REMARK VINA RESULT: -6.000958802      1.125      1.207
REMARK  2 active torsions:
REMARK  status: ('A' for Active; 'I' for Inactive)
REMARK    1  A    between atoms: N2_4  and  N3_6
REMARK    2  A    between atoms: C2_11  and  C3_12
ROOT
HETATM    1  N3  UNL     1      -1.313  26.402  25.657  1.00  0.00    -0.268 N
ATOM      2  H3  UNL     1      -0.489  26.155  26.205  1.00  0.00     0.190 HD
HETATM    3  C1  UNL     1      -2.459  26.654  26.226  1.00  0.00     0.167 A
HETATM    4  N4  UNL     1      -3.695  27.008  25.620  1.00  0.00    -0.320 N
ATOM      5  H4  UNL     1      -3.855  27.117  24.619  1.00  0.00     0.169 HD
HETATM    6  C2  UNL     1      -4.670  27.187  26.637  1.00  0.00     0.175 A
HETATM    7  N6  UNL     1      -4.126  26.972  27.759  1.00  0.00    -0.322 N
ATOM      8  H6  UNL     1      -4.626  27.039  28.646  1.00  0.00     0.169 HD
HETATM    9  C4  UNL     1      -2.752  26.630  27.664  1.00  0.00     0.147 A
HETATM   10  N7  UNL     1      -1.895  26.350  28.580  1.00  0.00    -0.382 N
ATOM     11  H71 UNL     1      -2.098  26.334  29.579  1.00  0.00     0.157 HD
ATOM     12  H72 UNL     1      -0.907  26.104  28.511  1.00  0.00     0.157 HD
ENDROOT
BRANCH   1  13
HETATM   13  N2  UNL     1      -1.266  26.485  24.262  1.00  0.00    -0.248 N
HETATM   14  N1  UNL     1      -0.163  26.901  23.760  1.00  0.00    -0.331 N
ATOM     15  H12 UNL     1       0.626  27.152  24.357  1.00  0.00     0.178 HD
ATOM     16  H11 UNL     1      -0.128  26.962  22.742  1.00  0.00     0.178 HD
ATOM     17  H2  UNL     1      -2.063  26.230  23.678  1.00  0.00     0.207 HD
ENDBRANCH   1  13
BRANCH   6  18
HETATM   18  C3  UNL     1      -6.080  27.560  26.413  1.00  0.00     0.298 C
HETATM   19  N5  UNL     1      -7.018  27.528  27.456  1.00  0.00    -0.054 NA
HETATM   20  O1  UNL     1      -6.475  27.920  25.275  1.00  0.00    -0.268 OA
ENDBRANCH   6  18
TORSDOF 2
ENDMDL