MODEL 1
REMARK VINA RESULT: -6.161273666      0.000      0.000
REMARK  3 active torsions:
REMARK  status: ('A' for Active; 'I' for Inactive)
REMARK    1  A    between atoms: C1_4  and  N2_5
REMARK    2  A    between atoms: C1_4  and  C3_14
REMARK       I    between atoms: N2_5  and  C2_7
REMARK    3  A    between atoms: N4_9  and  N5_11
REMARK       I    between atoms: C3_14  and  N6_16
ROOT
HETATM    1  N1  UNL     1      -4.790  26.876  26.310  1.00  0.00    -0.381 N
ATOM      2  H11 UNL     1      -4.998  26.364  25.453  1.00  0.00     0.157 HD
ATOM      3  H12 UNL     1      -5.554  27.248  26.876  1.00  0.00     0.157 HD
HETATM    4  C1  UNL     1      -3.547  27.028  26.638  1.00  0.00     0.171 C
ENDROOT
BRANCH   4   5
HETATM    5  N2  UNL     1      -3.262  27.730  27.814  1.00  0.00    -0.311 N
HETATM    6  C2  UNL     1      -2.945  26.990  28.988  1.00  0.00     0.208 C
HETATM    7  N3  UNL     1      -3.609  25.776  29.318  1.00  0.00    -0.062 NA
HETATM    8  N4  UNL     1      -2.021  27.469  29.751  1.00  0.00    -0.280 N
ATOM      9  H4  UNL     1      -1.579  28.343  29.465  1.00  0.00     0.189 HD
ATOM     10  H2  UNL     1      -3.282  28.749  27.831  1.00  0.00     0.170 HD
BRANCH   8  11
HETATM   11  N5  UNL     1      -1.587  26.890  30.917  1.00  0.00    -0.343 N
ATOM     12  H52 UNL     1      -2.221  26.222  31.355  1.00  0.00     0.176 HD
ATOM     13  H51 UNL     1      -0.692  27.082  31.366  1.00  0.00     0.176 HD
ENDBRANCH   8  11
ENDBRANCH   4   5
BRANCH   4  14
HETATM   14  C3  UNL     1      -2.461  26.501  25.834  1.00  0.00     0.291 C
HETATM   15  O1  UNL     1      -2.369  25.281  25.552  1.00  0.00    -0.264 OA
HETATM   16  N6  UNL     1      -1.461  27.381  25.345  1.00  0.00    -0.297 N
HETATM   17  C4  UNL     1      -1.275  27.492  24.073  1.00  0.00     0.203 C
ATOM     18  H6  UNL     1      -0.892  27.923  25.996  1.00  0.00     0.171 HD
HETATM   19  N7  UNL     1      -0.264  28.383  23.588  1.00  0.00    -0.066 NA
HETATM   20  N8  UNL     1      -2.059  26.745  23.162  1.00  0.00    -0.066 NA
ENDBRANCH   4  14
TORSDOF 3
ENDMDL