MODEL 5
REMARK VINA RESULT: -6.689924122      2.456      3.136
REMARK  2 active torsions:
REMARK  status: ('A' for Active; 'I' for Inactive)
REMARK    1  A    between atoms: N3_4  and  N4_6
REMARK       I    between atoms: N4_6  and  C2_7
REMARK    2  A    between atoms: C2_7  and  C3_9
REMARK       I    between atoms: C3_9  and  N5_11
ROOT
HETATM    1  N4  UNL     1      -2.313  26.969  25.621  1.00  0.00    -0.274 NA
HETATM    2  C2  UNL     1      -1.777  26.963  24.332  1.00  0.00     0.403 C
HETATM    3  O1  UNL     1      -2.385  26.626  23.309  1.00  0.00    -0.244 OA
ENDROOT
BRANCH   2   4
HETATM    4  C3  UNL     1      -0.383  27.388  24.145  1.00  0.00     0.332 C
HETATM    5  O2  UNL     1       0.101  27.325  22.993  1.00  0.00    -0.261 OA
HETATM    6  N5  UNL     1       0.398  27.839  25.194  1.00  0.00    -0.294 N
HETATM    7  C4  UNL     1       1.684  27.949  25.233  1.00  0.00     0.203 C
ATOM      8  H5  UNL     1      -0.102  28.119  26.039  1.00  0.00     0.171 HD
HETATM    9  N6  UNL     1       2.292  28.430  26.408  1.00  0.00    -0.066 NA
HETATM   10  N7  UNL     1       2.428  27.583  24.091  1.00  0.00    -0.066 NA
ENDBRANCH   2   4
BRANCH   1  11
HETATM   11  N3  UNL     1      -2.789  26.973  26.768  1.00  0.00    -0.205 N
HETATM   12  C1  UNL     1      -2.583  26.552  27.954  1.00  0.00     0.226 C
HETATM   13  N1  UNL     1      -1.468  25.785  28.298  1.00  0.00    -0.065 NA
HETATM   14  N2  UNL     1      -3.534  26.875  28.944  1.00  0.00    -0.065 NA
ATOM     15  H3  UNL     1      -3.659  27.505  26.758  1.00  0.00     0.204 HD
ENDBRANCH   1  11
TORSDOF 2
ENDMDL