MODEL 5
REMARK VINA RESULT: -5.649111481      2.362      5.716
REMARK  1 active torsions:
REMARK  status: ('A' for Active; 'I' for Inactive)
REMARK       I    between atoms: C1_2  and  N2_4
REMARK    1  A    between atoms: N2_4  and  N3_6
REMARK       I    between atoms: N3_6  and  C2_8
REMARK       I    between atoms: C2_8  and  N4_10
ROOT
HETATM    1  N3  UNL     1      -1.035  26.098  27.329  1.00  0.00    -0.246 N
ATOM      2  H3  UNL     1      -0.190  26.597  27.606  1.00  0.00     0.192 HD
HETATM    3  C2  UNL     1      -1.611  26.308  26.052  1.00  0.00     0.356 C
HETATM    4  O2  UNL     1      -2.671  25.648  25.768  1.00  0.00    -0.244 OA
HETATM    5  N4  UNL     1      -1.049  27.206  25.113  1.00  0.00    -0.226 N
HETATM    6  C3  UNL     1      -1.552  27.491  23.796  1.00  0.00     0.176 C
HETATM    7  C4  UNL     1      -0.327  28.033  23.099  1.00  0.00     0.163 C
HETATM    8  N5  UNL     1       0.507  28.440  24.200  1.00  0.00    -0.320 N
ATOM      9  H5  UNL     1       1.332  29.033  24.104  1.00  0.00     0.181 HD
HETATM   10  N6  UNL     1       0.095  27.974  25.304  1.00  0.00    -0.241 N
ATOM     11  H6  UNL     1       0.539  28.139  26.207  1.00  0.00     0.208 HD
ENDROOT
BRANCH   1  12
HETATM   12  N2  UNL     1      -1.643  25.200  28.198  1.00  0.00    -0.250 N
HETATM   13  C1  UNL     1      -1.710  25.422  29.598  1.00  0.00     0.347 C
HETATM   14  N1  UNL     1      -2.317  24.528  30.484  1.00  0.00    -0.038 NA
HETATM   15  O1  UNL     1      -1.193  26.478  30.043  1.00  0.00    -0.249 OA
ATOM     16  H2  UNL     1      -2.056  24.349  27.816  1.00  0.00     0.191 HD
ENDBRANCH   1  12
TORSDOF 1
ENDMDL