MODEL 2
REMARK VINA RESULT: -5.190899865      1.853      3.841
REMARK  5 active torsions:
REMARK  status: ('A' for Active; 'I' for Inactive)
REMARK    1  A    between atoms: N1_1  and  N2_4
REMARK    2  A    between atoms: N2_4  and  C1_6
REMARK    3  A    between atoms: C1_6  and  O1_7
REMARK    4  A    between atoms: C1_6  and  N3_9
REMARK    5  A    between atoms: N3_9  and  N4_10
REMARK       I    between atoms: N3_9  and  C3_15
ROOT
HETATM    1  N3  UNL     1      -2.732  26.855  27.285  1.00  0.00    -0.166 N
HETATM    2  C3  UNL     1      -4.005  27.090  26.801  1.00  0.00     0.357 C
HETATM    3  N7  UNL     1      -4.998  27.630  27.682  1.00  0.00    -0.038 NA
HETATM    4  O2  UNL     1      -4.387  26.872  25.640  1.00  0.00    -0.248 OA
ENDROOT
BRANCH   1   5
HETATM    5  C1  UNL     1      -1.687  26.331  26.513  1.00  0.00     0.261 C
BRANCH   5   6
HETATM    6  N2  UNL     1      -0.385  26.789  26.362  1.00  0.00    -0.270 N
ATOM      7  H2  UNL     1       0.326  26.497  27.032  1.00  0.00     0.190 HD
BRANCH   6   8
HETATM    8  N1  UNL     1      -0.021  27.644  25.309  1.00  0.00    -0.342 N
ATOM      9  H12 UNL     1       0.887  28.106  25.356  1.00  0.00     0.176 HD
ATOM     10  H11 UNL     1      -0.639  27.808  24.514  1.00  0.00     0.176 HD
ENDBRANCH   6   8
ENDBRANCH   5   6
BRANCH   5  11
HETATM   11  O1  UNL     1      -1.954  25.253  25.827  1.00  0.00    -0.330 OA
ATOM     12  H1  UNL     1      -1.255  24.984  25.242  1.00  0.00     0.221 HD
ENDBRANCH   5  11
ENDBRANCH   1   5
BRANCH   1  13
HETATM   13  N4  UNL     1      -2.450  27.157  28.643  1.00  0.00    -0.262 N
HETATM   14  C2  UNL     1      -1.865  26.296  29.407  1.00  0.00     0.216 C
HETATM   15  N5  UNL     1      -1.464  25.016  28.972  1.00  0.00    -0.065 NA
HETATM   16  N6  UNL     1      -1.619  26.675  30.754  1.00  0.00    -0.065 NA
ATOM     17  H4  UNL     1      -2.713  28.067  29.022  1.00  0.00     0.190 HD
ENDBRANCH   1  13
TORSDOF 5
ENDMDL