MODEL 4
REMARK VINA RESULT: -6.303367980      2.504      5.128
REMARK  3 active torsions:
REMARK  status: ('A' for Active; 'I' for Inactive)
REMARK    1  A    between atoms: O1_1  and  N1_3
REMARK    2  A    between atoms: N1_3  and  N2_5
REMARK       I    between atoms: N2_5  and  C1_7
REMARK       I    between atoms: C1_7  and  N3_9
REMARK    3  A    between atoms: N3_9  and  C2_11
ROOT
HETATM    1  N2  UNL     1      -3.426  27.055  27.658  1.00  0.00    -0.231 N
ATOM      2  H2  UNL     1      -4.275  27.415  27.222  1.00  0.00     0.193 HD
HETATM    3  C1  UNL     1      -2.366  26.557  26.860  1.00  0.00     0.354 C
HETATM    4  O2  UNL     1      -1.305  26.105  27.363  1.00  0.00    -0.245 OA
HETATM    5  N3  UNL     1      -2.501  26.566  25.453  1.00  0.00    -0.138 N
ATOM      6  H3  UNL     1      -3.292  26.086  25.022  1.00  0.00     0.189 HD
ENDROOT
BRANCH   5   7
HETATM    7  C2  UNL     1      -1.654  27.163  24.716  1.00  0.00     0.705 A
HETATM    8  N4  UNL     1      -1.854  27.491  23.429  1.00  0.00    -0.128 N
HETATM    9  N5  UNL     1      -0.735  28.102  23.008  1.00  0.00    -0.237 N
ATOM     10  H4  UNL     1      -2.694  27.310  22.878  1.00  0.00     0.205 HD
HETATM   11  C3  UNL     1       0.129  28.136  24.049  1.00  0.00     0.353 A
ATOM     12  H5  UNL     1      -0.567  28.474  22.074  1.00  0.00     0.192 HD
HETATM   13  O3  UNL     1       1.289  28.631  24.045  1.00  0.00    -0.245 OA
HETATM   14  N6  UNL     1      -0.434  27.553  25.120  1.00  0.00    -0.138 N
ATOM     15  H6  UNL     1      -0.023  27.431  26.046  1.00  0.00     0.189 HD
ENDBRANCH   5   7
BRANCH   1  16
HETATM   16  N1  UNL     1      -3.295  27.046  29.038  1.00  0.00    -0.206 N
ATOM     17  H1  UNL     1      -3.967  26.548  29.621  1.00  0.00     0.215 HD
BRANCH  16  18
HETATM   18  O1  UNL     1      -2.344  27.654  29.548  1.00  0.00    -0.274 OA
ATOM     19  H1  UNL     1      -2.302  27.724  30.494  1.00  0.00     0.246 HD
ENDBRANCH  16  18
ENDBRANCH   1  16
TORSDOF 3
ENDMDL