MODEL 1
REMARK VINA RESULT: -6.300556292      0.000      0.000
REMARK  2 active torsions:
REMARK  status: ('A' for Active; 'I' for Inactive)
REMARK    1  A    between atoms: C1_4  and  N2_5
REMARK    2  A    between atoms: C1_4  and  C3_10
REMARK       I    between atoms: C3_10  and  N5_12
ROOT
HETATM    1  N1  UNL     1      -2.146  27.391  23.350  1.00  0.00    -0.381 N
ATOM      2  H11 UNL     1      -2.984  26.853  23.130  1.00  0.00     0.157 HD
ATOM      3  H12 UNL     1      -1.695  27.994  22.662  1.00  0.00     0.157 HD
HETATM    4  C1  UNL     1      -1.657  27.296  24.529  1.00  0.00     0.170 C
ENDROOT
BRANCH   4   5
HETATM    5  N2  UNL     1      -0.491  28.043  24.836  1.00  0.00    -0.315 N
HETATM    6  C2  UNL     1       0.635  27.820  24.261  1.00  0.00     0.202 C
HETATM    7  N3  UNL     1       0.698  26.789  23.294  1.00  0.00    -0.066 NA
HETATM    8  N4  UNL     1       1.796  28.566  24.568  1.00  0.00    -0.066 NA
ATOM      9  H2  UNL     1      -0.549  28.783  25.536  1.00  0.00     0.170 HD
ENDBRANCH   4   5
BRANCH   4  10
HETATM   10  C3  UNL     1      -2.297  26.438  25.506  1.00  0.00     0.291 C
HETATM   11  O1  UNL     1      -2.229  25.189  25.368  1.00  0.00    -0.264 OA
HETATM   12  N5  UNL     1      -3.007  26.992  26.628  1.00  0.00    -0.297 N
HETATM   13  C4  UNL     1      -2.580  26.743  27.804  1.00  0.00     0.203 C
ATOM     14  H5  UNL     1      -3.834  27.571  26.486  1.00  0.00     0.171 HD
HETATM   15  N6  UNL     1      -3.255  27.272  28.950  1.00  0.00    -0.066 NA
HETATM   16  N7  UNL     1      -1.433  25.940  28.026  1.00  0.00    -0.066 NA
ENDBRANCH   4  10
TORSDOF 2
ENDMDL