MODEL 2
REMARK VINA RESULT: -6.223046585      1.981      4.273
REMARK  2 active torsions:
REMARK  status: ('A' for Active; 'I' for Inactive)
REMARK       I    between atoms: C1_4  and  N3_6
REMARK       I    between atoms: C2_8  and  N5_10
REMARK       I    between atoms: N5_10  and  C3_12
REMARK    1  A    between atoms: C3_12  and  C4_14
REMARK    2  A    between atoms: N6_15  and  O2_17
ROOT
HETATM    1  N1  UNL     1       1.055  29.146  25.254  1.00  0.00    -0.373 N
ATOM      2  H11 UNL     1       0.220  29.730  25.213  1.00  0.00     0.158 HD
ATOM      3  H12 UNL     1       1.812  29.444  25.869  1.00  0.00     0.158 HD
HETATM    4  C1  UNL     1       1.076  28.090  24.528  1.00  0.00     0.188 C
HETATM    5  N2  UNL     1       2.237  27.278  24.585  1.00  0.00    -0.064 NA
HETATM    6  N3  UNL     1       0.027  27.677  23.676  1.00  0.00    -0.305 N
ATOM      7  H3  UNL     1       0.162  27.745  22.667  1.00  0.00     0.171 HD
HETATM    8  C2  UNL     1      -1.101  27.212  24.122  1.00  0.00     0.197 C
HETATM    9  N4  UNL     1      -2.060  26.836  23.145  1.00  0.00    -0.063 NA
HETATM   10  N5  UNL     1      -1.363  27.085  25.503  1.00  0.00    -0.296 N
ATOM     11  H5  UNL     1      -0.647  27.366  26.174  1.00  0.00     0.171 HD
HETATM   12  C3  UNL     1      -2.579  26.586  25.975  1.00  0.00     0.265 C
HETATM   13  O1  UNL     1      -3.430  26.253  25.058  1.00  0.00    -0.267 OA
ENDROOT
BRANCH  12  14
HETATM   14  C4  UNL     1      -2.978  26.404  27.337  1.00  0.00     0.188 C
HETATM   15  N6  UNL     1      -2.278  26.078  28.331  1.00  0.00    -0.275 N
ATOM     16  H6  UNL     1      -2.747  25.999  29.234  1.00  0.00     0.193 HD
BRANCH  15  17
HETATM   17  O2  UNL     1      -0.943  25.825  28.289  1.00  0.00    -0.290 OA
ATOM     18  H2  UNL     1      -0.272  26.397  28.643  1.00  0.00     0.244 HD
ENDBRANCH  15  17
ENDBRANCH  12  14
TORSDOF 2
ENDMDL