MODEL 4
REMARK VINA RESULT: -7.324388775      3.366      4.930
REMARK  4 active torsions:
REMARK  status: ('A' for Active; 'I' for Inactive)
REMARK       I    between atoms: C2_2  and  N1_4
REMARK    1  A    between atoms: N1_4  and  C3_6
REMARK    2  A    between atoms: C8_11  and  C9_12
REMARK       I    between atoms: C9_12  and  N2_14
REMARK    3  A    between atoms: C10_16  and  C11_17
REMARK       I    between atoms: C11_17  and  N3_19
REMARK    4  A    between atoms: N3_19  and  N4_21
REMARK       I    between atoms: N4_21  and  C12_23
REMARK       I    between atoms: N6_25  and  C13_27
ROOT
HETATM    1  C9  UNL     1      -2.859  23.925  31.535  1.00  0.00     0.227 C
HETATM    2  O2  UNL     1      -4.026  23.585  31.132  1.00  0.00    -0.273 OA
HETATM    3  N2  UNL     1      -1.746  23.579  30.812  1.00  0.00    -0.331 N
ATOM      4  H2  UNL     1      -1.324  22.710  31.140  1.00  0.00     0.168 HD
HETATM    5  C10 UNL     1      -1.122  24.074  29.845  1.00  0.00     0.166 C
ENDROOT
BRANCH   5   6
HETATM    6  C11 UNL     1      -1.369  25.272  29.091  1.00  0.00     0.275 C
HETATM    7  O3  UNL     1      -1.435  26.381  29.730  1.00  0.00    -0.265 OA
HETATM    8  N3  UNL     1      -1.551  25.344  27.680  1.00  0.00    -0.263 N
ATOM      9  H3  UNL     1      -1.511  24.497  27.113  1.00  0.00     0.190 HD
BRANCH   8  10
HETATM   10  N4  UNL     1      -1.786  26.601  27.073  1.00  0.00    -0.271 N
HETATM   11  C12 UNL     1      -1.663  26.802  25.681  1.00  0.00     0.209 C
HETATM   12  N5  UNL     1      -2.683  26.313  24.824  1.00  0.00    -0.062 NA
HETATM   13  N6  UNL     1      -0.659  27.414  25.166  1.00  0.00    -0.304 N
HETATM   14  C13 UNL     1      -0.516  27.627  23.775  1.00  0.00     0.188 C
ATOM     15  H6  UNL     1       0.069  27.764  25.790  1.00  0.00     0.171 HD
HETATM   16  N7  UNL     1      -1.169  28.563  23.200  1.00  0.00    -0.373 N
HETATM   17  N8  UNL     1       0.358  26.799  23.014  1.00  0.00    -0.064 NA
ATOM     18  H72 UNL     1      -1.795  29.156  23.745  1.00  0.00     0.158 HD
ATOM     19  H71 UNL     1      -1.066  28.716  22.197  1.00  0.00     0.158 HD
ATOM     20  H4  UNL     1      -2.055  27.389  27.662  1.00  0.00     0.189 HD
ENDBRANCH   8  10
ENDBRANCH   5   6
BRANCH   1  21
HETATM   21  C8  UNL     1      -2.812  24.693  32.801  1.00  0.00     0.101 C
HETATM   22  C3  UNL     1      -1.445  25.195  33.129  1.00  0.00     0.097 C
HETATM   23  C4  UNL     1      -1.637  26.350  34.120  1.00  0.00     0.026 C
HETATM   24  C5  UNL     1      -2.874  26.213  34.934  1.00  0.00     0.002 C
HETATM   25  C6  UNL     1      -3.358  24.829  35.180  1.00  0.00     0.001 C
HETATM   26  C7  UNL     1      -3.347  23.942  33.970  1.00  0.00     0.016 C
BRANCH  22  27
HETATM   27  N1  UNL     1      -0.593  24.245  33.800  1.00  0.00    -0.356 N
HETATM   28  C2  UNL     1       0.763  24.099  33.428  1.00  0.00     0.213 C
HETATM   29  C1  UNL     1       1.702  23.158  34.060  1.00  0.00     0.117 C
HETATM   30  O1  UNL     1       1.203  24.817  32.496  1.00  0.00    -0.274 OA
ATOM     31  H1  UNL     1      -0.973  23.672  34.553  1.00  0.00     0.162 HD
ENDBRANCH  22  27
ENDBRANCH   1  21
TORSDOF 4
ENDMDL