MODEL 5
REMARK VINA RESULT: -7.283998802      2.399      2.972
REMARK  4 active torsions:
REMARK  status: ('A' for Active; 'I' for Inactive)
REMARK       I    between atoms: N3_4  and  C2_6
REMARK    1  A    between atoms: C2_6  and  C3_8
REMARK    2  A    between atoms: C3_8  and  C4_9
REMARK    3  A    between atoms: C4_9  and  C5_10
REMARK    4  A    between atoms: C5_10  and  N4_11
ROOT
HETATM    1  N4  UNL     1      -4.338  26.252  29.148  1.00  0.00    -0.392 N
HETATM    2  C6  UNL     1      -3.324  26.455  30.067  1.00  0.00     0.123 C
HETATM    3  C7  UNL     1      -1.949  26.133  29.459  1.00  0.00     0.039 C
HETATM    4  C8  UNL     1      -1.531  24.725  29.723  1.00  0.00     0.115 C
HETATM    5  N5  UNL     1      -0.526  24.577  30.732  1.00  0.00    -0.420 N
ATOM      6  H5  UNL     1       0.377  25.048  30.668  1.00  0.00     0.153 HD
HETATM    7  C9  UNL     1      -0.861  23.731  31.832  1.00  0.00     0.141 C
HETATM    8  C10 UNL     1      -1.337  22.372  31.445  1.00  0.00     0.251 C
HETATM    9  N6  UNL     1      -2.329  21.833  32.334  1.00  0.00    -0.074 N
ATOM     10  H61 UNL     1      -1.888  21.452  33.171  1.00  0.00     0.277 HD
ATOM     11  H62 UNL     1      -2.730  20.979  31.945  1.00  0.00     0.277 HD
HETATM   12  C11 UNL     1      -3.373  22.764  32.692  1.00  0.00     0.234 C
HETATM   13  C12 UNL     1      -4.747  22.144  32.731  1.00  0.00     0.055 C
HETATM   14  C13 UNL     1      -5.751  23.258  32.398  1.00  0.00     0.234 C
HETATM   15  N7  UNL     1      -5.802  23.500  30.985  1.00  0.00    -0.074 N
ATOM     16  H71 UNL     1      -6.601  23.028  30.562  1.00  0.00     0.277 HD
ATOM     17  H72 UNL     1      -5.047  23.013  30.504  1.00  0.00     0.277 HD
HETATM   18  C14 UNL     1      -5.801  24.933  30.651  1.00  0.00     0.252 C
HETATM   19  C15 UNL     1      -5.194  25.121  29.298  1.00  0.00     0.149 C
ENDROOT
BRANCH   1  20
HETATM   20  C5  UNL     1      -5.017  27.325  28.549  1.00  0.00     0.058 C
BRANCH  20  21
HETATM   21  C4  UNL     1      -4.427  27.950  27.341  1.00  0.00     0.053 C
BRANCH  21  22
HETATM   22  C3  UNL     1      -4.575  26.993  26.178  1.00  0.00     0.108 C
BRANCH  22  23
HETATM   23  C2  UNL     1      -3.267  26.530  25.672  1.00  0.00     0.224 C
HETATM   24  N3  UNL     1      -2.158  27.343  25.446  1.00  0.00    -0.304 N
HETATM   25  C1  UNL     1      -1.650  27.433  24.267  1.00  0.00     0.203 C
ATOM     26  H3  UNL     1      -1.747  27.868  26.218  1.00  0.00     0.171 HD
HETATM   27  N1  UNL     1      -2.231  26.700  23.209  1.00  0.00    -0.066 NA
HETATM   28  N2  UNL     1      -0.528  28.234  23.965  1.00  0.00    -0.066 NA
HETATM   29  O1  UNL     1      -3.152  25.296  25.427  1.00  0.00    -0.273 OA
ENDBRANCH  22  23
ENDBRANCH  21  22
ENDBRANCH  20  21
ENDBRANCH   1  20
TORSDOF 4
ENDMDL