MODEL 1
REMARK VINA RESULT: -7.718959984      0.000      0.000
REMARK  5 active torsions:
REMARK  status: ('A' for Active; 'I' for Inactive)
REMARK       I    between atoms: C1_4  and  N2_5
REMARK       I    between atoms: C1_4  and  N3_10
REMARK    1  A    between atoms: N2_5  and  C2_7
REMARK    2  A    between atoms: C2_7  and  C3_8
REMARK       I    between atoms: N3_10  and  C4_12
REMARK    3  A    between atoms: C4_12  and  C5_14
REMARK       I    between atoms: N4_19  and  C10_20
REMARK       I    between atoms: C10_20  and  N5_22
REMARK    4  A    between atoms: N5_22  and  N6_24
REMARK    5  A    between atoms: N6_24  and  C11_26
ROOT
HETATM    1  C5  UNL     1      -4.238  26.610  28.150  1.00  0.00     0.181 C
HETATM    2  C6  UNL     1      -5.020  27.894  28.571  1.00  0.00     0.035 C
HETATM    3  C7  UNL     1      -5.913  28.421  27.526  1.00  0.00     0.004 C
HETATM    4  C8  UNL     1      -6.127  27.307  26.503  1.00  0.00     0.020 C
HETATM    5  C9  UNL     1      -4.823  27.034  25.834  1.00  0.00     0.129 C
HETATM    6  N4  UNL     1      -3.751  26.697  26.837  1.00  0.00    -0.319 N
HETATM    7  C10 UNL     1      -2.465  26.501  26.297  1.00  0.00     0.337 C
HETATM    8  O3  UNL     1      -1.429  26.188  26.894  1.00  0.00    -0.245 OA
HETATM    9  N5  UNL     1      -2.282  26.678  24.867  1.00  0.00    -0.250 N
ATOM     10  H5  UNL     1      -3.090  26.939  24.301  1.00  0.00     0.192 HD
ENDROOT
BRANCH   1  11
HETATM   11  C4  UNL     1      -3.399  26.255  29.277  1.00  0.00     0.259 C
HETATM   12  N3  UNL     1      -2.450  27.228  29.744  1.00  0.00    -0.159 N
HETATM   13  C1  UNL     1      -1.563  27.066  30.817  1.00  0.00     0.674 C
ATOM     14  H3  UNL     1      -2.418  28.119  29.248  1.00  0.00     0.187 HD
HETATM   15  N1  UNL     1      -0.776  28.030  31.117  1.00  0.00    -0.235 N
HETATM   16  N2  UNL     1      -1.521  25.864  31.549  1.00  0.00    -0.220 N
ATOM     17  H12 UNL     1      -0.131  27.911  31.898  1.00  0.00     0.174 HD
ATOM     18  H11 UNL     1      -0.806  28.901  30.587  1.00  0.00     0.174 HD
ATOM     19  H2  UNL     1      -2.397  25.484  31.909  1.00  0.00     0.178 HD
HETATM   20  O2  UNL     1      -3.442  25.180  29.865  1.00  0.00    -0.270 OA
BRANCH  16  21
HETATM   21  C2  UNL     1      -0.295  25.140  31.816  1.00  0.00     0.207 C
BRANCH  21  22
HETATM   22  C3  UNL     1       0.479  25.654  32.962  1.00  0.00     0.251 C
HETATM   23  O1  UNL     1       1.368  26.461  32.874  1.00  0.00    -0.305 OA
ENDBRANCH  21  22
ENDBRANCH  16  21
ENDBRANCH   1  11
BRANCH   9  24
HETATM   24  N6  UNL     1      -1.062  26.508  24.238  1.00  0.00    -0.275 N
ATOM     25  H6  UNL     1      -0.685  25.566  24.130  1.00  0.00     0.189 HD
BRANCH  24  26
HETATM   26  C11 UNL     1      -0.323  27.614  23.740  1.00  0.00     0.199 C
HETATM   27  N7  UNL     1      -0.536  28.039  22.401  1.00  0.00    -0.068 NA
HETATM   28  S1  UNL     1       0.760  28.401  24.668  1.00  0.00    -0.043 SA
ENDBRANCH  24  26
ENDBRANCH   9  24
TORSDOF 5
ENDMDL