MODEL 4
REMARK VINA RESULT: -6.731712607      4.618      8.366
REMARK  6 active torsions:
REMARK  status: ('A' for Active; 'I' for Inactive)
REMARK       I    between atoms: N1_2  and  C2_4
REMARK    1  A    between atoms: C2_4  and  C3_6
REMARK    2  A    between atoms: N2_10  and  C7_11
REMARK    3  A    between atoms: C7_11  and  O2_12
REMARK    4  A    between atoms: C7_11  and  C8_14
REMARK    5  A    between atoms: C8_14  and  N3_15
REMARK       I    between atoms: N3_15  and  C9_17
REMARK    6  A    between atoms: C12_24  and  N6_25
ROOT
HETATM    1  C8  UNL     1       0.850  23.851  33.566  1.00  0.00     0.099 C
HETATM    2  C10 UNL     1       0.820  22.660  32.537  1.00  0.00     0.042 C
HETATM    3  C11 UNL     1      -0.017  23.161  31.407  1.00  0.00     0.028 C
HETATM    4  C12 UNL     1      -0.379  24.574  31.762  1.00  0.00     0.086 C
HETATM    5  C14 UNL     1      -0.480  24.473  33.307  1.00  0.00     0.065 C
ENDROOT
BRANCH   1   6
HETATM    6  C7  UNL     1       1.083  23.191  34.850  1.00  0.00     0.143 C
BRANCH   6   7
HETATM    7  N2  UNL     1       0.367  23.112  36.022  1.00  0.00    -0.350 N
HETATM    8  C3  UNL     1       0.448  23.850  37.246  1.00  0.00     0.178 C
HETATM    9  C4  UNL     1      -0.885  24.563  37.216  1.00  0.00     0.037 C
HETATM   10  C5  UNL     1      -1.783  23.380  36.817  1.00  0.00     0.022 C
HETATM   11  C6  UNL     1      -0.803  22.292  36.282  1.00  0.00     0.126 C
BRANCH   8  12
HETATM   12  C2  UNL     1       1.595  24.588  37.644  1.00  0.00     0.240 C
HETATM   13  N1  UNL     1       1.395  25.660  38.604  1.00  0.00    -0.364 N
HETATM   14  C1  UNL     1       2.483  26.477  39.079  1.00  0.00     0.149 C
ATOM     15  H1  UNL     1       0.454  25.840  38.953  1.00  0.00     0.161 HD
HETATM   16  O1  UNL     1       2.804  24.471  37.296  1.00  0.00    -0.271 OA
ENDBRANCH   8  12
ENDBRANCH   6   7
BRANCH   6  17
HETATM   17  O2  UNL     1       2.212  22.543  34.861  1.00  0.00    -0.347 OA
ATOM     18  H2  UNL     1       2.424  22.134  35.692  1.00  0.00     0.219 HD
ENDBRANCH   6  17
ENDBRANCH   1   6
BRANCH   1  19
HETATM   19  N3  UNL     1       1.893  24.749  33.140  1.00  0.00    -0.348 N
HETATM   20  C9  UNL     1       2.324  25.949  33.707  1.00  0.00     0.182 C
HETATM   21  N4  UNL     1       3.216  25.965  34.624  1.00  0.00    -0.374 N
HETATM   22  N5  UNL     1       1.808  27.193  33.269  1.00  0.00    -0.064 NA
ATOM     23  H42 UNL     1       3.587  25.070  34.940  1.00  0.00     0.158 HD
ATOM     24  H41 UNL     1       3.531  26.842  35.039  1.00  0.00     0.158 HD
ATOM     25  H3  UNL     1       2.392  24.464  32.297  1.00  0.00     0.163 HD
ENDBRANCH   1  19
BRANCH   4  26
HETATM   26  N6  UNL     1      -1.667  24.965  31.223  1.00  0.00    -0.362 N
HETATM   27  C13 UNL     1      -1.800  26.174  30.813  1.00  0.00     0.197 C
HETATM   28  N7  UNL     1      -0.789  27.151  30.848  1.00  0.00    -0.067 NA
HETATM   29  N8  UNL     1      -3.070  26.570  30.277  1.00  0.00    -0.067 NA
ATOM     30  H6  UNL     1      -2.440  24.301  31.170  1.00  0.00     0.162 HD
ENDBRANCH   4  26
TORSDOF 6
ENDMDL