MODEL 1
REMARK VINA RESULT: -8.106477797      0.000      0.000
REMARK  4 active torsions:
REMARK  status: ('A' for Active; 'I' for Inactive)
REMARK       I    between atoms: C2_5  and  N4_7
REMARK    1  A    between atoms: N4_7  and  C3_9
REMARK    2  A    between atoms: C3_9  and  C4_10
REMARK    3  A    between atoms: C3_9  and  N8_16
REMARK    4  A    between atoms: C4_10  and  N5_11
REMARK       I    between atoms: N8_16  and  C6_18
REMARK       I    between atoms: C6_18  and  N9_20
ROOT
HETATM    1  N1  UNL     1       0.089  28.445  23.784  1.00  0.00    -0.172 NA
HETATM    2  C1  UNL     1      -0.455  27.912  24.657  1.00  0.00     0.184 C
HETATM    3  N2  UNL     1      -1.124  27.245  25.714  1.00  0.00    -0.267 N
ATOM      4  H2  UNL     1      -0.772  27.327  26.668  1.00  0.00     0.180 HD
HETATM    5  C2  UNL     1      -2.158  26.545  25.480  1.00  0.00     0.199 C
HETATM    6  N3  UNL     1      -2.668  26.415  24.160  1.00  0.00    -0.063 NA
HETATM    7  N4  UNL     1      -2.812  25.883  26.550  1.00  0.00    -0.341 N
ATOM      8  H4  UNL     1      -2.799  24.864  26.571  1.00  0.00     0.164 HD
ENDROOT
BRANCH   7   9
HETATM    9  C3  UNL     1      -3.502  26.593  27.624  1.00  0.00     0.206 C
BRANCH   9  10
HETATM   10  C4  UNL     1      -4.166  27.822  27.044  1.00  0.00     0.168 C
BRANCH  10  11
HETATM   11  N5  UNL     1      -5.182  27.536  26.086  1.00  0.00    -0.363 N
HETATM   12  C5  UNL     1      -6.409  27.706  26.375  1.00  0.00     0.197 C
HETATM   13  N6  UNL     1      -7.389  27.405  25.376  1.00  0.00    -0.067 NA
HETATM   14  N7  UNL     1      -6.893  28.177  27.626  1.00  0.00    -0.067 NA
ATOM     15  H5  UNL     1      -4.923  27.193  25.161  1.00  0.00     0.161 HD
ENDBRANCH  10  11
ENDBRANCH   9  10
BRANCH   9  16
HETATM   16  N8  UNL     1      -2.616  26.908  28.711  1.00  0.00    -0.320 N
HETATM   17  C6  UNL     1      -2.203  25.908  29.612  1.00  0.00     0.320 C
HETATM   18  O1  UNL     1      -2.654  24.722  29.411  1.00  0.00    -0.247 OA
HETATM   19  N9  UNL     1      -1.339  26.098  30.713  1.00  0.00    -0.329 N
HETATM   20  C7  UNL     1      -0.809  27.408  30.995  1.00  0.00     0.128 C
HETATM   21  C14 UNL     1      -0.979  25.009  31.551  1.00  0.00     0.093 C
HETATM   22  C8  UNL     1      -0.718  27.713  32.484  1.00  0.00     0.020 C
HETATM   23  C9  UNL     1      -0.273  26.526  33.304  1.00  0.00     0.008 C
HETATM   24  C10 UNL     1       0.230  25.482  32.374  1.00  0.00     0.009 C
HETATM   25  C11 UNL     1       0.595  24.183  33.042  1.00  0.00     0.007 C
HETATM   26  C12 UNL     1       0.512  23.206  31.889  1.00  0.00     0.002 C
HETATM   27  C13 UNL     1      -0.398  23.828  30.859  1.00  0.00     0.026 C
ATOM     28  H8  UNL     1      -2.282  27.865  28.830  1.00  0.00     0.166 HD
ENDBRANCH   9  16
ENDBRANCH   7   9
TORSDOF 4
ENDMDL