MODEL 5
REMARK VINA RESULT: -7.777788722      0.946      2.537
REMARK  6 active torsions:
REMARK  status: ('A' for Active; 'I' for Inactive)
REMARK    1  A    between atoms: C2_2  and  N1_4
REMARK       I    between atoms: N1_4  and  C4_6
REMARK       I    between atoms: C4_6  and  N7_28
REMARK    2  A    between atoms: N2_7  and  C5_9
REMARK    3  A    between atoms: C5_9  and  C6_10
REMARK    4  A    between atoms: C6_10  and  O1_11
REMARK    5  A    between atoms: C6_10  and  N3_13
REMARK    6  A    between atoms: C11_18  and  C12_19
REMARK       I    between atoms: C12_19  and  N4_21
REMARK       I    between atoms: N4_21  and  C13_23
ROOT
HETATM    1  N1  UNL     1      -0.006  25.099  32.929  1.00  0.00    -0.222 N
ATOM      2  H1  UNL     1      -0.369  24.738  33.810  1.00  0.00     0.178 HD
HETATM    3  C4  UNL     1      -0.485  24.611  31.694  1.00  0.00     0.683 C
HETATM    4  N2  UNL     1      -1.576  25.080  31.215  1.00  0.00    -0.218 N
ATOM      5  H2  UNL     1      -2.045  25.797  31.769  1.00  0.00     0.178 HD
HETATM    6  N7  UNL     1       0.243  23.615  31.008  1.00  0.00    -0.126 N
ATOM      7  H7  UNL     1       0.775  23.867  30.174  1.00  0.00     0.197 HD
HETATM    8  C14 UNL     1       0.249  22.290  31.452  1.00  0.00     0.196 C
HETATM    9  N8  UNL     1       0.242  21.195  31.837  1.00  0.00    -0.171 NA
ENDROOT
BRANCH   1  10
HETATM   10  C2  UNL     1       1.014  26.127  32.914  1.00  0.00     0.091 C
HETATM   11  C1  UNL     1       0.426  27.471  33.175  1.00  0.00     0.032 C
HETATM   12  C3  UNL     1       2.078  25.754  33.930  1.00  0.00     0.032 C
ENDBRANCH   1  10
BRANCH   4  13
HETATM   13  C5  UNL     1      -2.197  24.712  30.003  1.00  0.00     0.222 C
BRANCH  13  14
HETATM   14  C6  UNL     1      -2.534  25.840  29.148  1.00  0.00     0.133 C
BRANCH  14  15
HETATM   15  O1  UNL     1      -1.503  26.644  28.967  1.00  0.00    -0.348 OA
ATOM     16  H1  UNL     1      -0.876  26.282  28.351  1.00  0.00     0.219 HD
ENDBRANCH  14  15
BRANCH  14  17
HETATM   17  N3  UNL     1      -3.695  26.229  28.506  1.00  0.00    -0.351 N
HETATM   18  C7  UNL     1      -4.956  25.572  28.539  1.00  0.00     0.125 C
HETATM   19  C8  UNL     1      -5.825  26.437  29.473  1.00  0.00     0.020 C
HETATM   20  C9  UNL     1      -5.871  27.811  28.916  1.00  0.00     0.004 C
HETATM   21  C10 UNL     1      -5.059  28.089  27.708  1.00  0.00     0.035 C
HETATM   22  C11 UNL     1      -3.682  27.475  27.711  1.00  0.00     0.178 C
BRANCH  22  23
HETATM   23  C12 UNL     1      -3.311  27.181  26.299  1.00  0.00     0.247 C
HETATM   24  O2  UNL     1      -4.182  26.799  25.464  1.00  0.00    -0.271 OA
HETATM   25  N4  UNL     1      -1.983  27.311  25.832  1.00  0.00    -0.300 N
HETATM   26  C13 UNL     1      -1.620  27.036  24.498  1.00  0.00     0.188 C
ATOM     27  H4  UNL     1      -1.260  27.616  26.484  1.00  0.00     0.171 HD
HETATM   28  N5  UNL     1      -0.393  27.169  24.114  1.00  0.00    -0.373 N
HETATM   29  N6  UNL     1      -2.631  26.608  23.583  1.00  0.00    -0.064 NA
ATOM     30  H52 UNL     1       0.329  27.474  24.768  1.00  0.00     0.158 HD
ATOM     31  H51 UNL     1      -0.130  26.970  23.149  1.00  0.00     0.158 HD
ENDBRANCH  22  23
ENDBRANCH  14  17
ENDBRANCH  13  14
ENDBRANCH   4  13
TORSDOF 6
ENDMDL