MODEL 2
REMARK VINA RESULT: -7.549543043      2.200      2.951
REMARK  8 active torsions:
REMARK  status: ('A' for Active; 'I' for Inactive)
REMARK    1  A    between atoms: N1_3  and  C3_5
REMARK    2  A    between atoms: C3_5  and  O1_6
REMARK    3  A    between atoms: C3_5  and  N2_8
REMARK    4  A    between atoms: N2_8  and  N3_9
REMARK       I    between atoms: N3_9  and  C4_11
REMARK    5  A    between atoms: C4_11  and  C5_13
REMARK    6  A    between atoms: N4_18  and  C10_19
REMARK    7  A    between atoms: C10_19  and  C11_20
REMARK    8  A    between atoms: C11_20  and  C12_21
REMARK       I    between atoms: N5_24  and  C13_26
ROOT
HETATM    1  C1  UNL     1       2.230  28.813  25.442  1.00  0.00     0.037 C
HETATM    2  C2  UNL     1       1.654  28.085  24.722  1.00  0.00     0.003 C
HETATM    3  N1  UNL     1       0.961  27.225  23.800  1.00  0.00    -0.268 N
ATOM      4  H1  UNL     1       1.451  26.522  23.245  1.00  0.00     0.181 HD
ENDROOT
BRANCH   3   5
HETATM    5  C3  UNL     1      -0.425  27.410  23.707  1.00  0.00     0.326 C
BRANCH   5   6
HETATM    6  O1  UNL     1      -0.734  27.973  22.517  1.00  0.00    -0.320 OA
ATOM      7  H1  UNL     1      -0.896  28.902  22.633  1.00  0.00     0.222 HD
ENDBRANCH   5   6
BRANCH   5   8
HETATM    8  N2  UNL     1      -1.455  27.175  24.500  1.00  0.00    -0.276 NA
BRANCH   8   9
HETATM    9  N3  UNL     1      -2.506  26.929  25.302  1.00  0.00    -0.197 N
HETATM   10  C4  UNL     1      -2.900  26.333  26.495  1.00  0.00     0.269 C
HETATM   11  O2  UNL     1      -2.131  25.776  27.292  1.00  0.00    -0.269 OA
ATOM     12  H3  UNL     1      -3.333  27.337  24.867  1.00  0.00     0.205 HD
BRANCH  10  13
HETATM   13  C5  UNL     1      -4.374  26.367  26.899  1.00  0.00     0.180 C
HETATM   14  C6  UNL     1      -5.094  27.382  26.030  1.00  0.00     0.035 C
HETATM   15  C7  UNL     1      -6.601  27.290  26.188  1.00  0.00     0.004 C
HETATM   16  C8  UNL     1      -7.043  26.913  27.561  1.00  0.00     0.020 C
HETATM   17  C9  UNL     1      -6.062  27.003  28.629  1.00  0.00     0.125 C
HETATM   18  N4  UNL     1      -4.647  26.572  28.236  1.00  0.00    -0.357 N
BRANCH  18  19
HETATM   19  C10 UNL     1      -3.920  26.577  29.492  1.00  0.00     0.092 C
HETATM   20  N5  UNL     1      -2.919  27.296  29.527  1.00  0.00    -0.320 N
HETATM   21  C13 UNL     1      -2.010  27.535  30.570  1.00  0.00     0.187 C
ATOM     22  H5  UNL     1      -2.720  27.797  28.661  1.00  0.00     0.169 HD
HETATM   23  N6  UNL     1      -2.423  28.393  31.483  1.00  0.00    -0.373 N
HETATM   24  N7  UNL     1      -0.742  26.977  30.630  1.00  0.00    -0.064 NA
ATOM     25  H62 UNL     1      -3.356  28.803  31.439  1.00  0.00     0.158 HD
ATOM     26  H61 UNL     1      -1.762  28.567  32.241  1.00  0.00     0.158 HD
BRANCH  19  27
HETATM   27  C11 UNL     1      -4.492  25.830  30.620  1.00  0.00     0.189 C
BRANCH  27  28
HETATM   28  C12 UNL     1      -4.120  24.462  30.874  1.00  0.00     0.179 C
HETATM   29  O3  UNL     1      -4.822  23.494  31.160  1.00  0.00    -0.648 OA
HETATM   30  O4  UNL     1      -2.704  24.189  30.759  1.00  0.00    -0.648 OA
ENDBRANCH  27  28
ENDBRANCH  19  27
ENDBRANCH  18  19
ENDBRANCH  10  13
ENDBRANCH   8   9
ENDBRANCH   5   8
ENDBRANCH   3   5
TORSDOF 8
ENDMDL