MODEL 4
REMARK VINA RESULT: -7.608405303      3.927      4.824
REMARK  4 active torsions:
REMARK  status: ('A' for Active; 'I' for Inactive)
REMARK       I    between atoms: C1_4  and  N3_6
REMARK       I    between atoms: C2_8  and  N5_10
REMARK    1  A    between atoms: N5_10  and  C3_12
REMARK    2  A    between atoms: C5_17  and  N7_18
REMARK       I    between atoms: N7_18  and  C6_19
REMARK    3  A    between atoms: C6_19  and  C7_21
REMARK    4  A    between atoms: C8_22  and  N8_23
ROOT
HETATM    1  C3  UNL     1      -4.288  27.071  26.247  1.00  0.00     0.356 C
HETATM    2  N6  UNL     1      -4.706  25.718  26.412  1.00  0.00    -0.044 N
ATOM      3  H61 UNL     1      -3.919  25.070  26.376  1.00  0.00     0.280 HD
ATOM      4  H62 UNL     1      -5.220  25.377  25.599  1.00  0.00     0.280 HD
HETATM    5  C4  UNL     1      -5.466  25.573  27.628  1.00  0.00     0.275 C
HETATM    6  C5  UNL     1      -4.511  25.846  28.825  1.00  0.00     0.200 C
HETATM    7  C13 UNL     1      -4.402  27.388  28.818  1.00  0.00     0.123 C
HETATM    8  C14 UNL     1      -4.758  27.858  27.442  1.00  0.00     0.179 C
HETATM    9  O2  UNL     1      -5.418  28.869  27.329  1.00  0.00    -0.294 OA
ENDROOT
BRANCH   1  10
HETATM   10  N5  UNL     1      -2.853  27.250  26.182  1.00  0.00    -0.331 N
HETATM   11  C2  UNL     1      -2.084  27.226  25.004  1.00  0.00     0.192 C
HETATM   12  N3  UNL     1      -0.851  27.555  25.039  1.00  0.00    -0.305 N
HETATM   13  N4  UNL     1      -2.687  26.836  23.792  1.00  0.00    -0.063 NA
HETATM   14  C1  UNL     1       0.050  27.586  23.965  1.00  0.00     0.188 C
ATOM     15  H3  UNL     1      -0.480  27.826  25.950  1.00  0.00     0.171 HD
HETATM   16  N1  UNL     1       0.258  26.493  23.313  1.00  0.00    -0.373 N
HETATM   17  N2  UNL     1       0.746  28.750  23.549  1.00  0.00    -0.064 NA
ATOM     18  H12 UNL     1       0.914  26.515  22.532  1.00  0.00     0.158 HD
ATOM     19  H11 UNL     1      -0.242  25.657  23.612  1.00  0.00     0.158 HD
ATOM     20  H5  UNL     1      -2.360  27.406  27.062  1.00  0.00     0.164 HD
ENDBRANCH   1  10
BRANCH   6  21
HETATM   21  N7  UNL     1      -5.063  25.384  29.993  1.00  0.00    -0.404 NA
HETATM   22  C6  UNL     1      -5.617  24.927  31.161  1.00  0.00     0.312 C
HETATM   23  O1  UNL     1      -6.482  25.496  31.868  1.00  0.00    -0.252 OA
BRANCH  22  24
HETATM   24  C7  UNL     1      -5.199  23.606  31.716  1.00  0.00     0.106 C
HETATM   25  C8  UNL     1      -3.950  23.229  31.675  1.00  0.00     0.092 C
BRANCH  25  26
HETATM   26  N8  UNL     1      -3.459  22.021  32.169  1.00  0.00    -0.390 N
HETATM   27  C9  UNL     1      -4.019  20.707  32.127  1.00  0.00     0.122 C
HETATM   28  C10 UNL     1      -2.833  19.824  31.810  1.00  0.00     0.021 C
HETATM   29  C11 UNL     1      -1.617  20.668  32.144  1.00  0.00     0.021 C
HETATM   30  C12 UNL     1      -2.176  21.889  32.866  1.00  0.00     0.122 C
ENDBRANCH  25  26
ENDBRANCH  22  24
ENDBRANCH   6  21
TORSDOF 4
ENDMDL