MODEL 2
REMARK VINA RESULT: -7.572558347      1.781      3.563
REMARK  9 active torsions:
REMARK  status: ('A' for Active; 'I' for Inactive)
REMARK    1  A    between atoms: C3_3  and  C4_4
REMARK    2  A    between atoms: C3_3  and  O1_6
REMARK    3  A    between atoms: O1_6  and  C6_7
REMARK    4  A    between atoms: C6_7  and  C7_8
REMARK    5  A    between atoms: C7_8  and  N1_9
REMARK    6  A    between atoms: N1_9  and  C8_11
REMARK    7  A    between atoms: C9_14  and  N3_15
REMARK       I    between atoms: N3_15  and  C10_17
REMARK    8  A    between atoms: C11_24  and  N7_25
REMARK    9  A    between atoms: N7_25  and  C12_27
ROOT
HETATM    1  C8  UNL     1      -2.288  26.848  29.053  1.00  0.00     0.707 A
HETATM    2  N2  UNL     1      -3.455  27.495  28.933  1.00  0.00    -0.021 N
ATOM      3  H2  UNL     1      -3.931  27.812  29.778  1.00  0.00     0.203 HD
HETATM    4  C9  UNL     1      -4.027  27.743  27.732  1.00  0.00     0.713 A
HETATM    5  N6  UNL     1      -3.359  27.307  26.648  1.00  0.00    -0.021 N
ATOM      6  H6  UNL     1      -3.766  27.480  25.729  1.00  0.00     0.203 HD
HETATM    7  C11 UNL     1      -2.190  26.656  26.709  1.00  0.00     0.713 A
HETATM    8  N9  UNL     1      -1.662  26.432  27.938  1.00  0.00    -0.021 N
ATOM      9  H9  UNL     1      -0.772  25.939  28.019  1.00  0.00     0.203 HD
ENDROOT
BRANCH   1  10
HETATM   10  N1  UNL     1      -1.743  26.611  30.186  1.00  0.00    -0.223 N
ATOM     11  H1  UNL     1      -1.683  25.635  30.480  1.00  0.00     0.177 HD
BRANCH  10  12
HETATM   12  C7  UNL     1      -1.212  27.593  31.073  1.00  0.00     0.164 C
BRANCH  12  13
HETATM   13  C6  UNL     1      -0.502  26.883  32.198  1.00  0.00     0.195 C
BRANCH  13  14
HETATM   14  O1  UNL     1       0.310  25.833  31.787  1.00  0.00    -0.354 OA
BRANCH  14  15
HETATM   15  C3  UNL     1       0.599  24.708  32.544  1.00  0.00     0.042 C
HETATM   16  C2  UNL     1       0.359  23.537  31.996  1.00  0.00     0.001 C
HETATM   17  C1  UNL     1      -0.194  23.382  30.637  1.00  0.00     0.038 C
BRANCH  15  18
HETATM   18  C4  UNL     1       1.153  24.770  33.907  1.00  0.00     0.060 C
HETATM   19  C5  UNL     1       2.624  24.342  33.929  1.00  0.00     0.012 C
ENDBRANCH  15  18
ENDBRANCH  14  15
ENDBRANCH  13  14
ENDBRANCH  12  13
ENDBRANCH  10  12
ENDBRANCH   1  10
BRANCH   4  20
HETATM   20  N3  UNL     1      -5.127  28.350  27.564  1.00  0.00    -0.163 N
HETATM   21  C10 UNL     1      -6.302  27.838  27.025  1.00  0.00     0.200 C
HETATM   22  N4  UNL     1      -7.217  27.369  27.790  1.00  0.00    -0.373 N
HETATM   23  N5  UNL     1      -6.504  27.827  25.625  1.00  0.00    -0.063 NA
ATOM     24  H42 UNL     1      -7.071  27.377  28.800  1.00  0.00     0.158 HD
ATOM     25  H41 UNL     1      -8.078  26.993  27.395  1.00  0.00     0.158 HD
ATOM     26  H3  UNL     1      -5.154  29.326  27.859  1.00  0.00     0.187 HD
ENDBRANCH   4  20
BRANCH   7  27
HETATM   27  N7  UNL     1      -1.631  26.280  25.627  1.00  0.00    -0.167 N
ATOM     28  H7  UNL     1      -1.168  25.371  25.635  1.00  0.00     0.186 HD
BRANCH  27  29
HETATM   29  C12 UNL     1      -1.597  27.004  24.425  1.00  0.00     0.199 C
HETATM   30  N8  UNL     1      -2.571  26.741  23.414  1.00  0.00    -0.069 NA
HETATM   31  S1  UNL     1      -0.491  28.162  24.087  1.00  0.00    -0.044 SA
ENDBRANCH  27  29
ENDBRANCH   7  27
TORSDOF 9
ENDMDL