MODEL 1
REMARK VINA RESULT: -7.234821252      0.000      0.000
REMARK  4 active torsions:
REMARK  status: ('A' for Active; 'I' for Inactive)
REMARK    1  A    between atoms: N5_24  and  C12_25
REMARK    2  A    between atoms: C12_25  and  C13_26
REMARK    3  A    between atoms: C13_26  and  C14_27
REMARK    4  A    between atoms: C14_27  and  N6_28
ROOT
HETATM    1  N1  UNL     1      -1.443  23.756  30.430  1.00  0.00    -0.387 N
ATOM      2  H11 UNL     1      -1.738  23.138  31.185  1.00  0.00     0.157 HD
ATOM      3  H12 UNL     1      -0.875  23.451  29.639  1.00  0.00     0.157 HD
HETATM    4  C1  UNL     1      -1.795  24.973  30.465  1.00  0.00     0.102 C
HETATM    5  C2  UNL     1      -1.365  25.875  29.364  1.00  0.00     0.307 C
HETATM    6  N2  UNL     1      -1.659  25.273  28.078  1.00  0.00    -0.067 N
ATOM      7  H21 UNL     1      -2.473  24.660  28.131  1.00  0.00     0.277 HD
ATOM      8  H22 UNL     1      -0.955  24.582  27.822  1.00  0.00     0.277 HD
HETATM    9  C3  UNL     1      -1.820  26.274  27.040  1.00  0.00     0.260 C
HETATM   10  C4  UNL     1      -2.819  25.797  26.051  1.00  0.00     0.260 C
HETATM   11  N3  UNL     1      -3.752  26.802  25.618  1.00  0.00    -0.065 N
ATOM     12  H31 UNL     1      -4.378  26.433  24.902  1.00  0.00     0.277 HD
ATOM     13  H32 UNL     1      -3.282  27.524  25.073  1.00  0.00     0.277 HD
HETATM   14  C5  UNL     1      -4.503  27.386  26.705  1.00  0.00     0.334 C
HETATM   15  C6  UNL     1      -5.974  27.275  26.511  1.00  0.00     0.243 C
HETATM   16  O1  UNL     1      -6.555  28.311  26.059  1.00  0.00    -0.272 OA
HETATM   17  N4  UNL     1      -6.752  26.149  26.779  1.00  0.00    -0.360 N
ATOM     18  H4  UNL     1      -7.462  25.913  26.085  1.00  0.00     0.162 HD
HETATM   19  C7  UNL     1      -6.666  25.282  27.927  1.00  0.00     0.122 C
HETATM   20  C8  UNL     1      -6.397  25.993  29.218  1.00  0.00     0.020 C
HETATM   21  C9  UNL     1      -5.362  25.139  29.968  1.00  0.00     0.003 C
HETATM   22  C10 UNL     1      -5.013  25.708  31.298  1.00  0.00     0.020 C
HETATM   23  C11 UNL     1      -3.670  26.376  31.358  1.00  0.00     0.129 C
HETATM   24  N5  UNL     1      -2.584  25.395  31.560  1.00  0.00    -0.349 N
ENDROOT
BRANCH  24  25
HETATM   25  C12 UNL     1      -2.409  24.948  32.878  1.00  0.00     0.067 C
BRANCH  25  26
HETATM   26  C13 UNL     1      -1.938  25.847  33.937  1.00  0.00     0.064 C
BRANCH  26  27
HETATM   27  C14 UNL     1      -0.720  26.596  33.343  1.00  0.00     0.127 C
BRANCH  27  28
HETATM   28  N6  UNL     1       0.410  25.697  33.460  1.00  0.00    -0.367 N
HETATM   29  C15 UNL     1       1.631  26.109  33.382  1.00  0.00     0.196 C
HETATM   30  N7  UNL     1       1.853  27.483  33.177  1.00  0.00    -0.067 NA
HETATM   31  N8  UNL     1       2.701  25.197  33.501  1.00  0.00    -0.067 NA
ATOM     32  H6  UNL     1       0.234  24.703  33.608  1.00  0.00     0.161 HD
ENDBRANCH  27  28
ENDBRANCH  26  27
ENDBRANCH  25  26
ENDBRANCH  24  25
TORSDOF 4
ENDMDL