MODEL 1
REMARK VINA RESULT: -6.836248407      0.000      0.000
REMARK  3 active torsions:
REMARK  status: ('A' for Active; 'I' for Inactive)
REMARK    1  A    between atoms: C2_2  and  N1_3
REMARK    2  A    between atoms: C2_2  and  C5_11
REMARK       I    between atoms: N1_3  and  C3_5
REMARK       I    between atoms: C3_5  and  N2_7
REMARK       I    between atoms: C5_11  and  N4_13
REMARK    3  A    between atoms: N4_13  and  C6_15
ROOT
HETATM    1  N1  UNL     1      -5.652  26.613  28.766  1.00  0.00    -0.329 N
ATOM      2  H1  UNL     1      -4.999  25.868  28.523  1.00  0.00     0.165 HD
HETATM    3  C3  UNL     1      -6.267  27.353  27.733  1.00  0.00     0.329 C
HETATM    4  O1  UNL     1      -7.087  28.289  27.994  1.00  0.00    -0.246 OA
HETATM    5  N2  UNL     1      -5.995  27.081  26.373  1.00  0.00    -0.245 N
ATOM      6  H2  UNL     1      -5.339  26.333  26.146  1.00  0.00     0.183 HD
HETATM    7  C4  UNL     1      -6.578  27.785  25.336  1.00  0.00     0.185 C
HETATM    8  N3  UNL     1      -7.079  28.364  24.467  1.00  0.00    -0.172 NA
ENDROOT
BRANCH   1   9
HETATM    9  C2  UNL     1      -5.927  26.886  30.165  1.00  0.00     0.174 C
HETATM   10  C1  UNL     1      -7.063  25.952  30.572  1.00  0.00     0.042 C
BRANCH   9  11
HETATM   11  C5  UNL     1      -4.717  26.657  30.978  1.00  0.00     0.240 C
HETATM   12  O2  UNL     1      -4.828  26.486  32.219  1.00  0.00    -0.271 OA
HETATM   13  N4  UNL     1      -3.443  26.638  30.334  1.00  0.00    -0.355 N
ATOM     14  H4  UNL     1      -3.383  26.781  29.326  1.00  0.00     0.162 HD
BRANCH  13  15
HETATM   15  C6  UNL     1      -2.217  26.413  31.113  1.00  0.00     0.086 C
HETATM   16  C7  UNL     1      -1.273  25.638  30.288  1.00  0.00     0.025 C
HETATM   17  C8  UNL     1      -1.353  24.161  30.385  1.00  0.00     0.004 C
HETATM   18  C9  UNL     1      -1.705  23.583  31.700  1.00  0.00     0.020 C
HETATM   19  C10 UNL     1      -0.599  23.540  32.716  1.00  0.00     0.122 C
HETATM   20  N5  UNL     1       0.561  24.328  32.365  1.00  0.00    -0.360 N
HETATM   21  C11 UNL     1       1.142  25.327  33.191  1.00  0.00     0.243 C
ATOM     22  H5  UNL     1       0.995  24.154  31.459  1.00  0.00     0.162 HD
HETATM   23  O3  UNL     1       2.392  25.465  33.263  1.00  0.00    -0.272 OA
HETATM   24  C12 UNL     1       0.328  26.266  34.017  1.00  0.00     0.334 C
HETATM   25  N6  UNL     1      -0.859  26.694  33.302  1.00  0.00    -0.067 N
HETATM   26  C13 UNL     1      -0.600  27.820  32.437  1.00  0.00     0.235 C
ATOM     27  H62 UNL     1      -1.277  25.920  32.786  1.00  0.00     0.277 HD
ATOM     28  H61 UNL     1      -1.625  26.892  33.946  1.00  0.00     0.277 HD
HETATM   29  C14 UNL     1      -1.643  27.817  31.343  1.00  0.00     0.052 C
ENDBRANCH  13  15
ENDBRANCH   9  11
ENDBRANCH   1   9
TORSDOF 3
ENDMDL