MODEL 3
REMARK VINA RESULT: -7.491051435      1.920      2.841
REMARK  9 active torsions:
REMARK  status: ('A' for Active; 'I' for Inactive)
REMARK    1  A    between atoms: N1_1  and  S1_4
REMARK    2  A    between atoms: S1_4  and  N2_6
REMARK    3  A    between atoms: S1_4  and  N7_21
REMARK       I    between atoms: N2_6  and  C1_8
REMARK       I    between atoms: C1_8  and  N3_10
REMARK    4  A    between atoms: N3_10  and  N4_12
REMARK    5  A    between atoms: N4_12  and  C2_13
REMARK    6  A    between atoms: C2_13  and  O3_14
REMARK    7  A    between atoms: C2_13  and  N5_16
REMARK    8  A    between atoms: N5_16  and  C3_17
REMARK    9  A    between atoms: C3_17  and  O4_19
ROOT
HETATM    1  N2  UNL     1      -1.655  24.593  28.151  1.00  0.00    -0.234 N
ATOM      2  H2  UNL     1      -1.562  23.617  27.869  1.00  0.00     0.183 HD
HETATM    3  C1  UNL     1      -1.164  24.957  29.370  1.00  0.00     0.358 C
HETATM    4  O2  UNL     1      -1.285  26.063  29.874  1.00  0.00    -0.244 OA
HETATM    5  N3  UNL     1      -0.432  23.916  30.066  1.00  0.00    -0.179 N
ATOM      6  H3  UNL     1      -0.295  22.977  29.691  1.00  0.00     0.207 HD
ENDROOT
BRANCH   1   7
HETATM    7  S1  UNL     1      -2.443  25.712  27.027  1.00  0.00     0.201 S
HETATM    8  O1  UNL     1      -2.850  25.138  25.820  1.00  0.00    -0.205 OA
BRANCH   7   9
HETATM    9  N1  UNL     1      -1.252  26.727  26.746  1.00  0.00    -0.328 N
ATOM     10  H12 UNL     1      -0.282  26.575  27.024  1.00  0.00     0.168 HD
ATOM     11  H11 UNL     1      -1.616  27.541  26.251  1.00  0.00     0.168 HD
ENDBRANCH   7   9
BRANCH   7  12
HETATM   12  N7  UNL     1      -3.704  26.442  27.942  1.00  0.00    -0.290 N
HETATM   13  C4  UNL     1      -3.963  27.727  27.358  1.00  0.00     0.145 C
HETATM   14  C5  UNL     1      -5.387  28.101  27.239  1.00  0.00     0.005 C
HETATM   15  C6  UNL     1      -6.210  27.245  26.344  1.00  0.00     0.007 C
HETATM   16  C9  UNL     1      -6.012  27.827  28.634  1.00  0.00     0.016 C
HETATM   17  C7  UNL     1      -6.727  26.084  27.189  1.00  0.00     0.010 C
HETATM   18  C8  UNL     1      -6.115  26.290  28.550  1.00  0.00     0.025 C
HETATM   19  C10 UNL     1      -4.710  25.704  28.454  1.00  0.00     0.080 C
ENDBRANCH   7  12
ENDBRANCH   1   7
BRANCH   5  20
HETATM   20  N4  UNL     1       0.085  24.349  31.353  1.00  0.00    -0.262 NA
BRANCH  20  21
HETATM   21  C2  UNL     1       0.528  24.696  32.417  1.00  0.00     0.399 C
BRANCH  21  22
HETATM   22  O3  UNL     1       0.345  23.824  33.555  1.00  0.00    -0.308 OA
ATOM     23  H3  UNL     1      -0.293  24.070  34.214  1.00  0.00     0.223 HD
ENDBRANCH  21  22
BRANCH  21  24
HETATM   24  N5  UNL     1       1.176  25.813  32.964  1.00  0.00    -0.312 NA
BRANCH  24  25
HETATM   25  C3  UNL     1       1.648  26.895  33.536  1.00  0.00     0.310 C
HETATM   26  N6  UNL     1       1.331  28.325  33.501  1.00  0.00    -0.042 NA
BRANCH  25  27
HETATM   27  O4  UNL     1       2.690  26.812  34.425  1.00  0.00    -0.324 OA
ATOM     28  H4  UNL     1       2.660  27.290  35.246  1.00  0.00     0.221 HD
ENDBRANCH  25  27
ENDBRANCH  24  25
ENDBRANCH  21  24
ENDBRANCH  20  21
ENDBRANCH   5  20
TORSDOF 9
ENDMDL