MODEL 3
REMARK VINA RESULT: -7.120835319      2.564      5.661
REMARK  3 active torsions:
REMARK  status: ('A' for Active; 'I' for Inactive)
REMARK    1  A    between atoms: N3_4  and  C2_6
REMARK    2  A    between atoms: C2_6  and  C3_7
REMARK    3  A    between atoms: C3_7  and  C4_8
ROOT
HETATM    1  C4  UNL     1      -1.692  25.411  30.911  1.00  0.00     0.171 C
HETATM    2  N4  UNL     1      -2.090  25.056  29.594  1.00  0.00    -0.409 N
ATOM      3  H4  UNL     1      -2.746  24.297  29.406  1.00  0.00     0.154 HD
HETATM    4  C5  UNL     1      -1.502  25.847  28.545  1.00  0.00     0.114 C
HETATM    5  C6  UNL     1      -2.031  25.274  27.225  1.00  0.00     0.021 C
HETATM    6  C7  UNL     1      -2.087  26.309  26.148  1.00  0.00     0.029 C
HETATM    7  C8  UNL     1      -3.305  27.168  26.192  1.00  0.00     0.232 C
HETATM    8  N5  UNL     1      -4.507  26.447  26.540  1.00  0.00    -0.075 N
ATOM      9  H51 UNL     1      -4.448  26.037  27.472  1.00  0.00     0.277 HD
ATOM     10  H52 UNL     1      -4.603  25.587  26.002  1.00  0.00     0.277 HD
HETATM   11  C9  UNL     1      -5.654  27.297  26.401  1.00  0.00     0.233 C
HETATM   12  C10 UNL     1      -5.788  28.307  27.504  1.00  0.00     0.055 C
HETATM   13  C11 UNL     1      -6.444  27.737  28.732  1.00  0.00     0.233 C
HETATM   14  N6  UNL     1      -5.478  27.456  29.793  1.00  0.00    -0.075 N
ATOM     15  H61 UNL     1      -4.533  27.757  29.553  1.00  0.00     0.277 HD
ATOM     16  H62 UNL     1      -5.285  26.459  29.893  1.00  0.00     0.277 HD
HETATM   17  C12 UNL     1      -5.953  28.049  31.007  1.00  0.00     0.234 C
HETATM   18  C13 UNL     1      -5.460  27.277  32.225  1.00  0.00     0.047 C
HETATM   19  C14 UNL     1      -3.969  27.030  32.166  1.00  0.00     0.124 C
HETATM   20  N7  UNL     1      -3.681  25.651  32.506  1.00  0.00    -0.359 N
ATOM     21  H7  UNL     1      -4.197  25.238  33.282  1.00  0.00     0.162 HD
HETATM   22  C15 UNL     1      -2.737  24.838  31.838  1.00  0.00     0.240 C
HETATM   23  O1  UNL     1      -2.690  23.584  31.963  1.00  0.00    -0.271 OA
ENDROOT
BRANCH   1  24
HETATM   24  C3  UNL     1      -0.383  24.788  31.336  1.00  0.00     0.054 C
BRANCH  24  25
HETATM   25  C2  UNL     1      -0.019  25.148  32.756  1.00  0.00     0.124 C
BRANCH  25  26
HETATM   26  N3  UNL     1      -0.006  26.595  32.852  1.00  0.00    -0.367 N
HETATM   27  C1  UNL     1       1.059  27.232  33.194  1.00  0.00     0.196 C
HETATM   28  N1  UNL     1       0.992  28.647  33.267  1.00  0.00    -0.067 NA
HETATM   29  N2  UNL     1       2.226  26.507  33.477  1.00  0.00    -0.067 NA
ATOM     30  H3  UNL     1      -0.857  27.118  32.646  1.00  0.00     0.161 HD
ENDBRANCH  25  26
ENDBRANCH  24  25
ENDBRANCH   1  24
TORSDOF 3
ENDMDL