MODEL 1
REMARK VINA RESULT: -6.958116200      0.000      0.000
REMARK  6 active torsions:
REMARK  status: ('A' for Active; 'I' for Inactive)
REMARK    1  A    between atoms: N1_2  and  C2_4
REMARK    2  A    between atoms: C2_4  and  N2_6
REMARK    3  A    between atoms: N2_6  and  N3_8
REMARK       I    between atoms: N3_8  and  C3_10
REMARK       I    between atoms: C3_10  and  N4_12
REMARK       I    between atoms: N4_12  and  C4_14
REMARK    4  A    between atoms: C4_14  and  C5_16
REMARK    5  A    between atoms: C5_16  and  N5_18
REMARK    6  A    between atoms: C5_16  and  C9_25
REMARK       I    between atoms: C7_20  and  N7_22
ROOT
HETATM    1  N3  UNL     1      -1.750  27.094  26.376  1.00  0.00    -0.249 N
ATOM      2  H3  UNL     1      -2.079  27.893  26.919  1.00  0.00     0.192 HD
HETATM    3  C3  UNL     1      -2.536  25.954  26.204  1.00  0.00     0.341 C
HETATM    4  O1  UNL     1      -2.022  25.016  25.480  1.00  0.00    -0.245 OA
HETATM    5  N4  UNL     1      -3.803  25.681  26.705  1.00  0.00    -0.276 N
ATOM      6  H4  UNL     1      -4.241  24.794  26.456  1.00  0.00     0.173 HD
HETATM    7  C4  UNL     1      -4.519  26.573  27.544  1.00  0.00     0.254 C
HETATM    8  O2  UNL     1      -4.049  27.661  27.845  1.00  0.00    -0.270 OA
ENDROOT
BRANCH   7   9
HETATM    9  C5  UNL     1      -5.868  26.206  28.089  1.00  0.00     0.113 C
HETATM   10  C6  UNL     1      -6.195  24.781  27.573  1.00  0.00     0.049 C
BRANCH   9  11
HETATM   11  N5  UNL     1      -5.895  26.227  29.460  1.00  0.00    -0.347 N
HETATM   12  C7  UNL     1      -5.409  25.791  30.479  1.00  0.00     0.184 C
HETATM   13  N6  UNL     1      -4.340  24.836  30.591  1.00  0.00    -0.064 NA
HETATM   14  N7  UNL     1      -5.892  26.208  31.795  1.00  0.00    -0.369 N
HETATM   15  C8  UNL     1      -7.304  26.118  32.064  1.00  0.00     0.148 C
ATOM     16  H7  UNL     1      -5.246  26.554  32.504  1.00  0.00     0.161 HD
ATOM     17  H5  UNL     1      -6.628  26.880  29.735  1.00  0.00     0.163 HD
ENDBRANCH   9  11
BRANCH   9  18
HETATM   18  C9  UNL     1      -6.964  27.054  27.459  1.00  0.00     0.015 C
HETATM   19  C10 UNL     1      -7.193  28.272  28.291  1.00  0.00     0.012 C
HETATM   20  C11 UNL     1      -6.762  27.387  26.029  1.00  0.00     0.012 C
ENDBRANCH   9  18
ENDBRANCH   7   9
BRANCH   1  21
HETATM   21  N2  UNL     1      -0.463  27.090  25.757  1.00  0.00    -0.272 N
ATOM     22  H2  UNL     1       0.268  26.495  26.147  1.00  0.00     0.189 HD
BRANCH  21  23
HETATM   23  C2  UNL     1      -0.165  27.878  24.629  1.00  0.00     0.186 C
HETATM   24  S1  UNL     1      -1.160  27.945  23.329  1.00  0.00    -0.040 SA
BRANCH  23  25
HETATM   25  N1  UNL     1       1.024  28.632  24.601  1.00  0.00    -0.370 N
HETATM   26  C1  UNL     1       2.137  28.231  25.434  1.00  0.00     0.148 C
ATOM     27  H1  UNL     1       1.100  29.452  23.999  1.00  0.00     0.161 HD
ENDBRANCH  23  25
ENDBRANCH  21  23
ENDBRANCH   1  21
TORSDOF 6
ENDMDL