MODEL 2
REMARK VINA RESULT: -7.003269621      2.667      3.752
REMARK  4 active torsions:
REMARK  status: ('A' for Active; 'I' for Inactive)
REMARK    1  A    between atoms: C1_2  and  C2_4
REMARK    2  A    between atoms: C2_4  and  N2_5
REMARK       I    between atoms: N2_5  and  C3_7
REMARK    3  A    between atoms: N4_9  and  O2_11
REMARK       I    between atoms: N5_15  and  C6_16
REMARK       I    between atoms: C6_16  and  N6_18
REMARK    4  A    between atoms: N6_18  and  C7_20
ROOT
HETATM    1  C2  UNL     1      -0.197  23.296  32.209  1.00  0.00     0.114 C
HETATM    2  C4  UNL     1      -0.168  24.315  31.124  1.00  0.00     0.060 C
HETATM    3  C5  UNL     1      -1.471  24.470  30.370  1.00  0.00     0.130 C
HETATM    4  N5  UNL     1      -2.522  24.782  31.307  1.00  0.00    -0.334 N
HETATM    5  C6  UNL     1      -3.695  25.438  30.876  1.00  0.00     0.318 C
HETATM    6  O3  UNL     1      -4.592  25.695  31.731  1.00  0.00    -0.247 OA
HETATM    7  N6  UNL     1      -3.890  25.816  29.501  1.00  0.00    -0.338 N
ATOM      8  H6  UNL     1      -3.163  25.606  28.817  1.00  0.00     0.164 HD
HETATM    9  C12 UNL     1      -2.379  24.421  32.695  1.00  0.00     0.130 C
HETATM   10  C13 UNL     1      -1.561  23.153  32.844  1.00  0.00     0.060 C
ENDROOT
BRANCH   7  11
HETATM   11  C7  UNL     1      -5.098  26.489  29.068  1.00  0.00     0.089 C
HETATM   12  C8  UNL     1      -4.688  27.753  28.343  1.00  0.00     0.052 C
HETATM   13  C9  UNL     1      -5.808  28.394  27.591  1.00  0.00     0.234 C
HETATM   14  N7  UNL     1      -7.015  27.608  27.566  1.00  0.00    -0.075 N
HETATM   15  C10 UNL     1      -6.734  26.249  27.184  1.00  0.00     0.234 C
ATOM     16  H72 UNL     1      -7.513  27.655  28.456  1.00  0.00     0.277 HD
ATOM     17  H71 UNL     1      -7.727  28.028  26.969  1.00  0.00     0.277 HD
HETATM   18  C11 UNL     1      -5.831  25.533  28.155  1.00  0.00     0.052 C
ENDBRANCH   7  11
BRANCH   1  19
HETATM   19  C1  UNL     1       0.172  21.930  31.716  1.00  0.00     0.259 C
HETATM   20  N1  UNL     1      -0.430  20.828  32.357  1.00  0.00    -0.060 NA
HETATM   21  O1  UNL     1       0.970  21.746  30.788  1.00  0.00    -0.274 OA
ENDBRANCH   1  19
BRANCH   1  22
HETATM   22  N2  UNL     1       0.766  23.658  33.241  1.00  0.00    -0.345 N
HETATM   23  C3  UNL     1       1.292  24.973  33.352  1.00  0.00     0.209 C
HETATM   24  N3  UNL     1       2.693  25.165  33.528  1.00  0.00    -0.062 NA
HETATM   25  N4  UNL     1       0.556  26.006  33.301  1.00  0.00    -0.241 N
ATOM     26  H4  UNL     1      -0.444  25.855  33.175  1.00  0.00     0.197 HD
ATOM     27  H2  UNL     1       1.070  22.946  33.905  1.00  0.00     0.163 HD
BRANCH  25  28
HETATM   28  O2  UNL     1       0.976  27.288  33.397  1.00  0.00    -0.287 OA
ATOM     29  H2  UNL     1       0.728  28.003  32.822  1.00  0.00     0.244 HD
ENDBRANCH  25  28
ENDBRANCH   1  22
TORSDOF 4
ENDMDL