MODEL 5
REMARK VINA RESULT: -6.334318184      3.261      7.989
REMARK  6 active torsions:
REMARK  status: ('A' for Active; 'I' for Inactive)
REMARK       I    between atoms: N1_3  and  C3_5
REMARK       I    between atoms: C3_5  and  N2_7
REMARK    1  A    between atoms: N2_7  and  C4_9
REMARK    2  A    between atoms: C4_9  and  C5_10
REMARK    3  A    between atoms: C5_10  and  N3_11
REMARK    4  A    between atoms: N3_11  and  C6_13
REMARK    5  A    between atoms: C6_13  and  N4_15
REMARK    6  A    between atoms: N4_15  and  N5_17
REMARK       I    between atoms: N5_17  and  C7_19
REMARK       I    between atoms: C7_19  and  N8_24
ROOT
HETATM    1  C1  UNL     1       2.484  21.901  36.904  1.00  0.00     0.123 C
HETATM    2  C2  UNL     1       2.107  22.524  35.925  1.00  0.00    -0.071 C
HETATM    3  N1  UNL     1       1.700  23.235  34.795  1.00  0.00    -0.278 N
ATOM      4  H1  UNL     1       1.732  24.255  34.803  1.00  0.00     0.180 HD
HETATM    5  C3  UNL     1       1.239  22.556  33.634  1.00  0.00     0.327 C
HETATM    6  O1  UNL     1       1.192  21.312  33.621  1.00  0.00    -0.246 OA
HETATM    7  N2  UNL     1       0.840  23.332  32.499  1.00  0.00    -0.338 N
ATOM      8  H2  UNL     1       0.885  24.350  32.529  1.00  0.00     0.164 HD
ENDROOT
BRANCH   7   9
HETATM    9  C4  UNL     1       0.365  22.644  31.288  1.00  0.00     0.169 C
BRANCH   9  10
HETATM   10  C5  UNL     1      -0.423  23.666  30.471  1.00  0.00     0.083 C
BRANCH  10  11
HETATM   11  N3  UNL     1      -0.627  24.895  31.127  1.00  0.00    -0.344 N
ATOM     12  H3  UNL     1      -0.384  24.909  32.118  1.00  0.00     0.167 HD
BRANCH  11  13
HETATM   13  C6  UNL     1      -1.111  26.088  30.618  1.00  0.00     0.190 C
HETATM   14  S1  UNL     1      -1.236  27.404  31.689  1.00  0.00    -0.039 SA
BRANCH  13  15
HETATM   15  N4  UNL     1      -1.530  26.393  29.327  1.00  0.00    -0.262 N
ATOM     16  H4  UNL     1      -0.949  26.003  28.584  1.00  0.00     0.190 HD
BRANCH  15  17
HETATM   17  N5  UNL     1      -2.609  27.142  28.890  1.00  0.00    -0.129 N
HETATM   18  C7  UNL     1      -3.116  27.102  27.531  1.00  0.00     0.704 C
HETATM   19  N6  UNL     1      -2.273  26.737  26.634  1.00  0.00    -0.125 N
HETATM   20  N8  UNL     1      -4.455  27.447  27.263  1.00  0.00    -0.216 N
HETATM   21  C8  UNL     1      -2.549  26.631  25.268  1.00  0.00     0.196 C
ATOM     22  H6  UNL     1      -1.328  26.507  26.941  1.00  0.00     0.197 HD
HETATM   23  N7  UNL     1      -2.792  26.563  24.149  1.00  0.00    -0.171 NA
HETATM   24  C9  UNL     1      -5.342  26.775  26.360  1.00  0.00     0.141 C
HETATM   25  C12 UNL     1      -5.194  28.533  27.857  1.00  0.00     0.141 C
HETATM   26  C10 UNL     1      -6.625  26.686  27.190  1.00  0.00     0.022 C
HETATM   27  C11 UNL     1      -6.647  28.033  27.871  1.00  0.00     0.022 C
ATOM     28  H5  UNL     1      -3.074  27.755  29.561  1.00  0.00     0.205 HD
ENDBRANCH  15  17
ENDBRANCH  13  15
ENDBRANCH  11  13
ENDBRANCH  10  11
ENDBRANCH   9  10
ENDBRANCH   7   9
TORSDOF 6
ENDMDL