MODEL 2
REMARK VINA RESULT: -7.182401176      2.211      6.171
REMARK  3 active torsions:
REMARK  status: ('A' for Active; 'I' for Inactive)
REMARK       I    between atoms: C1_4  and  N3_6
REMARK    1  A    between atoms: N3_6  and  C2_8
REMARK    2  A    between atoms: C2_8  and  C3_9
REMARK    3  A    between atoms: C3_9  and  C4_10
REMARK       I    between atoms: N4_13  and  C7_14
REMARK       I    between atoms: N7_24  and  C12_25
ROOT
HETATM    1  C2  UNL     1      -1.823  25.606  32.483  1.00  0.00     0.049 C
HETATM    2  C9  UNL     1      -2.597  25.752  33.762  1.00  0.00     0.034 C
HETATM    3  C10 UNL     1      -1.762  26.228  34.922  1.00  0.00     0.022 C
HETATM    4  C11 UNL     1      -0.631  25.208  35.089  1.00  0.00     0.127 C
HETATM    5  N7  UNL     1       0.201  25.426  33.929  1.00  0.00    -0.334 N
HETATM    6  C12 UNL     1       1.582  25.765  34.123  1.00  0.00     0.330 C
HETATM    7  N8  UNL     1       2.124  25.885  35.408  1.00  0.00    -0.040 NA
HETATM    8  O2  UNL     1       2.351  25.965  33.139  1.00  0.00    -0.251 OA
HETATM    9  C13 UNL     1      -0.388  25.288  32.625  1.00  0.00     0.158 C
ENDROOT
BRANCH   1  10
HETATM   10  N3  UNL     1      -2.441  24.442  31.799  1.00  0.00    -0.354 N
HETATM   11  C1  UNL     1      -1.826  23.204  31.648  1.00  0.00     0.182 C
HETATM   12  N1  UNL     1      -0.973  23.004  30.711  1.00  0.00    -0.374 N
HETATM   13  N2  UNL     1      -2.145  22.146  32.538  1.00  0.00    -0.064 NA
ATOM     14  H12 UNL     1      -0.522  22.096  30.601  1.00  0.00     0.158 HD
ATOM     15  H11 UNL     1      -0.743  23.764  30.071  1.00  0.00     0.158 HD
ATOM     16  H3  UNL     1      -3.378  24.558  31.414  1.00  0.00     0.163 HD
ENDBRANCH   1  10
BRANCH   1  17
HETATM   17  C3  UNL     1      -2.069  26.708  31.517  1.00  0.00     0.047 C
BRANCH  17  18
HETATM   18  C4  UNL     1      -2.903  26.552  30.350  1.00  0.00     0.082 C
HETATM   19  C5  UNL     1      -3.614  27.707  29.750  1.00  0.00     0.034 C
HETATM   20  C6  UNL     1      -3.989  27.171  28.348  1.00  0.00     0.135 C
HETATM   21  N4  UNL     1      -2.741  26.489  28.006  1.00  0.00    -0.292 N
HETATM   22  C7  UNL     1      -2.301  26.194  26.672  1.00  0.00     0.190 C
HETATM   23  C8  UNL     1      -2.021  26.157  29.183  1.00  0.00     0.230 C
HETATM   24  N5  UNL     1      -1.184  26.687  26.263  1.00  0.00    -0.373 N
HETATM   25  N6  UNL     1      -3.084  25.379  25.830  1.00  0.00    -0.063 NA
ATOM     26  H52 UNL     1      -0.618  27.277  26.872  1.00  0.00     0.158 HD
ATOM     27  H51 UNL     1      -0.871  26.478  25.315  1.00  0.00     0.158 HD
HETATM   28  O1  UNL     1      -0.885  25.640  29.185  1.00  0.00    -0.273 OA
ENDBRANCH  17  18
ENDBRANCH   1  17
TORSDOF 3
ENDMDL