MODEL 5
REMARK VINA RESULT: -7.238273347      3.214      7.380
REMARK  4 active torsions:
REMARK  status: ('A' for Active; 'I' for Inactive)
REMARK    1  A    between atoms: N1_2  and  S1_4
REMARK    2  A    between atoms: S1_4  and  N2_7
REMARK    3  A    between atoms: C6_12  and  C7_13
REMARK       I    between atoms: C7_13  and  N3_15
REMARK    4  A    between atoms: N3_15  and  N4_17
REMARK       I    between atoms: N4_17  and  C8_19
REMARK       I    between atoms: C8_19  and  N6_23
REMARK       I    between atoms: N6_23  and  C9_25
ROOT
HETATM    1  C7  UNL     1      -3.316  27.126  29.523  1.00  0.00     0.255 C
HETATM    2  O3  UNL     1      -4.139  26.833  30.411  1.00  0.00    -0.270 OA
HETATM    3  N3  UNL     1      -1.922  27.146  29.787  1.00  0.00    -0.254 N
ATOM      4  H3  UNL     1      -1.295  27.394  29.022  1.00  0.00     0.190 HD
ENDROOT
BRANCH   3   5
HETATM    5  N4  UNL     1      -1.357  26.850  31.018  1.00  0.00    -0.130 N
HETATM    6  C8  UNL     1      -1.012  25.543  31.450  1.00  0.00     0.693 C
HETATM    7  N5  UNL     1      -0.694  24.654  30.606  1.00  0.00    -0.233 N
HETATM    8  N6  UNL     1      -1.009  25.192  32.836  1.00  0.00    -0.163 N
ATOM      9  H52 UNL     1      -0.697  24.903  29.616  1.00  0.00     0.174 HD
ATOM     10  H51 UNL     1      -0.447  23.714  30.917  1.00  0.00     0.174 HD
HETATM   11  C9  UNL     1       0.214  25.189  33.548  1.00  0.00     0.200 C
ATOM     12  H6  UNL     1      -1.879  24.947  33.307  1.00  0.00     0.187 HD
HETATM   13  N7  UNL     1       0.269  25.448  34.824  1.00  0.00    -0.373 N
HETATM   14  N8  UNL     1       1.409  24.892  32.845  1.00  0.00    -0.063 NA
ATOM     15  H72 UNL     1      -0.590  25.662  35.330  1.00  0.00     0.158 HD
ATOM     16  H71 UNL     1       1.151  25.446  35.337  1.00  0.00     0.158 HD
ATOM     17  H4  UNL     1      -1.176  27.624  31.656  1.00  0.00     0.205 HD
ENDBRANCH   3   5
BRANCH   1  18
HETATM   18  C6  UNL     1      -3.816  27.467  28.132  1.00  0.00     0.169 C
HETATM   19  N2  UNL     1      -3.997  26.263  27.412  1.00  0.00    -0.180 NA
HETATM   20  C2  UNL     1      -5.100  26.198  26.500  1.00  0.00     0.110 C
HETATM   21  C3  UNL     1      -5.668  27.567  26.132  1.00  0.00     0.016 C
HETATM   22  C4  UNL     1      -6.108  28.271  27.385  1.00  0.00     0.003 C
HETATM   23  C5  UNL     1      -4.986  28.354  28.349  1.00  0.00     0.030 C
BRANCH  19  24
HETATM   24  S1  UNL     1      -2.500  25.834  26.689  1.00  0.00     0.299 S
HETATM   25  O1  UNL     1      -1.678  24.993  27.661  1.00  0.00    -0.188 OA
HETATM   26  O2  UNL     1      -2.776  24.924  25.526  1.00  0.00    -0.188 OA
BRANCH  24  27
HETATM   27  N1  UNL     1      -1.542  27.122  26.162  1.00  0.00    -0.311 N
HETATM   28  C1  UNL     1      -1.622  27.237  24.720  1.00  0.00     0.160 C
ATOM     29  H1  UNL     1      -0.990  27.728  26.768  1.00  0.00     0.172 HD
ENDBRANCH  24  27
ENDBRANCH  19  24
ENDBRANCH   1  18
TORSDOF 4
ENDMDL