MODEL 3
REMARK VINA RESULT: -7.712219232      1.996      2.835
REMARK  3 active torsions:
REMARK  status: ('A' for Active; 'I' for Inactive)
REMARK    1  A    between atoms: C8_8  and  N1_9
REMARK    2  A    between atoms: C8_8  and  C13_26
REMARK       I    between atoms: N1_9  and  C9_11
REMARK    3  A    between atoms: C9_11  and  C10_13
REMARK       I    between atoms: C10_13  and  N2_15
REMARK       I    between atoms: N2_15  and  C11_17
REMARK       I    between atoms: N4_19  and  C12_21
ROOT
HETATM    1  N1  UNL     1      -4.047  26.080  28.822  1.00  0.00    -0.333 N
ATOM      2  H1  UNL     1      -3.119  26.474  28.974  1.00  0.00     0.164 HD
HETATM    3  C9  UNL     1      -4.453  25.685  27.528  1.00  0.00     0.310 C
HETATM    4  O1  UNL     1      -5.594  25.201  27.358  1.00  0.00    -0.262 OA
ENDROOT
BRANCH   3   5
HETATM    5  C10 UNL     1      -3.572  25.827  26.380  1.00  0.00     0.315 C
HETATM    6  O2  UNL     1      -3.547  24.935  25.498  1.00  0.00    -0.262 OA
HETATM    7  N2  UNL     1      -2.737  26.965  26.244  1.00  0.00    -0.293 N
HETATM    8  C11 UNL     1      -1.859  27.147  25.137  1.00  0.00     0.197 C
ATOM      9  H2  UNL     1      -2.767  27.683  26.969  1.00  0.00     0.172 HD
HETATM   10  N3  UNL     1      -1.845  26.121  24.144  1.00  0.00    -0.063 NA
HETATM   11  N4  UNL     1      -1.106  28.180  25.020  1.00  0.00    -0.305 N
HETATM   12  C12 UNL     1      -0.258  28.287  23.886  1.00  0.00     0.188 C
ATOM     13  H4  UNL     1      -1.117  28.912  25.730  1.00  0.00     0.171 HD
HETATM   14  N5  UNL     1      -0.721  28.272  22.677  1.00  0.00    -0.373 N
HETATM   15  N6  UNL     1       1.143  28.414  24.093  1.00  0.00    -0.064 NA
ATOM     16  H52 UNL     1      -1.726  28.181  22.528  1.00  0.00     0.158 HD
ATOM     17  H51 UNL     1      -0.112  28.349  21.862  1.00  0.00     0.158 HD
ENDBRANCH   3   5
BRANCH   1  18
HETATM   18  C8  UNL     1      -4.982  25.915  29.945  1.00  0.00     0.128 C
HETATM   19  C2  UNL     1      -4.278  26.477  31.152  1.00  0.00    -0.012 C
HETATM   20  C1  UNL     1      -5.202  26.941  32.244  1.00  0.00     0.018 C
HETATM   21  C3  UNL     1      -3.359  27.630  30.808  1.00  0.00     0.018 C
HETATM   22  C4  UNL     1      -3.382  25.401  31.780  1.00  0.00     0.012 C
HETATM   23  C5  UNL     1      -4.271  24.309  32.304  1.00  0.00     0.001 C
HETATM   24  C6  UNL     1      -5.352  23.879  31.388  1.00  0.00     0.003 C
HETATM   25  C7  UNL     1      -5.353  24.495  30.034  1.00  0.00     0.043 C
BRANCH  18  26
HETATM   26  C13 UNL     1      -6.126  26.804  29.636  1.00  0.00     0.203 C
HETATM   27  O3  UNL     1      -6.027  27.994  29.243  1.00  0.00    -0.646 OA
HETATM   28  O4  UNL     1      -7.418  26.323  29.781  1.00  0.00    -0.646 OA
ENDBRANCH  18  26
ENDBRANCH   1  18
TORSDOF 3
ENDMDL