MODEL 2
REMARK VINA RESULT: -5.864700566      3.079      4.190
REMARK  3 active torsions:
REMARK  status: ('A' for Active; 'I' for Inactive)
REMARK    1  A    between atoms: C2_2  and  C3_3
REMARK    2  A    between atoms: C3_3  and  C4_4
REMARK    3  A    between atoms: C4_4  and  C5_5
ROOT
HETATM    1  C5  UNL     1      -2.287  26.072  29.995  1.00  0.00     0.176 C
HETATM    2  N1  UNL     1      -1.767  27.367  30.275  1.00  0.00    -0.348 N
ATOM      3  H1  UNL     1      -1.665  27.985  29.470  1.00  0.00     0.163 HD
HETATM    4  C6  UNL     1      -1.375  27.912  31.515  1.00  0.00     0.219 C
HETATM    5  O1  UNL     1      -1.809  29.067  31.881  1.00  0.00    -0.274 OA
HETATM    6  C7  UNL     1      -0.470  27.287  32.511  1.00  0.00     0.122 C
HETATM    7  C8  UNL     1      -1.165  26.900  33.784  1.00  0.00     0.129 C
HETATM    8  N2  UNL     1      -1.744  25.611  33.822  1.00  0.00    -0.386 N
ATOM      9  H2  UNL     1      -2.695  25.408  33.513  1.00  0.00     0.160 HD
HETATM   10  C9  UNL     1      -0.845  24.614  34.344  1.00  0.00     0.178 C
HETATM   11  N3  UNL     1      -1.347  23.266  34.306  1.00  0.00    -0.330 N
ATOM     12  H3  UNL     1      -1.032  22.673  35.073  1.00  0.00     0.169 HD
HETATM   13  C10 UNL     1      -2.200  22.633  33.383  1.00  0.00     0.172 C
HETATM   14  S1  UNL     1      -3.475  21.810  34.051  1.00  0.00    -0.041 SA
HETATM   15  N4  UNL     1      -2.154  22.580  31.969  1.00  0.00    -0.365 N
ATOM     16  H4  UNL     1      -3.052  22.702  31.502  1.00  0.00     0.161 HD
HETATM   17  C11 UNL     1      -1.041  22.383  31.099  1.00  0.00     0.141 C
HETATM   18  C12 UNL     1      -0.490  23.617  30.475  1.00  0.00     0.142 C
HETATM   19  N5  UNL     1      -1.040  23.995  29.223  1.00  0.00    -0.358 N
ATOM     20  H5  UNL     1      -1.086  23.301  28.477  1.00  0.00     0.162 HD
HETATM   21  C13 UNL     1      -1.526  25.304  28.972  1.00  0.00     0.240 C
HETATM   22  O2  UNL     1      -1.338  25.887  27.860  1.00  0.00    -0.271 OA
ENDROOT
BRANCH   1  23
HETATM   23  C4  UNL     1      -3.699  26.183  29.381  1.00  0.00     0.038 C
BRANCH  23  24
HETATM   24  C3  UNL     1      -4.100  27.631  29.241  1.00  0.00     0.029 C
BRANCH  24  25
HETATM   25  C2  UNL     1      -4.489  27.870  27.831  1.00  0.00    -0.037 C
HETATM   26  C1  UNL     1      -5.591  28.547  27.559  1.00  0.00     0.007 C
ENDBRANCH  24  25
ENDBRANCH  23  24
ENDBRANCH   1  23
TORSDOF 3
ENDMDL