MODEL 4
REMARK VINA RESULT: -6.546038470      4.423      6.987
REMARK  4 active torsions:
REMARK  status: ('A' for Active; 'I' for Inactive)
REMARK    1  A    between atoms: C2_2  and  S1_3
REMARK    2  A    between atoms: S1_3  and  C3_6
REMARK    3  A    between atoms: C6_11  and  C7_12
REMARK    4  A    between atoms: C9_14  and  O3_15
ROOT
HETATM    1  C3  UNL     1      -3.065  26.849  27.196  1.00  0.00     0.140 A
HETATM    2  N1  UNL     1      -2.342  26.938  28.300  1.00  0.00    -0.346 N
ATOM      3  H1  UNL     1      -1.335  26.787  28.349  1.00  0.00     0.167 HD
HETATM    4  C4  UNL     1      -3.139  27.263  29.375  1.00  0.00     0.034 A
HETATM    5  C5  UNL     1      -2.649  27.410  30.590  1.00  0.00     0.044 C
HETATM    6  C6  UNL     1      -4.429  27.386  28.935  1.00  0.00    -0.000 A
HETATM    7  C12 UNL     1      -4.345  27.119  27.556  1.00  0.00    -0.011 A
HETATM    8  C13 UNL     1      -5.490  27.130  26.632  1.00  0.00     0.052 C
ENDROOT
BRANCH   6   9
HETATM    9  C7  UNL     1      -5.531  27.677  29.559  1.00  0.00     0.035 C
HETATM   10  C8  UNL     1      -6.182  27.101  30.691  1.00  0.00     0.084 A
HETATM   11  C9  UNL     1      -5.920  27.554  31.987  1.00  0.00     0.160 A
HETATM   12  C11 UNL     1      -7.116  26.099  30.483  1.00  0.00     0.263 A
HETATM   13  N2  UNL     1      -6.575  27.016  33.021  1.00  0.00    -0.288 N
HETATM   14  C10 UNL     1      -7.477  26.045  32.795  1.00  0.00     0.329 A
ATOM     15  H2  UNL     1      -6.393  27.338  33.971  1.00  0.00     0.172 HD
HETATM   16  O4  UNL     1      -8.076  25.558  33.793  1.00  0.00    -0.247 OA
HETATM   17  N3  UNL     1      -7.744  25.593  31.553  1.00  0.00    -0.275 N
ATOM     18  H3  UNL     1      -8.436  24.854  31.426  1.00  0.00     0.173 HD
HETATM   19  O5  UNL     1      -7.362  25.678  29.301  1.00  0.00    -0.267 OA
BRANCH  11  20
HETATM   20  O3  UNL     1      -4.985  28.558  32.191  1.00  0.00    -0.345 OA
ATOM     21  H3  UNL     1      -4.951  29.009  33.026  1.00  0.00     0.219 HD
ENDBRANCH  11  20
ENDBRANCH   6   9
BRANCH   1  22
HETATM   22  S1  UNL     1      -2.434  26.455  25.605  1.00  0.00     0.212 S
HETATM   23  O1  UNL     1      -2.137  25.010  25.452  1.00  0.00    -0.217 OA
HETATM   24  O2  UNL     1      -3.476  26.923  24.599  1.00  0.00    -0.217 OA
BRANCH  22  25
HETATM   25  C2  UNL     1      -0.990  27.382  25.338  1.00  0.00     0.105 C
HETATM   26  C1  UNL     1      -0.822  28.154  24.266  1.00  0.00     0.024 C
ENDBRANCH  22  25
ENDBRANCH   1  22
TORSDOF 4
ENDMDL