MODEL 5
REMARK VINA RESULT: -8.131179651      2.373      2.958
REMARK  5 active torsions:
REMARK  status: ('A' for Active; 'I' for Inactive)
REMARK    1  A    between atoms: C3_3  and  C4_4
REMARK    2  A    between atoms: C4_4  and  O1_5
REMARK    3  A    between atoms: C9_16  and  C10_17
REMARK    4  A    between atoms: C10_17  and  C11_18
REMARK    5  A    between atoms: C11_18  and  C12_19
ROOT
HETATM    1  C1  UNL     1      -5.294  27.631  31.385  1.00  0.00     0.027 C
HETATM    2  C2  UNL     1      -4.064  27.229  31.578  1.00  0.00    -0.002 C
HETATM    3  C3  UNL     1      -3.578  27.063  32.961  1.00  0.00     0.009 C
HETATM    4  C5  UNL     1      -2.393  26.639  33.325  1.00  0.00     0.019 C
HETATM    5  C6  UNL     1      -2.176  26.570  34.761  1.00  0.00     0.055 C
HETATM    6  C7  UNL     1      -1.263  26.224  32.445  1.00  0.00     0.253 C
HETATM    7  O2  UNL     1      -0.357  25.615  33.068  1.00  0.00    -0.268 OA
HETATM    8  N1  UNL     1      -1.062  26.408  31.046  1.00  0.00    -0.307 N
ATOM      9  H1  UNL     1      -0.100  26.357  30.711  1.00  0.00     0.170 HD
HETATM   10  C8  UNL     1      -2.069  26.658  30.066  1.00  0.00     0.137 A
HETATM   11  N2  UNL     1      -1.918  26.587  28.732  1.00  0.00    -0.330 N
ATOM     12  H2  UNL     1      -1.047  26.344  28.259  1.00  0.00     0.168 HD
HETATM   13  C9  UNL     1      -3.063  26.879  28.110  1.00  0.00     0.086 A
HETATM   14  N5  UNL     1      -3.962  27.142  29.073  1.00  0.00    -0.342 N
ATOM     15  H5  UNL     1      -4.937  27.398  28.915  1.00  0.00     0.167 HD
HETATM   16  C15 UNL     1      -3.371  27.011  30.292  1.00  0.00     0.088 A
ENDROOT
BRANCH  13  17
HETATM   17  C10 UNL     1      -3.407  26.938  26.659  1.00  0.00     0.106 C
BRANCH  17  18
HETATM   18  C11 UNL     1      -2.419  26.300  25.809  1.00  0.00     0.016 C
BRANCH  18  19
HETATM   19  C12 UNL     1      -1.636  26.953  24.989  1.00  0.00     0.101 A
HETATM   20  N3  UNL     1      -0.411  27.585  25.445  1.00  0.00    -0.304 N
HETATM   21  C13 UNL     1       0.236  28.210  24.354  1.00  0.00     0.327 A
ATOM     22  H3  UNL     1      -0.069  27.579  26.405  1.00  0.00     0.171 HD
HETATM   23  O3  UNL     1       1.325  28.854  24.388  1.00  0.00    -0.247 OA
HETATM   24  N4  UNL     1      -0.517  28.019  23.173  1.00  0.00    -0.274 N
HETATM   25  C14 UNL     1      -1.669  27.242  23.580  1.00  0.00     0.276 A
ATOM     26  H4  UNL     1      -0.296  28.356  22.236  1.00  0.00     0.173 HD
HETATM   27  O4  UNL     1      -2.571  26.876  22.786  1.00  0.00    -0.266 OA
ENDBRANCH  18  19
ENDBRANCH  17  18
ENDBRANCH  13  17
BRANCH   3  28
HETATM   28  C4  UNL     1      -4.536  27.420  33.940  1.00  0.00     0.144 C
BRANCH  28  29
HETATM   29  O1  UNL     1      -5.507  26.659  34.428  1.00  0.00    -0.372 OA
ATOM     30  H1  UNL     1      -5.416  25.924  35.022  1.00  0.00     0.216 HD
ENDBRANCH  28  29
ENDBRANCH   3  28
TORSDOF 5
ENDMDL