MODEL 3
REMARK VINA RESULT: -7.657363029      2.402      3.544
REMARK  4 active torsions:
REMARK  status: ('A' for Active; 'I' for Inactive)
REMARK    1  A    between atoms: C3_3  and  C4_4
REMARK    2  A    between atoms: N4_16  and  C9_17
REMARK    3  A    between atoms: C9_17  and  C10_18
REMARK    4  A    between atoms: C12_21  and  N5_22
ROOT
HETATM    1  C1  UNL     1      -5.391  28.010  28.807  1.00  0.00     0.032 C
HETATM    2  C2  UNL     1      -4.378  27.311  28.283  1.00  0.00     0.052 A
HETATM    3  C3  UNL     1      -3.342  26.752  29.000  1.00  0.00     0.064 A
HETATM    4  N3  UNL     1      -2.557  26.149  28.103  1.00  0.00    -0.294 N
ATOM      5  H3  UNL     1      -1.702  25.645  28.339  1.00  0.00     0.187 HD
HETATM    6  N4  UNL     1      -3.020  26.286  26.871  1.00  0.00    -0.251 N
HETATM    7  C13 UNL     1      -4.165  27.012  26.954  1.00  0.00     0.274 A
HETATM    8  O2  UNL     1      -4.928  27.373  26.019  1.00  0.00    -0.266 OA
ENDROOT
BRANCH   3   9
HETATM    9  C4  UNL     1      -3.182  26.817  30.330  1.00  0.00     0.051 C
HETATM   10  C5  UNL     1      -1.979  26.381  30.992  1.00  0.00     0.059 A
HETATM   11  C6  UNL     1      -1.119  27.214  31.658  1.00  0.00     0.037 A
HETATM   12  C8  UNL     1      -1.482  25.109  31.080  1.00  0.00     0.272 A
HETATM   13  C7  UNL     1      -1.252  28.712  31.830  1.00  0.00     0.070 C
HETATM   14  N1  UNL     1      -0.129  26.442  32.133  1.00  0.00    -0.301 N
HETATM   15  N2  UNL     1      -0.347  25.189  31.788  1.00  0.00    -0.266 N
ATOM     16  H1  UNL     1       0.668  26.774  32.677  1.00  0.00     0.186 HD
ATOM     17  H2  UNL     1       0.257  24.401  32.024  1.00  0.00     0.190 HD
HETATM   18  O1  UNL     1      -1.998  24.041  30.584  1.00  0.00    -0.266 OA
ENDBRANCH   3   9
BRANCH   6  19
HETATM   19  C9  UNL     1      -2.427  25.763  25.656  1.00  0.00     0.210 C
BRANCH  19  20
HETATM   20  C10 UNL     1      -1.500  26.802  25.029  1.00  0.00     0.037 A
HETATM   21  C11 UNL     1      -1.803  27.289  23.782  1.00  0.00     0.080 A
HETATM   22  S1  UNL     1      -0.528  28.389  23.504  1.00  0.00    -0.064 SA
HETATM   23  C12 UNL     1       0.310  28.170  24.973  1.00  0.00     0.142 A
HETATM   24  N6  UNL     1      -0.429  27.263  25.608  1.00  0.00    -0.338 N
ATOM     25  H6  UNL     1      -0.160  26.935  26.535  1.00  0.00     0.168 HD
BRANCH  23  26
HETATM   26  N5  UNL     1       1.417  28.748  25.397  1.00  0.00    -0.380 N
ATOM     27  H52 UNL     1       2.206  29.071  24.837  1.00  0.00     0.158 HD
ATOM     28  H51 UNL     1       1.700  28.980  26.348  1.00  0.00     0.158 HD
ENDBRANCH  23  26
ENDBRANCH  19  20
ENDBRANCH   6  19
TORSDOF 4
ENDMDL