MODEL 1
REMARK VINA RESULT: -7.555631446      0.000      0.000
REMARK  4 active torsions:
REMARK  status: ('A' for Active; 'I' for Inactive)
REMARK    1  A    between atoms: C2_4  and  N2_5
REMARK    2  A    between atoms: C2_4  and  C9_24
REMARK    3  A    between atoms: N2_5  and  N3_7
REMARK    4  A    between atoms: N3_7  and  C3_9
REMARK       I    between atoms: N4_13  and  C7_14
REMARK       I    between atoms: N6_16  and  C8_18
ROOT
HETATM    1  C3  UNL     1      -1.720  26.174  30.890  1.00  0.00     0.266 C
HETATM    2  C4  UNL     1      -2.572  27.299  31.345  1.00  0.00     0.059 C
HETATM    3  C5  UNL     1      -1.856  28.536  31.760  1.00  0.00     0.027 C
HETATM    4  C6  UNL     1      -0.568  28.337  32.483  1.00  0.00     0.159 C
HETATM    5  N4  UNL     1      -0.168  26.956  32.350  1.00  0.00    -0.227 N
HETATM    6  C7  UNL     1       0.424  26.236  33.419  1.00  0.00     0.217 C
HETATM    7  N5  UNL     1      -0.246  25.980  34.638  1.00  0.00    -0.061 NA
HETATM    8  N6  UNL     1       1.648  25.789  33.270  1.00  0.00    -0.303 N
ATOM      9  H6  UNL     1       2.153  25.960  32.401  1.00  0.00     0.171 HD
HETATM   10  C8  UNL     1       2.264  25.072  34.312  1.00  0.00     0.188 C
HETATM   11  N7  UNL     1       2.555  23.839  34.150  1.00  0.00    -0.373 N
ATOM     12  H71 UNL     1       3.001  23.319  34.906  1.00  0.00     0.158 HD
ATOM     13  H72 UNL     1       2.340  23.374  33.268  1.00  0.00     0.158 HD
HETATM   14  N8  UNL     1       2.559  25.714  35.530  1.00  0.00    -0.064 NA
HETATM   15  O1  UNL     1      -0.368  26.347  31.174  1.00  0.00    -0.248 OA
ENDROOT
BRANCH   1  16
HETATM   16  N3  UNL     1      -1.862  25.781  29.525  1.00  0.00    -0.304 N
ATOM     17  H3  UNL     1      -1.882  24.799  29.247  1.00  0.00     0.183 HD
BRANCH  16  18
HETATM   18  N2  UNL     1      -1.972  26.800  28.604  1.00  0.00    -0.291 N
ATOM     19  H2  UNL     1      -1.297  27.565  28.620  1.00  0.00     0.188 HD
BRANCH  18  20
HETATM   20  C2  UNL     1      -3.002  26.805  27.639  1.00  0.00     0.095 C
HETATM   21  N1  UNL     1      -2.733  26.828  26.403  1.00  0.00    -0.383 N
HETATM   22  C1  UNL     1      -1.434  26.850  25.831  1.00  0.00     0.147 C
ATOM     23  H1  UNL     1      -3.523  26.830  25.757  1.00  0.00     0.160 HD
BRANCH  20  24
HETATM   24  C9  UNL     1      -4.443  26.766  28.021  1.00  0.00     0.058 C
HETATM   25  C10 UNL     1      -5.268  26.871  26.764  1.00  0.00     0.038 C
HETATM   26  C11 UNL     1      -6.719  26.901  27.187  1.00  0.00     0.168 C
HETATM   27  O2  UNL     1      -6.872  26.638  28.538  1.00  0.00    -0.391 OA
HETATM   28  C12 UNL     1      -6.293  27.577  29.362  1.00  0.00     0.168 C
HETATM   29  C13 UNL     1      -4.864  27.864  28.943  1.00  0.00     0.038 C
ENDBRANCH  20  24
ENDBRANCH  18  20
ENDBRANCH  16  18
ENDBRANCH   1  16
TORSDOF 4
ENDMDL