MODEL 2
REMARK VINA RESULT: -7.240523042      1.659      2.014
REMARK  3 active torsions:
REMARK  status: ('A' for Active; 'I' for Inactive)
REMARK    1  A    between atoms: C3_7  and  C4_8
REMARK    2  A    between atoms: C4_8  and  N3_9
REMARK    3  A    between atoms: C6_11  and  C7_12
ROOT
HETATM    1  N3  UNL     1      -0.627  27.276  33.137  1.00  0.00    -0.303 N
HETATM    2  C5  UNL     1      -1.042  27.535  31.871  1.00  0.00     0.113 A
HETATM    3  C6  UNL     1      -2.302  27.148  31.420  1.00  0.00     0.050 A
HETATM    4  C11 UNL     1      -3.111  26.489  32.325  1.00  0.00     0.261 A
HETATM    5  O2  UNL     1      -4.290  26.086  32.044  1.00  0.00    -0.267 OA
HETATM    6  N6  UNL     1      -2.631  26.263  33.573  1.00  0.00    -0.275 N
ATOM      7  H6  UNL     1      -3.236  25.775  34.233  1.00  0.00     0.173 HD
HETATM    8  C12 UNL     1      -1.424  26.636  33.996  1.00  0.00     0.329 A
HETATM    9  O3  UNL     1      -1.065  26.386  35.172  1.00  0.00    -0.246 OA
ENDROOT
BRANCH   3  10
HETATM   10  C7  UNL     1      -2.774  27.459  30.102  1.00  0.00     0.053 C
HETATM   11  C8  UNL     1      -2.478  26.808  28.972  1.00  0.00     0.104 A
HETATM   12  N4  UNL     1      -2.978  27.149  27.680  1.00  0.00    -0.329 N
HETATM   13  C10 UNL     1      -1.575  25.686  28.783  1.00  0.00     0.274 A
HETATM   14  C9  UNL     1      -2.422  26.286  26.715  1.00  0.00     0.179 A
ATOM     15  H4  UNL     1      -3.637  27.902  27.484  1.00  0.00     0.168 HD
HETATM   16  S1  UNL     1      -2.711  26.306  25.085  1.00  0.00    -0.040 SA
HETATM   17  N5  UNL     1      -1.565  25.391  27.387  1.00  0.00    -0.298 N
ATOM     18  H5  UNL     1      -1.023  24.649  26.945  1.00  0.00     0.171 HD
HETATM   19  O1  UNL     1      -0.902  25.047  29.595  1.00  0.00    -0.266 OA
ENDBRANCH   3  10
BRANCH   1  20
HETATM   20  C4  UNL     1       0.697  27.678  33.556  1.00  0.00     0.193 C
BRANCH  20  21
HETATM   21  C3  UNL     1       1.652  26.545  33.665  1.00  0.00     0.067 A
HETATM   22  C2  UNL     1       1.759  25.206  33.371  1.00  0.00     0.047 A
HETATM   23  C1  UNL     1       0.860  24.173  32.748  1.00  0.00     0.072 C
HETATM   24  N1  UNL     1       3.014  25.191  33.881  1.00  0.00    -0.303 N
HETATM   25  N2  UNL     1       2.928  26.466  34.168  1.00  0.00    -0.301 N
ATOM     26  H1  UNL     1       3.734  24.477  33.995  1.00  0.00     0.186 HD
ATOM     27  H2  UNL     1       3.562  27.138  34.598  1.00  0.00     0.186 HD
ENDBRANCH  20  21
ENDBRANCH   1  20
TORSDOF 3
ENDMDL