MODEL 5
REMARK VINA RESULT: -5.644812402      1.532      1.872
REMARK  4 active torsions:
REMARK  status: ('A' for Active; 'I' for Inactive)
REMARK    1  A    between atoms: C2_2  and  N1_3
REMARK    2  A    between atoms: C2_2  and  C3_11
REMARK    3  A    between atoms: N1_3  and  S1_5
REMARK    4  A    between atoms: S1_5  and  N2_6
ROOT
HETATM    1  C3  UNL     1      -1.907  24.431  31.068  1.00  0.00     0.441 C
HETATM    2  N3  UNL     1      -1.800  24.309  29.626  1.00  0.00    -0.040 N
ATOM      3  H31 UNL     1      -2.672  23.963  29.226  1.00  0.00     0.279 HD
ATOM      4  H32 UNL     1      -1.180  23.540  29.372  1.00  0.00     0.279 HD
HETATM    5  C4  UNL     1      -1.391  25.525  28.983  1.00  0.00     0.262 C
HETATM    6  C5  UNL     1      -2.050  25.698  27.620  1.00  0.00     0.260 C
HETATM    7  N4  UNL     1      -2.506  27.032  27.387  1.00  0.00    -0.072 N
ATOM      8  H41 UNL     1      -2.130  27.410  26.517  1.00  0.00     0.277 HD
ATOM      9  H42 UNL     1      -2.082  27.693  28.039  1.00  0.00     0.277 HD
HETATM   10  C6  UNL     1      -3.975  27.105  27.420  1.00  0.00     0.259 C
HETATM   11  C7  UNL     1      -4.389  27.740  28.729  1.00  0.00     0.259 C
HETATM   12  N5  UNL     1      -5.760  27.546  29.057  1.00  0.00    -0.074 N
ATOM     13  H51 UNL     1      -6.346  27.615  28.226  1.00  0.00     0.277 HD
ATOM     14  H52 UNL     1      -6.124  28.340  29.584  1.00  0.00     0.277 HD
HETATM   15  C8  UNL     1      -6.007  26.290  29.769  1.00  0.00     0.232 C
HETATM   16  C9  UNL     1      -5.474  26.391  31.138  1.00  0.00     0.029 C
HETATM   17  C10 UNL     1      -4.964  25.154  31.764  1.00  0.00     0.032 C
HETATM   18  C11 UNL     1      -4.226  24.215  30.875  1.00  0.00     0.275 C
HETATM   19  N6  UNL     1      -3.036  23.656  31.490  1.00  0.00     0.117 N
HETATM   20  C12 UNL     1      -3.159  23.501  32.910  1.00  0.00     0.312 C
ENDROOT
BRANCH   1  21
HETATM   21  C2  UNL     1      -0.625  24.055  31.762  1.00  0.00     0.151 C
HETATM   22  C1  UNL     1       0.132  22.972  31.077  1.00  0.00     0.037 C
BRANCH  21  23
HETATM   23  N1  UNL     1       0.214  25.227  31.864  1.00  0.00    -0.295 N
ATOM     24  H1  UNL     1       0.358  25.898  31.110  1.00  0.00     0.174 HD
BRANCH  23  25
HETATM   25  S1  UNL     1       0.951  25.351  33.444  1.00  0.00     0.313 S
HETATM   26  O1  UNL     1       2.435  25.501  33.336  1.00  0.00    -0.183 OA
HETATM   27  O2  UNL     1       0.416  26.547  34.181  1.00  0.00    -0.183 OA
BRANCH  25  28
HETATM   28  N2  UNL     1       0.562  23.950  34.390  1.00  0.00    -0.312 N
ATOM     29  H22 UNL     1      -0.180  23.290  34.159  1.00  0.00     0.170 HD
ATOM     30  H21 UNL     1       1.181  23.893  35.198  1.00  0.00     0.170 HD
ENDBRANCH  25  28
ENDBRANCH  23  25
ENDBRANCH  21  23
ENDBRANCH   1  21
TORSDOF 4
ENDMDL