MODEL 2
REMARK VINA RESULT: -6.689339365      2.058      3.227
REMARK  6 active torsions:
REMARK  status: ('A' for Active; 'I' for Inactive)
REMARK    1  A    between atoms: C7_8  and  C8_9
REMARK       I    between atoms: C8_9  and  N2_11
REMARK    2  A    between atoms: N2_11  and  N3_13
REMARK    3  A    between atoms: N3_13  and  C9_15
REMARK    4  A    between atoms: C9_15  and  N4_17
REMARK    5  A    between atoms: N4_17  and  N5_19
REMARK    6  A    between atoms: N5_19  and  S2_21
ROOT
HETATM    1  C8  UNL     1      -2.456  25.872  29.395  1.00  0.00     0.259 C
HETATM    2  O1  UNL     1      -1.482  25.838  28.599  1.00  0.00    -0.269 OA
HETATM    3  N2  UNL     1      -3.531  26.734  29.053  1.00  0.00    -0.266 N
ATOM      4  H2  UNL     1      -4.336  26.783  29.677  1.00  0.00     0.190 HD
ENDROOT
BRANCH   3   5
HETATM    5  N3  UNL     1      -3.530  27.518  27.894  1.00  0.00    -0.272 N
ATOM      6  H3  UNL     1      -3.097  28.440  27.941  1.00  0.00     0.189 HD
BRANCH   5   7
HETATM    7  C9  UNL     1      -4.089  27.115  26.675  1.00  0.00     0.206 C
HETATM    8  S1  UNL     1      -5.641  27.437  26.255  1.00  0.00    -0.038 SA
BRANCH   7   9
HETATM    9  N4  UNL     1      -3.295  26.395  25.748  1.00  0.00    -0.266 N
ATOM     10  H4  UNL     1      -3.741  25.714  25.133  1.00  0.00     0.190 HD
BRANCH   9  11
HETATM   11  N5  UNL     1      -1.913  26.597  25.654  1.00  0.00    -0.225 N
ATOM     12  H5  UNL     1      -1.278  26.516  26.448  1.00  0.00     0.200 HD
BRANCH  11  13
HETATM   13  S2  UNL     1      -1.395  26.993  24.074  1.00  0.00     0.240 S
HETATM   14  C10 UNL     1      -0.280  28.351  24.019  1.00  0.00     0.187 C
HETATM   15  O2  UNL     1      -0.773  25.773  23.467  1.00  0.00    -0.205 OA
HETATM   16  O3  UNL     1      -2.612  27.318  23.219  1.00  0.00    -0.205 OA
ENDBRANCH  11  13
ENDBRANCH   9  11
ENDBRANCH   7   9
ENDBRANCH   5   7
ENDBRANCH   3   5
BRANCH   1  17
HETATM   17  C7  UNL     1      -2.542  25.089  30.630  1.00  0.00     0.187 C
HETATM   18  N1  UNL     1      -1.792  25.634  31.732  1.00  0.00    -0.384 N
HETATM   19  C1  UNL     1      -2.545  26.782  32.215  1.00  0.00     0.149 C
HETATM   20  C2  UNL     1      -0.441  25.800  31.795  1.00  0.00     0.059 C
HETATM   21  C3  UNL     1       0.498  24.751  32.423  1.00  0.00     0.055 C
HETATM   22  C4  UNL     1       0.304  23.353  31.736  1.00  0.00     0.085 C
HETATM   23  C5  UNL     1      -0.916  23.413  31.048  1.00  0.00    -0.180 C
HETATM   24  C6  UNL     1      -2.132  23.589  30.362  1.00  0.00     0.115 C
ENDBRANCH   1  17
TORSDOF 6
ENDMDL