MODEL 3
REMARK VINA RESULT: -6.507799417      0.884      1.522
REMARK  7 active torsions:
REMARK  status: ('A' for Active; 'I' for Inactive)
REMARK    1  A    between atoms: C3_3  and  C4_4
REMARK    2  A    between atoms: C5_5  and  C6_6
REMARK    3  A    between atoms: C8_10  and  N2_11
REMARK    4  A    between atoms: N2_11  and  C9_13
REMARK    5  A    between atoms: C9_13  and  C10_14
REMARK    6  A    between atoms: C10_14  and  N3_15
REMARK    7  A    between atoms: C15_25  and  N6_26
ROOT
HETATM    1  C1  UNL     1      -6.107  28.368  27.291  1.00  0.00     0.113 C
HETATM    2  C2  UNL     1      -4.982  28.043  28.173  1.00  0.00    -0.097 C
HETATM    3  C3  UNL     1      -4.067  27.761  28.911  1.00  0.00    -0.015 C
ENDROOT
BRANCH   3   4
HETATM    4  C4  UNL     1      -2.999  27.407  29.790  1.00  0.00    -0.007 C
HETATM    5  C5  UNL     1      -2.092  27.092  30.522  1.00  0.00    -0.016 C
BRANCH   5   6
HETATM    6  C6  UNL     1      -1.032  26.705  31.403  1.00  0.00     0.164 A
HETATM    7  N1  UNL     1      -0.687  25.433  31.644  1.00  0.00    -0.329 N
HETATM    8  C7  UNL     1       0.338  25.409  32.510  1.00  0.00     0.124 A
ATOM      9  H1  UNL     1      -1.133  24.613  31.234  1.00  0.00     0.168 HD
HETATM   10  C8  UNL     1       1.102  24.421  33.117  1.00  0.00     0.147 A
HETATM   11  C16 UNL     1       0.646  26.713  32.822  1.00  0.00     0.153 A
HETATM   12  N5  UNL     1       2.091  24.712  33.966  1.00  0.00    -0.175 N
HETATM   13  C15 UNL     1       2.366  25.992  34.248  1.00  0.00     0.679 A
ATOM     14  H5  UNL     1       2.633  23.964  34.397  1.00  0.00     0.186 HD
HETATM   15  N7  UNL     1       1.642  26.969  33.676  1.00  0.00    -0.174 N
ATOM     16  H7  UNL     1       1.861  27.940  33.900  1.00  0.00     0.186 HD
HETATM   17  N8  UNL     1      -0.205  27.469  32.133  1.00  0.00    -0.319 N
ATOM     18  H8  UNL     1      -0.225  28.489  32.156  1.00  0.00     0.169 HD
BRANCH  10  19
HETATM   19  N2  UNL     1       0.843  23.204  32.850  1.00  0.00    -0.372 N
ATOM     20  H2  UNL     1       1.422  22.698  32.180  1.00  0.00     0.161 HD
BRANCH  19  21
HETATM   21  C9  UNL     1      -0.287  22.522  33.499  1.00  0.00     0.151 C
BRANCH  21  22
HETATM   22  C10 UNL     1       0.324  21.691  34.598  1.00  0.00     0.292 C
BRANCH  22  23
HETATM   23  N3  UNL     1       1.279  20.742  34.121  1.00  0.00     0.093 N
HETATM   24  C11 UNL     1       0.575  19.753  33.316  1.00  0.00     0.300 C
HETATM   25  C12 UNL     1       0.233  18.526  34.086  1.00  0.00     0.262 C
HETATM   26  N4  UNL     1       0.026  18.700  35.488  1.00  0.00    -0.072 N
HETATM   27  C13 UNL     1       1.080  19.423  36.171  1.00  0.00     0.262 C
ATOM     28  H42 UNL     1      -0.876  19.143  35.659  1.00  0.00     0.277 HD
ATOM     29  H41 UNL     1      -0.133  17.798  35.936  1.00  0.00     0.277 HD
HETATM   30  C14 UNL     1       1.999  20.122  35.195  1.00  0.00     0.300 C
ENDBRANCH  22  23
ENDBRANCH  21  22
ENDBRANCH  19  21
ENDBRANCH  10  19
BRANCH  13  31
HETATM   31  N6  UNL     1       3.314  26.306  35.064  1.00  0.00    -0.234 N
ATOM     32  H62 UNL     1       3.425  25.774  35.927  1.00  0.00     0.174 HD
ATOM     33  H61 UNL     1       3.954  27.072  34.858  1.00  0.00     0.174 HD
ENDBRANCH  13  31
ENDBRANCH   5   6
ENDBRANCH   3   4
TORSDOF 7
ENDMDL