MODEL 5
REMARK VINA RESULT: -6.162595254      2.398      4.165
REMARK  3 active torsions:
REMARK  status: ('A' for Active; 'I' for Inactive)
REMARK    1  A    between atoms: C3_3  and  C5_5
REMARK       I    between atoms: C5_5  and  N1_7
REMARK    2  A    between atoms: N1_7  and  C6_9
REMARK    3  A    between atoms: C6_9  and  C7_10
REMARK       I    between atoms: C7_10  and  N2_12
ROOT
HETATM    1  C6  UNL     1      -3.788  27.220  31.238  1.00  0.00     0.356 C
HETATM    2  N3  UNL     1      -3.402  25.872  31.465  1.00  0.00    -0.366 N
ATOM      3  H3  UNL     1      -2.470  25.646  31.812  1.00  0.00     0.158 HD
HETATM    4  C9  UNL     1      -4.349  24.849  31.197  1.00  0.00     0.118 C
HETATM    5  C10 UNL     1      -3.778  23.464  31.467  1.00  0.00     0.019 C
HETATM    6  C11 UNL     1      -2.361  23.319  30.971  1.00  0.00     0.003 C
HETATM    7  C12 UNL     1      -1.306  23.578  31.992  1.00  0.00     0.020 C
HETATM    8  C13 UNL     1      -0.230  24.498  31.475  1.00  0.00     0.122 C
HETATM    9  N4  UNL     1      -0.081  25.717  32.270  1.00  0.00    -0.360 N
ATOM     10  H4  UNL     1       0.323  25.640  33.204  1.00  0.00     0.162 HD
HETATM   11  C14 UNL     1      -0.469  26.996  31.811  1.00  0.00     0.243 C
HETATM   12  O3  UNL     1       0.007  28.013  32.360  1.00  0.00    -0.272 OA
HETATM   13  C15 UNL     1      -1.424  27.214  30.695  1.00  0.00     0.340 C
HETATM   14  N5  UNL     1      -2.558  27.983  31.083  1.00  0.00    -0.012 N
ATOM     15  H51 UNL     1      -2.357  28.505  31.936  1.00  0.00     0.283 HD
ATOM     16  H52 UNL     1      -2.701  28.755  30.432  1.00  0.00     0.283 HD
ENDROOT
BRANCH   1  17
HETATM   17  N1  UNL     1      -4.751  27.440  30.202  1.00  0.00    -0.300 N
HETATM   18  C5  UNL     1      -4.664  27.217  28.836  1.00  0.00     0.250 C
HETATM   19  O1  UNL     1      -3.639  26.759  28.307  1.00  0.00    -0.268 OA
ATOM     20  H1  UNL     1      -5.643  27.821  30.518  1.00  0.00     0.167 HD
BRANCH  18  21
HETATM   21  C3  UNL     1      -5.780  27.514  27.951  1.00  0.00     0.002 C
HETATM   22  C2  UNL     1      -6.843  26.749  27.822  1.00  0.00    -0.019 C
HETATM   23  C1  UNL     1      -7.050  25.477  28.559  1.00  0.00     0.036 C
HETATM   24  C4  UNL     1      -5.719  28.762  27.139  1.00  0.00     0.054 C
ENDBRANCH  18  21
ENDBRANCH   1  17
BRANCH   1  25
HETATM   25  C7  UNL     1      -4.418  27.705  32.521  1.00  0.00     0.296 C
HETATM   26  O2  UNL     1      -4.012  27.286  33.640  1.00  0.00    -0.266 OA
HETATM   27  N2  UNL     1      -5.472  28.634  32.524  1.00  0.00    -0.360 N
HETATM   28  C8  UNL     1      -6.083  29.104  33.773  1.00  0.00     0.149 C
ATOM     29  H2  UNL     1      -5.821  28.993  31.635  1.00  0.00     0.162 HD
ENDBRANCH   1  25
TORSDOF 3
ENDMDL