MODEL 5
REMARK VINA RESULT: -7.266756670      1.546      2.078
REMARK  5 active torsions:
REMARK  status: ('A' for Active; 'I' for Inactive)
REMARK    1  A    between atoms: N1_1  and  C1_4
REMARK    2  A    between atoms: N4_11  and  N5_12
REMARK    3  A    between atoms: C3_14  and  C4_16
REMARK    4  A    between atoms: C7_19  and  N7_20
REMARK    5  A    between atoms: C7_19  and  C8_24
REMARK       I    between atoms: C8_24  and  N8_26
ROOT
HETATM    1  C4  UNL     1      -2.246  25.703  32.518  1.00  0.00     0.055 C
HETATM    2  C5  UNL     1      -2.319  24.490  31.615  1.00  0.00     0.015 C
HETATM    3  C6  UNL     1      -3.184  24.961  30.465  1.00  0.00     0.049 C
HETATM    4  C7  UNL     1      -2.719  26.399  30.235  1.00  0.00     0.204 C
HETATM    5  C13 UNL     1      -2.343  26.900  31.630  1.00  0.00     0.060 C
ENDROOT
BRANCH   1   6
HETATM    6  C3  UNL     1      -0.981  25.772  33.284  1.00  0.00     0.112 C
HETATM    7  N5  UNL     1       0.133  25.503  32.701  1.00  0.00    -0.265 N
ATOM      8  H5  UNL     1       0.127  25.244  31.714  1.00  0.00     0.189 HD
HETATM    9  N6  UNL     1      -0.977  26.130  34.641  1.00  0.00    -0.086 NA
BRANCH   7  10
HETATM   10  N4  UNL     1       1.337  25.554  33.373  1.00  0.00    -0.028 N
HETATM   11  C1  UNL     1       2.007  26.666  33.700  1.00  0.00     0.716 A
HETATM   12  N2  UNL     1       3.140  26.351  34.347  1.00  0.00    -0.127 N
HETATM   13  N3  UNL     1       3.168  25.028  34.420  1.00  0.00    -0.235 N
ATOM     14  H2  UNL     1       3.839  26.999  34.710  1.00  0.00     0.206 HD
HETATM   15  C2  UNL     1       2.077  24.533  33.831  1.00  0.00     0.375 A
ATOM     16  H3  UNL     1       3.906  24.475  34.856  1.00  0.00     0.192 HD
HETATM   17  O1  UNL     1       1.757  23.327  33.705  1.00  0.00    -0.243 OA
BRANCH  11  18
HETATM   18  N1  UNL     1       1.665  27.897  33.455  1.00  0.00    -0.231 N
ATOM     19  H12 UNL     1       0.723  28.289  33.441  1.00  0.00     0.174 HD
ATOM     20  H11 UNL     1       2.350  28.622  33.242  1.00  0.00     0.174 HD
ENDBRANCH  11  18
ENDBRANCH   7  10
ENDBRANCH   1   6
BRANCH   4  21
HETATM   21  N7  UNL     1      -1.548  26.430  29.415  1.00  0.00    -0.061 N
ATOM     22  H73 UNL     1      -1.004  25.572  29.502  1.00  0.00     0.275 HD
ATOM     23  H72 UNL     1      -1.780  26.365  28.424  1.00  0.00     0.275 HD
ATOM     24  H71 UNL     1      -0.985  27.256  29.617  1.00  0.00     0.275 HD
ENDBRANCH   4  21
BRANCH   4  25
HETATM   25  C8  UNL     1      -3.804  27.251  29.763  1.00  0.00     0.256 C
HETATM   26  O2  UNL     1      -4.463  27.912  30.637  1.00  0.00    -0.271 OA
HETATM   27  N8  UNL     1      -4.172  27.393  28.425  1.00  0.00    -0.350 N
HETATM   28  C9  UNL     1      -3.585  26.731  27.282  1.00  0.00     0.126 C
HETATM   29  C12 UNL     1      -5.231  28.265  27.897  1.00  0.00     0.126 C
HETATM   30  C10 UNL     1      -4.420  27.113  26.063  1.00  0.00     0.021 C
HETATM   31  C11 UNL     1      -5.762  27.446  26.744  1.00  0.00     0.021 C
ENDBRANCH   4  25
TORSDOF 5
ENDMDL