MODEL 1
REMARK VINA RESULT: -6.448909814      0.000      0.000
REMARK  1 active torsions:
REMARK  status: ('A' for Active; 'I' for Inactive)
REMARK       I    between atoms: C1_4  and  N3_6
REMARK    1  A    between atoms: C4_12  and  C5_13
ROOT
HETATM    1  N1  UNL     1      -3.676  27.373  27.017  1.00  0.00    -0.373 N
ATOM      2  H11 UNL     1      -3.372  28.244  27.452  1.00  0.00     0.158 HD
ATOM      3  H12 UNL     1      -4.545  26.962  27.356  1.00  0.00     0.158 HD
HETATM    4  C1  UNL     1      -3.044  26.775  26.084  1.00  0.00     0.197 C
HETATM    5  N2  UNL     1      -3.464  25.574  25.484  1.00  0.00    -0.063 NA
HETATM    6  N3  UNL     1      -1.832  27.350  25.610  1.00  0.00    -0.237 N
HETATM    7  C2  UNL     1      -1.495  27.795  24.306  1.00  0.00     0.112 A
HETATM    8  N4  UNL     1      -2.288  27.741  23.299  1.00  0.00    -0.385 N
ATOM      9  H41 UNL     1      -2.045  28.061  22.362  1.00  0.00     0.157 HD
ATOM     10  H42 UNL     1      -3.246  27.394  23.237  1.00  0.00     0.157 HD
HETATM   11  C3  UNL     1      -0.133  28.289  24.395  1.00  0.00     0.071 A
HETATM   12  C4  UNL     1       0.352  28.169  25.636  1.00  0.00     0.101 A
HETATM   13  C6  UNL     1      -0.709  27.569  26.449  1.00  0.00     0.271 A
HETATM   14  O2  UNL     1      -0.604  27.307  27.687  1.00  0.00    -0.266 OA
ENDROOT
BRANCH  12  15
HETATM   15  C5  UNL     1       1.666  28.550  26.119  1.00  0.00     0.270 C
HETATM   16  N5  UNL     1       1.770  29.581  27.076  1.00  0.00    -0.057 NA
HETATM   17  O1  UNL     1       2.664  27.943  25.665  1.00  0.00    -0.271 OA
ENDBRANCH  12  15
TORSDOF 1
ENDMDL