MODEL 1
REMARK VINA RESULT: -5.658882804      0.000      0.000
REMARK  3 active torsions:
REMARK  status: ('A' for Active; 'I' for Inactive)
REMARK    1  A    between atoms: N1_1  and  N2_4
REMARK       I    between atoms: N2_4  and  C1_6
REMARK    2  A    between atoms: C1_6  and  C2_8
REMARK       I    between atoms: C2_8  and  N3_10
REMARK    3  A    between atoms: N3_10  and  C3_12
ROOT
HETATM    1  C2  UNL     1      -1.699  26.836  24.320  1.00  0.00     0.329 C
HETATM    2  O2  UNL     1      -2.589  27.159  23.472  1.00  0.00    -0.261 OA
HETATM    3  N3  UNL     1      -2.079  25.925  25.341  1.00  0.00    -0.151 N
ATOM      4  H3  UNL     1      -2.262  24.951  25.101  1.00  0.00     0.188 HD
ENDROOT
BRANCH   1   5
HETATM    5  C1  UNL     1      -0.375  27.400  24.200  1.00  0.00     0.328 C
HETATM    6  N2  UNL     1       0.021  28.493  25.000  1.00  0.00    -0.268 N
ATOM      7  H2  UNL     1      -0.629  28.897  25.675  1.00  0.00     0.190 HD
HETATM    8  O1  UNL     1       0.425  26.895  23.363  1.00  0.00    -0.261 OA
BRANCH   6   9
HETATM    9  N1  UNL     1       1.316  29.021  24.862  1.00  0.00    -0.342 N
ATOM     10  H12 UNL     1       1.651  29.703  25.543  1.00  0.00     0.176 HD
ATOM     11  H11 UNL     1       1.905  28.719  24.086  1.00  0.00     0.176 HD
ENDBRANCH   6   9
ENDBRANCH   1   5
BRANCH   3  12
HETATM   12  C3  UNL     1      -2.199  26.314  26.587  1.00  0.00     0.684 A
HETATM   13  N4  UNL     1      -3.292  26.845  27.154  1.00  0.00    -0.200 N
HETATM   14  C4  UNL     1      -3.029  27.120  28.455  1.00  0.00     0.123 A
ATOM     15  H4  UNL     1      -4.180  27.016  26.681  1.00  0.00     0.183 HD
HETATM   16  C5  UNL     1      -1.724  26.733  28.662  1.00  0.00     0.123 A
HETATM   17  N5  UNL     1      -1.227  26.241  27.507  1.00  0.00    -0.200 N
ATOM     18  H5  UNL     1      -0.285  25.880  27.361  1.00  0.00     0.183 HD
ENDBRANCH   3  12
TORSDOF 3
ENDMDL