MODEL 2
REMARK VINA RESULT: -5.534520452      1.360      1.407
REMARK  2 active torsions:
REMARK  status: ('A' for Active; 'I' for Inactive)
REMARK    1  A    between atoms: N1_3  and  C3_5
REMARK    2  A    between atoms: C3_5  and  C5_13
REMARK       I    between atoms: N2_6  and  C4_8
REMARK       I    between atoms: C5_13  and  N5_15
ROOT
HETATM    1  C1  UNL     1       2.083  29.432  26.919  1.00  0.00     0.037 C
HETATM    2  C2  UNL     1       1.248  28.557  26.884  1.00  0.00     0.001 C
HETATM    3  N1  UNL     1       0.293  27.549  26.820  1.00  0.00    -0.297 N
ATOM      4  H1  UNL     1       0.608  26.581  26.878  1.00  0.00     0.178 HD
ENDROOT
BRANCH   3   5
HETATM    5  C3  UNL     1      -1.082  27.794  26.678  1.00  0.00     0.185 C
HETATM    6  N2  UNL     1      -1.648  27.701  25.557  1.00  0.00    -0.312 N
HETATM    7  C4  UNL     1      -1.033  27.357  24.332  1.00  0.00     0.187 C
ATOM      8  H2  UNL     1      -2.650  27.894  25.530  1.00  0.00     0.170 HD
HETATM    9  N3  UNL     1      -0.869  26.153  23.911  1.00  0.00    -0.373 N
HETATM   10  N4  UNL     1      -0.564  28.422  23.513  1.00  0.00    -0.064 NA
ATOM     11  H32 UNL     1      -1.204  25.390  24.497  1.00  0.00     0.158 HD
ATOM     12  H31 UNL     1      -0.425  25.905  23.026  1.00  0.00     0.158 HD
BRANCH   5  13
HETATM   13  C5  UNL     1      -1.867  28.158  27.836  1.00  0.00     0.299 C
HETATM   14  O1  UNL     1      -2.597  29.173  27.776  1.00  0.00    -0.263 OA
HETATM   15  N5  UNL     1      -1.825  27.388  29.040  1.00  0.00    -0.257 N
HETATM   16  C6  UNL     1      -2.590  27.762  30.137  1.00  0.00     0.184 C
ATOM     17  H5  UNL     1      -1.230  26.560  29.093  1.00  0.00     0.181 HD
HETATM   18  N6  UNL     1      -3.247  28.069  31.046  1.00  0.00    -0.172 NA
ENDBRANCH   5  13
ENDBRANCH   3   5
TORSDOF 2
ENDMDL