MODEL 3
REMARK VINA RESULT: -5.569367610      1.142      5.122
REMARK  4 active torsions:
REMARK  status: ('A' for Active; 'I' for Inactive)
REMARK    1  A    between atoms: C2_3  and  C3_5
REMARK    2  A    between atoms: C6_8  and  C7_9
REMARK    3  A    between atoms: C7_9  and  C8_11
REMARK    4  A    between atoms: C8_11  and  N4_12
ROOT
HETATM    1  N1  UNL     1      -4.549  26.061  26.498  1.00  0.00    -0.190 NA
HETATM    2  C1  UNL     1      -3.680  26.391  25.800  1.00  0.00     0.117 C
HETATM    3  C2  UNL     1      -2.625  26.807  24.931  1.00  0.00     0.152 C
HETATM    4  N2  UNL     1      -2.650  26.420  23.578  1.00  0.00    -0.088 NA
ENDROOT
BRANCH   3   5
HETATM    5  C3  UNL     1      -1.627  27.559  25.414  1.00  0.00     0.068 A
HETATM    6  C4  UNL     1      -1.795  28.594  26.309  1.00  0.00     0.034 A
HETATM    7  C5  UNL     1      -0.514  29.103  26.548  1.00  0.00     0.033 A
HETATM    8  C6  UNL     1       0.402  28.386  25.810  1.00  0.00     0.054 A
HETATM    9  N5  UNL     1      -0.333  27.468  25.147  1.00  0.00    -0.353 N
ATOM     10  H5  UNL     1       0.065  26.778  24.509  1.00  0.00     0.166 HD
BRANCH   8  11
HETATM   11  C7  UNL     1       1.711  28.569  25.770  1.00  0.00     0.076 C
HETATM   12  N3  UNL     1       2.483  27.789  24.871  1.00  0.00    -0.103 NA
BRANCH  11  13
HETATM   13  C8  UNL     1       2.400  29.558  26.632  1.00  0.00     0.285 C
BRANCH  13  14
HETATM   14  N4  UNL     1       2.420  29.080  27.961  1.00  0.00    -0.074 N
ATOM     15  H43 UNL     1       1.805  29.614  28.575  1.00  0.00     0.274 HD
ATOM     16  H42 UNL     1       1.962  28.173  28.053  1.00  0.00     0.274 HD
ATOM     17  H41 UNL     1       3.383  29.064  28.296  1.00  0.00     0.274 HD
ENDBRANCH  13  14
ENDBRANCH  11  13
ENDBRANCH   8  11
ENDBRANCH   3   5
TORSDOF 4
ENDMDL