MODEL 2
REMARK VINA RESULT: -5.974742032      2.673      4.483
REMARK  3 active torsions:
REMARK  status: ('A' for Active; 'I' for Inactive)
REMARK    1  A    between atoms: N1_1  and  C1_4
REMARK    2  A    between atoms: C4_9  and  N3_10
REMARK       I    between atoms: N3_10  and  C5_12
REMARK    3  A    between atoms: C5_12  and  C6_14
ROOT
HETATM    1  C1  UNL     1      -2.618  28.141  29.027  1.00  0.00     0.677 A
HETATM    2  N2  UNL     1      -3.787  28.078  28.382  1.00  0.00    -0.202 N
ATOM      3  H2  UNL     1      -4.629  28.360  28.884  1.00  0.00     0.183 HD
HETATM    4  C2  UNL     1      -3.914  27.665  27.112  1.00  0.00     0.110 A
HETATM    5  C3  UNL     1      -2.755  27.289  26.458  1.00  0.00     0.067 A
HETATM    6  C4  UNL     1      -1.548  27.352  27.116  1.00  0.00     0.125 A
HETATM    7  N5  UNL     1      -1.488  27.774  28.388  1.00  0.00    -0.177 N
ATOM      8  H5  UNL     1      -0.590  27.818  28.871  1.00  0.00     0.185 HD
ENDROOT
BRANCH   6   9
HETATM    9  N3  UNL     1      -0.445  27.012  26.547  1.00  0.00    -0.305 N
HETATM   10  C5  UNL     1       0.586  27.976  26.374  1.00  0.00     0.312 C
HETATM   11  O1  UNL     1       1.223  28.313  27.402  1.00  0.00    -0.262 OA
ATOM     12  H3  UNL     1      -0.311  26.055  26.221  1.00  0.00     0.170 HD
BRANCH  10  13
HETATM   13  C6  UNL     1       0.910  28.561  25.085  1.00  0.00     0.322 C
HETATM   14  N4  UNL     1      -0.022  28.475  24.021  1.00  0.00    -0.053 NA
HETATM   15  O2  UNL     1       1.996  29.147  24.868  1.00  0.00    -0.266 OA
ENDBRANCH  10  13
ENDBRANCH   6   9
BRANCH   1  16
HETATM   16  N1  UNL     1      -2.533  28.542  30.246  1.00  0.00    -0.234 N
ATOM     17  H12 UNL     1      -2.098  27.927  30.933  1.00  0.00     0.174 HD
ATOM     18  H11 UNL     1      -2.887  29.452  30.539  1.00  0.00     0.174 HD
ENDBRANCH   1  16
TORSDOF 3
ENDMDL