MODEL 3
REMARK VINA RESULT: -4.294603664      2.404      3.173
REMARK  5 active torsions:
REMARK  status: ('A' for Active; 'I' for Inactive)
REMARK    1  A    between atoms: N2_3  and  C2_5
REMARK    2  A    between atoms: C2_5  and  N3_7
REMARK    3  A    between atoms: N3_7  and  C3_9
REMARK    4  A    between atoms: C3_9  and  N4_11
REMARK    5  A    between atoms: N4_11  and  N5_13
ROOT
HETATM    1  N3  UNL     1      -0.238  28.571  27.642  1.00  0.00    -0.309 N
ATOM      2  H3  UNL     1       0.009  29.077  28.493  1.00  0.00     0.170 HD
ENDROOT
BRANCH   1   3
HETATM    3  C2  UNL     1       0.539  28.762  26.495  1.00  0.00     0.178 C
HETATM    4  S1  UNL     1       2.150  28.995  26.458  1.00  0.00    -0.040 SA
BRANCH   3   5
HETATM    5  N2  UNL     1      -0.144  28.753  25.219  1.00  0.00    -0.331 N
HETATM    6  C1  UNL     1       0.152  27.896  24.309  1.00  0.00     0.191 C
HETATM    7  N1  UNL     1      -0.570  27.963  23.088  1.00  0.00    -0.097 NA
ATOM      8  H2  UNL     1      -0.875  29.442  25.038  1.00  0.00     0.168 HD
ENDBRANCH   3   5
ENDBRANCH   1   3
BRANCH   1   9
HETATM    9  C3  UNL     1      -1.347  27.706  27.667  1.00  0.00     0.192 C
HETATM   10  S2  UNL     1      -2.813  28.275  28.085  1.00  0.00    -0.039 SA
BRANCH   9  11
HETATM   11  N4  UNL     1      -1.181  26.319  27.323  1.00  0.00    -0.283 N
ATOM     12  H4  UNL     1      -0.583  25.712  27.885  1.00  0.00     0.188 HD
BRANCH  11  13
HETATM   13  N5  UNL     1      -1.848  25.823  26.214  1.00  0.00    -0.343 N
ATOM     14  H52 UNL     1      -2.064  26.445  25.435  1.00  0.00     0.176 HD
ATOM     15  H51 UNL     1      -2.111  24.838  26.199  1.00  0.00     0.176 HD
ENDBRANCH  11  13
ENDBRANCH   9  11
ENDBRANCH   1   9
TORSDOF 5
ENDMDL