MODEL 2
REMARK VINA RESULT: -6.001758155      0.066      2.289
REMARK  1 active torsions:
REMARK  status: ('A' for Active; 'I' for Inactive)
REMARK       I    between atoms: C1_4  and  N3_6
REMARK    1  A    between atoms: N3_6  and  C2_8
ROOT
HETATM    1  C2  UNL     1      -1.050  27.075  26.575  1.00  0.00     0.692 A
HETATM    2  N4  UNL     1      -1.874  26.603  25.621  1.00  0.00    -0.141 N
ATOM      3  H4  UNL     1      -2.650  26.005  25.905  1.00  0.00     0.189 HD
HETATM    4  C3  UNL     1      -1.728  26.881  24.313  1.00  0.00     0.342 A
HETATM    5  O1  UNL     1      -2.536  26.409  23.444  1.00  0.00    -0.246 OA
HETATM    6  N5  UNL     1      -0.699  27.669  23.959  1.00  0.00    -0.260 N
ATOM      7  H5  UNL     1      -0.549  27.904  22.978  1.00  0.00     0.175 HD
HETATM    8  C4  UNL     1       0.135  28.147  24.907  1.00  0.00     0.342 A
HETATM    9  O2  UNL     1       1.103  28.894  24.538  1.00  0.00    -0.246 OA
HETATM   10  N6  UNL     1      -0.022  27.864  26.213  1.00  0.00    -0.141 N
ATOM     11  H6  UNL     1       0.622  28.238  26.910  1.00  0.00     0.189 HD
ENDROOT
BRANCH   1  12
HETATM   12  N3  UNL     1      -1.237  26.775  27.836  1.00  0.00    -0.163 N
HETATM   13  C1  UNL     1      -2.381  27.295  28.499  1.00  0.00     0.200 C
HETATM   14  N1  UNL     1      -2.230  28.298  29.280  1.00  0.00    -0.373 N
HETATM   15  N2  UNL     1      -3.664  26.729  28.312  1.00  0.00    -0.063 NA
ATOM     16  H12 UNL     1      -3.051  28.671  29.756  1.00  0.00     0.158 HD
ATOM     17  H11 UNL     1      -1.305  28.706  29.414  1.00  0.00     0.158 HD
ATOM     18  H3  UNL     1      -0.574  26.180  28.332  1.00  0.00     0.187 HD
ENDBRANCH   1  12
TORSDOF 1
ENDMDL