MODEL 3
REMARK VINA RESULT: -5.202956174      3.372      4.878
REMARK  3 active torsions:
REMARK  status: ('A' for Active; 'I' for Inactive)
REMARK    1  A    between atoms: C1_4  and  N2_5
REMARK    2  A    between atoms: C1_4  and  C3_10
REMARK    3  A    between atoms: N2_5  and  C2_7
ROOT
HETATM    1  N1  UNL     1      -1.633  28.299  24.131  1.00  0.00    -0.382 N
ATOM      2  H11 UNL     1      -0.762  28.492  23.637  1.00  0.00     0.157 HD
ATOM      3  H12 UNL     1      -2.500  28.188  23.606  1.00  0.00     0.157 HD
HETATM    4  C1  UNL     1      -1.635  28.199  25.397  1.00  0.00     0.146 C
ENDROOT
BRANCH   4   5
HETATM    5  N2  UNL     1      -2.840  27.933  26.082  1.00  0.00    -0.319 N
ATOM      6  H2  UNL     1      -3.198  28.659  26.702  1.00  0.00     0.169 HD
BRANCH   5   7
HETATM    7  C2  UNL     1      -3.581  26.749  25.976  1.00  0.00     0.186 C
HETATM    8  N3  UNL     1      -3.301  25.799  24.984  1.00  0.00    -0.070 NA
HETATM    9  S1  UNL     1      -4.787  26.465  27.015  1.00  0.00    -0.044 SA
ENDBRANCH   5   7
ENDBRANCH   4   5
BRANCH   4  10
HETATM   10  C3  UNL     1      -0.408  28.358  26.140  1.00  0.00     0.157 A
HETATM   11  N4  UNL     1       0.021  29.067  27.148  1.00  0.00    -0.291 N
HETATM   12  C4  UNL     1       1.330  28.577  27.188  1.00  0.00     0.327 A
ATOM     13  H4  UNL     1      -0.452  29.762  27.726  1.00  0.00     0.172 HD
HETATM   14  O1  UNL     1       2.364  28.772  27.885  1.00  0.00    -0.247 OA
HETATM   15  N5  UNL     1       0.909  27.787  26.091  1.00  0.00    -0.291 N
ATOM     16  H5  UNL     1       1.362  27.089  25.500  1.00  0.00     0.172 HD
ENDBRANCH   4  10
TORSDOF 3
ENDMDL