MODEL 3
REMARK VINA RESULT: -6.031686204      1.926      2.317
REMARK  2 active torsions:
REMARK  status: ('A' for Active; 'I' for Inactive)
REMARK    1  A    between atoms: C2_5  and  N2_6
REMARK    2  A    between atoms: N2_6  and  C3_8
ROOT
HETATM    1  O1  UNL     1      -0.300  27.541  23.306  1.00  0.00    -0.262 OA
HETATM    2  C1  UNL     1      -0.313  28.108  24.420  1.00  0.00     0.316 A
HETATM    3  N1  UNL     1      -1.419  28.532  25.182  1.00  0.00    -0.290 N
ATOM      4  H1  UNL     1      -2.390  28.416  24.891  1.00  0.00     0.172 HD
HETATM    5  C2  UNL     1      -1.061  29.083  26.289  1.00  0.00     0.191 A
HETATM    6  N5  UNL     1       0.348  29.084  26.381  1.00  0.00    -0.290 N
ATOM      7  H5  UNL     1       0.895  29.461  27.156  1.00  0.00     0.172 HD
HETATM    8  C6  UNL     1       0.873  28.473  25.214  1.00  0.00     0.316 A
HETATM    9  O2  UNL     1       2.085  28.288  24.927  1.00  0.00    -0.262 OA
ENDROOT
BRANCH   5  10
HETATM   10  N2  UNL     1      -1.976  29.606  27.258  1.00  0.00    -0.313 N
ATOM     11  H2  UNL     1      -2.135  30.612  27.298  1.00  0.00     0.170 HD
BRANCH  10  12
HETATM   12  C3  UNL     1      -2.596  28.851  28.069  1.00  0.00     0.123 A
HETATM   13  C4  UNL     1      -3.915  28.512  27.979  1.00  0.00     0.068 A
HETATM   14  C5  UNL     1      -4.210  27.674  29.050  1.00  0.00     0.111 A
HETATM   15  N3  UNL     1      -3.073  27.533  29.748  1.00  0.00    -0.310 N
HETATM   16  N4  UNL     1      -2.104  28.248  29.148  1.00  0.00    -0.286 N
ATOM     17  H3  UNL     1      -2.962  26.975  30.594  1.00  0.00     0.186 HD
ATOM     18  H4  UNL     1      -1.139  28.317  29.471  1.00  0.00     0.188 HD
ENDBRANCH  10  12
ENDBRANCH   5  10
TORSDOF 2
ENDMDL