MODEL 3
REMARK VINA RESULT: -5.635014751      1.375      2.636
REMARK  3 active torsions:
REMARK  status: ('A' for Active; 'I' for Inactive)
REMARK    1  A    between atoms: C1_4  and  N2_5
REMARK    2  A    between atoms: C3_12  and  N5_13
REMARK    3  A    between atoms: N5_13  and  C4_15
ROOT
HETATM    1  N2  UNL     1      -1.412  27.596  25.427  1.00  0.00    -0.090 N
HETATM    2  C2  UNL     1      -2.151  26.454  25.480  1.00  0.00     0.361 A
HETATM    3  O1  UNL     1      -2.957  26.086  24.582  1.00  0.00    -0.244 OA
HETATM    4  N3  UNL     1      -1.883  25.795  26.627  1.00  0.00    -0.236 N
ATOM      5  H3  UNL     1      -2.289  24.911  26.935  1.00  0.00     0.192 HD
HETATM    6  N4  UNL     1      -0.999  26.518  27.264  1.00  0.00    -0.127 N
ATOM      7  H4  UNL     1      -0.600  26.275  28.171  1.00  0.00     0.205 HD
HETATM    8  C3  UNL     1      -0.684  27.625  26.566  1.00  0.00     0.710 A
ENDROOT
BRANCH   8   9
HETATM    9  N5  UNL     1       0.124  28.580  26.828  1.00  0.00    -0.166 N
ATOM     10  H5  UNL     1      -0.280  29.485  27.069  1.00  0.00     0.186 HD
BRANCH   9  11
HETATM   11  C4  UNL     1       1.532  28.481  26.809  1.00  0.00     0.199 C
HETATM   12  N6  UNL     1       2.370  28.810  27.899  1.00  0.00    -0.069 NA
HETATM   13  S1  UNL     1       2.222  27.955  25.433  1.00  0.00    -0.044 SA
ENDBRANCH   9  11
ENDBRANCH   8   9
BRANCH   1  14
HETATM   14  C1  UNL     1      -1.412  28.557  24.380  1.00  0.00     0.205 C
HETATM   15  N1  UNL     1      -1.043  28.243  23.185  1.00  0.00    -0.394 N
ATOM     16  H12 UNL     1      -0.748  27.283  23.005  1.00  0.00     0.156 HD
ATOM     17  H11 UNL     1      -1.043  28.933  22.434  1.00  0.00     0.156 HD
ENDBRANCH   1  14
TORSDOF 3
ENDMDL