MODEL 3
REMARK VINA RESULT: -7.839228057      4.219      7.828
REMARK  12 active torsions:
REMARK  status: ('A' for Active; 'I' for Inactive)
REMARK    1  A    between atoms: C3_4  and  N2_5
REMARK    2  A    between atoms: C3_4  and  C14_17
REMARK    3  A    between atoms: N2_5  and  C4_7
REMARK    4  A    between atoms: C4_7  and  C5_8
REMARK    5  A    between atoms: C5_8  and  C6_9
REMARK    6  A    between atoms: C6_9  and  C7_10
REMARK    7  A    between atoms: C7_10  and  C8_11
REMARK    8  A    between atoms: C14_17  and  N3_18
REMARK    9  A    between atoms: C14_17  and  C16_22
REMARK   10  A    between atoms: N3_18  and  C15_20
REMARK   11  A    between atoms: C16_22  and  O2_23
REMARK   12  A    between atoms: C16_22  and  N4_25
REMARK       I    between atoms: N5_29  and  C20_30
ROOT
HETATM    1  C14 UNL     1      76.473  48.391   3.587  1.00  0.00     0.209 C
ENDROOT
BRANCH   1   2
HETATM    2  C3  UNL     1      76.607  49.893   3.476  1.00  0.00     0.056 C
HETATM    3  C2  UNL     1      76.543  50.586   2.384  1.00  0.00     0.045 C
HETATM    4  C1  UNL     1      76.779  52.053   2.355  1.00  0.00     0.067 C
HETATM    5  N1  UNL     1      76.267  49.998   1.109  1.00  0.00    -0.105 NA
BRANCH   2   6
HETATM    6  N2  UNL     1      76.920  50.598   4.713  1.00  0.00    -0.390 N
ATOM      7  H2  UNL     1      77.873  50.935   4.855  1.00  0.00     0.159 HD
BRANCH   6   8
HETATM    8  C4  UNL     1      75.962  50.836   5.722  1.00  0.00     0.119 C
BRANCH   8   9
HETATM    9  C5  UNL     1      76.510  51.596   6.938  1.00  0.00     0.020 C
BRANCH   9  10
HETATM   10  C6  UNL     1      75.472  51.626   7.993  1.00  0.00     0.002 C
BRANCH  10  11
HETATM   11  C7  UNL     1      74.206  50.928   7.804  1.00  0.00     0.005 C
BRANCH  11  12
HETATM   12  C8  UNL     1      72.890  51.605   8.033  1.00  0.00    -0.014 C
HETATM   13  C9  UNL     1      72.437  51.045   9.395  1.00  0.00     0.004 C
HETATM   14  C10 UNL     1      71.299  51.790   9.991  1.00  0.00     0.000 C
HETATM   15  C11 UNL     1      71.860  53.191  10.313  1.00  0.00     0.000 C
HETATM   16  C12 UNL     1      72.099  53.828   8.989  1.00  0.00     0.000 C
HETATM   17  C13 UNL     1      73.039  53.080   8.075  1.00  0.00     0.004 C
ENDBRANCH  11  12
ENDBRANCH  10  11
ENDBRANCH   9  10
ENDBRANCH   8   9
ENDBRANCH   6   8
ENDBRANCH   2   6
ENDBRANCH   1   2
BRANCH   1  18
HETATM   18  N3  UNL     1      77.607  47.853   2.788  1.00  0.00    -0.351 N
ATOM     19  H3  UNL     1      77.412  47.210   2.020  1.00  0.00     0.163 HD
BRANCH  18  20
HETATM   20  C15 UNL     1      78.938  48.206   3.060  1.00  0.00     0.349 C
HETATM   21  O1  UNL     1      79.764  48.295   2.128  1.00  0.00    -0.284 OA
ENDBRANCH  18  20
ENDBRANCH   1  18
BRANCH   1  22
HETATM   22  C16 UNL     1      75.248  47.797   3.111  1.00  0.00     0.144 C
BRANCH  22  23
HETATM   23  O2  UNL     1      75.373  47.002   2.089  1.00  0.00    -0.348 OA
ATOM     24  H2  UNL     1      74.936  46.163   2.170  1.00  0.00     0.219 HD
ENDBRANCH  22  23
BRANCH  22  25
HETATM   25  N4  UNL     1      73.931  47.979   3.633  1.00  0.00    -0.347 N
HETATM   26  C17 UNL     1      72.985  48.961   3.212  1.00  0.00     0.128 C
HETATM   27  C18 UNL     1      72.728  49.870   4.404  1.00  0.00     0.040 C
HETATM   28  C19 UNL     1      72.026  49.055   5.460  1.00  0.00     0.129 C
HETATM   29  N5  UNL     1      72.641  47.773   5.644  1.00  0.00    -0.339 N
HETATM   30  C20 UNL     1      72.415  47.111   6.912  1.00  0.00     0.185 C
HETATM   31  C21 UNL     1      73.468  47.085   4.694  1.00  0.00     0.253 C
HETATM   32  N6  UNL     1      72.134  47.812   7.897  1.00  0.00    -0.374 N
HETATM   33  N7  UNL     1      72.530  45.697   6.943  1.00  0.00    -0.064 NA
ATOM     34  H62 UNL     1      72.052  48.828   7.875  1.00  0.00     0.158 HD
ATOM     35  H61 UNL     1      71.975  47.346   8.790  1.00  0.00     0.158 HD
ENDBRANCH  22  25
ENDBRANCH   1  22
TORSDOF 12
ENDMDL