MODEL 2
REMARK VINA RESULT: -7.810690437      1.586      1.936
REMARK  14 active torsions:
REMARK  status: ('A' for Active; 'I' for Inactive)
REMARK    1  A    between atoms: C2_2  and  C3_3
REMARK    2  A    between atoms: N1_8  and  C8_9
REMARK    3  A    between atoms: N1_8  and  C16_20
REMARK    4  A    between atoms: C8_9  and  C9_10
REMARK    5  A    between atoms: C9_10  and  C10_11
REMARK    6  A    between atoms: C10_11  and  N2_12
REMARK       I    between atoms: N2_12  and  C11_14
REMARK    7  A    between atoms: C11_14  and  C12_16
REMARK    8  A    between atoms: C16_20  and  C17_21
REMARK    9  A    between atoms: C17_21  and  C18_22
REMARK       I    between atoms: C18_22  and  N3_24
REMARK   10  A    between atoms: N3_24  and  C19_25
REMARK   11  A    between atoms: C19_25  and  C20_26
REMARK   12  A    between atoms: C20_26  and  N4_28
REMARK   13  A    between atoms: C20_26  and  O3_32
REMARK   14  A    between atoms: C22_34  and  O4_35
ROOT
HETATM    1  C3  UNL     1      75.572  52.132   7.277  1.00  0.00     0.042 C
HETATM    2  C4  UNL     1      74.705  51.650   8.400  1.00  0.00     0.015 C
HETATM    3  C5  UNL     1      73.251  51.600   8.025  1.00  0.00     0.008 C
HETATM    4  C6  UNL     1      72.537  50.587   8.910  1.00  0.00     0.011 C
HETATM    5  C7  UNL     1      72.955  51.472   6.597  1.00  0.00     0.244 C
HETATM    6  N1  UNL     1      73.973  51.038   5.679  1.00  0.00    -0.040 N
HETATM    7  C22 UNL     1      75.201  51.797   5.917  1.00  0.00     0.327 C
ENDROOT
BRANCH   6   8
HETATM    8  C8  UNL     1      73.515  51.352   4.369  1.00  0.00     0.242 C
BRANCH   8   9
HETATM    9  C9  UNL     1      74.189  52.184   3.403  1.00  0.00     0.048 C
BRANCH   9  10
HETATM   10  C10 UNL     1      74.814  51.574   2.188  1.00  0.00     0.124 C
BRANCH  10  11
HETATM   11  N2  UNL     1      75.524  50.344   2.485  1.00  0.00    -0.360 N
HETATM   12  C11 UNL     1      76.068  49.514   1.510  1.00  0.00     0.225 C
HETATM   13  O1  UNL     1      75.989  49.778   0.296  1.00  0.00    -0.273 OA
ATOM     14  H2  UNL     1      75.631  50.073   3.462  1.00  0.00     0.162 HD
BRANCH  12  15
HETATM   15  C12 UNL     1      76.774  48.259   1.912  1.00  0.00     0.030 C
HETATM   16  C13 UNL     1      75.999  47.109   1.316  1.00  0.00     0.024 C
HETATM   17  C14 UNL     1      76.788  48.157   3.434  1.00  0.00     0.024 C
HETATM   18  C15 UNL     1      78.185  48.325   1.415  1.00  0.00     0.024 C
ENDBRANCH  12  15
ENDBRANCH  10  11
ENDBRANCH   9  10
ENDBRANCH   8   9
ENDBRANCH   6   8
BRANCH   6  19
HETATM   19  C16 UNL     1      74.150  49.641   5.839  1.00  0.00     0.251 C
BRANCH  19  20
HETATM   20  C17 UNL     1      73.487  48.659   5.013  1.00  0.00     0.147 C
BRANCH  20  21
HETATM   21  C18 UNL     1      72.253  48.092   5.770  1.00  0.00     0.292 C
HETATM   22  O2  UNL     1      71.186  48.696   5.488  1.00  0.00    -0.257 OA
HETATM   23  N3  UNL     1      72.415  47.055   6.617  1.00  0.00    -0.383 NA
BRANCH  23  24
HETATM   24  C19 UNL     1      72.578  45.990   7.487  1.00  0.00     0.226 C
BRANCH  24  25
HETATM   25  C20 UNL     1      71.478  45.786   8.522  1.00  0.00     0.263 C
HETATM   26  C21 UNL     1      71.243  47.069   9.260  1.00  0.00     0.085 C
BRANCH  25  27
HETATM   27  N4  UNL     1      71.849  44.760   9.469  1.00  0.00    -0.041 N
ATOM     28  H43 UNL     1      72.547  44.124   9.083  1.00  0.00     0.278 HD
ATOM     29  H42 UNL     1      72.397  45.139  10.241  1.00  0.00     0.278 HD
ATOM     30  H41 UNL     1      71.025  44.259   9.802  1.00  0.00     0.278 HD
ENDBRANCH  25  27
BRANCH  25  31
HETATM   31  O3  UNL     1      70.323  45.389   7.844  1.00  0.00    -0.360 OA
ATOM     32  H3  UNL     1      69.685  46.089   7.923  1.00  0.00     0.213 HD
ENDBRANCH  25  31
ENDBRANCH  24  25
ENDBRANCH  23  24
ENDBRANCH  20  21
ENDBRANCH  19  20
ENDBRANCH   6  19
BRANCH   7  33
HETATM   33  O4  UNL     1      76.289  51.179   5.297  1.00  0.00    -0.369 OA
ATOM     34  H4  UNL     1      77.090  51.534   5.664  1.00  0.00     0.212 HD
ENDBRANCH   7  33
BRANCH   1  35
HETATM   35  C2  UNL     1      77.005  51.752   7.627  1.00  0.00     0.004 C
HETATM   36  C1  UNL     1      77.733  53.051   7.963  1.00  0.00     0.005 C
ENDBRANCH   1  35
TORSDOF 14
ENDMDL