MODEL 1
REMARK VINA RESULT: -9.001835627      0.000      0.000
REMARK  9 active torsions:
REMARK  status: ('A' for Active; 'I' for Inactive)
REMARK    1  A    between atoms: N1_4  and  S1_5
REMARK    2  A    between atoms: S1_5  and  N2_8
REMARK       I    between atoms: N2_8  and  C4_10
REMARK       I    between atoms: C4_10  and  N4_14
REMARK    3  A    between atoms: N4_14  and  C5_16
REMARK    4  A    between atoms: C5_16  and  C6_17
REMARK    5  A    between atoms: C6_17  and  C7_18
REMARK    6  A    between atoms: C7_18  and  C8_19
REMARK    7  A    between atoms: C8_19  and  C9_20
REMARK    8  A    between atoms: C9_20  and  C10_21
REMARK       I    between atoms: C10_21  and  N5_23
REMARK    9  A    between atoms: N5_23  and  C11_25
ROOT
HETATM    1  C6  UNL     1      77.961  53.832   8.001  1.00  0.00     0.020 C
ENDROOT
BRANCH   1   2
HETATM    2  C5  UNL     1      77.119  54.852   8.757  1.00  0.00     0.138 C
BRANCH   2   3
HETATM    3  N4  UNL     1      77.917  56.016   9.059  1.00  0.00    -0.226 N
HETATM    4  C4  UNL     1      77.931  56.509  10.381  1.00  0.00     0.682 C
HETATM    5  N2  UNL     1      76.832  56.266  11.225  1.00  0.00    -0.104 N
HETATM    6  N3  UNL     1      78.948  57.173  10.790  1.00  0.00    -0.234 N
ATOM      7  H2  UNL     1      76.282  55.419  11.076  1.00  0.00     0.198 HD
ATOM      8  H32 UNL     1      78.958  57.530  11.746  1.00  0.00     0.174 HD
ATOM      9  H31 UNL     1      79.745  57.349  10.179  1.00  0.00     0.174 HD
ATOM     10  H4  UNL     1      78.462  56.475   8.329  1.00  0.00     0.177 HD
BRANCH   5  11
HETATM   11  S1  UNL     1      76.373  57.323  12.488  1.00  0.00     0.317 S
HETATM   12  O1  UNL     1      77.569  57.542  13.380  1.00  0.00    -0.188 OA
HETATM   13  O2  UNL     1      75.971  58.655  11.922  1.00  0.00    -0.188 OA
BRANCH  11  14
HETATM   14  N1  UNL     1      75.101  56.750  13.464  1.00  0.00    -0.186 NA
HETATM   15  C2  UNL     1      73.747  56.671  12.795  1.00  0.00     0.086 A
HETATM   16  C1  UNL     1      72.710  57.348  13.664  1.00  0.00     0.029 C
HETATM   17  C3  UNL     1      74.463  55.491  13.231  1.00  0.00     0.130 A
ENDBRANCH  11  14
ENDBRANCH   5  11
ENDBRANCH   2   3
ENDBRANCH   1   2
BRANCH   1  18
HETATM   18  C7  UNL     1      77.290  52.501   8.041  1.00  0.00     0.002 C
BRANCH  18  19
HETATM   19  C8  UNL     1      75.838  52.611   7.706  1.00  0.00     0.009 C
BRANCH  19  20
HETATM   20  C9  UNL     1      75.002  51.485   8.231  1.00  0.00     0.103 C
BRANCH  20  21
HETATM   21  C10 UNL     1      74.358  50.710   7.148  1.00  0.00     0.218 C
HETATM   22  O3  UNL     1      73.224  50.221   7.355  1.00  0.00    -0.274 OA
HETATM   23  N5  UNL     1      74.993  50.521   5.916  1.00  0.00    -0.352 N
ATOM     24  H5  UNL     1      75.917  50.935   5.794  1.00  0.00     0.163 HD
BRANCH  23  25
HETATM   25  C11 UNL     1      74.442  49.785   4.803  1.00  0.00     0.034 C
HETATM   26  C12 UNL     1      75.480  49.807   3.681  1.00  0.00     0.035 C
HETATM   27  C13 UNL     1      74.982  49.045   2.490  1.00  0.00    -0.012 C
HETATM   28  C14 UNL     1      73.747  49.769   1.985  1.00  0.00     0.009 C
HETATM   29  C18 UNL     1      74.686  47.617   2.842  1.00  0.00     0.009 C
HETATM   30  C15 UNL     1      72.705  49.682   3.057  1.00  0.00    -0.012 C
HETATM   31  C16 UNL     1      72.397  48.259   3.449  1.00  0.00     0.009 C
HETATM   32  C20 UNL     1      73.168  50.432   4.289  1.00  0.00     0.035 C
HETATM   33  C17 UNL     1      73.663  47.614   3.961  1.00  0.00    -0.012 C
HETATM   34  C19 UNL     1      74.227  48.330   5.155  1.00  0.00     0.035 C
ENDBRANCH  23  25
ENDBRANCH  20  21
ENDBRANCH  19  20
ENDBRANCH  18  19
ENDBRANCH   1  18
TORSDOF 9
ENDMDL