MODEL 3
REMARK VINA RESULT: -8.739564021      3.256      6.213
REMARK  10 active torsions:
REMARK  status: ('A' for Active; 'I' for Inactive)
REMARK    1  A    between atoms: C1_2  and  C2_4
REMARK    2  A    between atoms: C2_4  and  C3_5
REMARK    3  A    between atoms: C2_4  and  N5_13
REMARK    4  A    between atoms: C4_6  and  C5_7
REMARK    5  A    between atoms: C5_7  and  N2_8
REMARK    6  A    between atoms: N5_13  and  C7_15
REMARK    7  A    between atoms: C7_15  and  C8_16
REMARK    8  A    between atoms: C8_16  and  C9_17
REMARK    9  A    between atoms: C9_17  and  C10_18
REMARK       I    between atoms: N6_24  and  C16_26
REMARK   10  A    between atoms: C16_26  and  C17_28
ROOT
HETATM    1  C7  UNL     1      75.984  50.692   2.733  1.00  0.00     0.080 C
HETATM    2  N6  UNL     1      76.435  50.355   1.591  1.00  0.00    -0.317 N
ATOM      3  H6  UNL     1      75.837  49.751   1.027  1.00  0.00     0.170 HD
HETATM    4  C16 UNL     1      77.667  50.723   1.022  1.00  0.00     0.228 C
HETATM    5  O2  UNL     1      77.735  51.678   0.201  1.00  0.00    -0.273 OA
ENDROOT
BRANCH   1   6
HETATM    6  N5  UNL     1      74.712  50.217   3.134  1.00  0.00    -0.363 N
ATOM      7  H5  UNL     1      74.109  50.792   3.723  1.00  0.00     0.162 HD
BRANCH   6   8
HETATM    8  C2  UNL     1      74.253  48.840   2.678  1.00  0.00     0.195 C
BRANCH   8   9
HETATM    9  C1  UNL     1      75.108  47.911   3.391  1.00  0.00     0.257 C
HETATM   10  N1  UNL     1      76.102  47.155   2.670  1.00  0.00    -0.060 NA
HETATM   11  O1  UNL     1      75.049  47.724   4.630  1.00  0.00    -0.274 OA
ENDBRANCH   8   9
BRANCH   8  12
HETATM   12  C3  UNL     1      72.812  48.900   2.845  1.00  0.00     0.008 C
HETATM   13  C4  UNL     1      71.927  48.038   3.593  1.00  0.00     0.015 C
BRANCH  13  14
HETATM   14  C5  UNL     1      71.948  47.980   5.072  1.00  0.00     0.090 C
BRANCH  14  15
HETATM   15  N2  UNL     1      72.208  46.794   5.755  1.00  0.00    -0.343 N
HETATM   16  C6  UNL     1      72.213  46.575   7.015  1.00  0.00     0.200 C
HETATM   17  N3  UNL     1      71.928  47.620   7.932  1.00  0.00    -0.067 NA
HETATM   18  N4  UNL     1      72.507  45.280   7.509  1.00  0.00    -0.067 NA
ATOM     19  H2  UNL     1      72.424  45.989   5.169  1.00  0.00     0.167 HD
ENDBRANCH  14  15
ENDBRANCH  13  14
ENDBRANCH   8  12
ENDBRANCH   6   8
ENDBRANCH   1   6
BRANCH   1  20
HETATM   20  C8  UNL     1      76.756  51.582   3.669  1.00  0.00     0.076 C
BRANCH  20  21
HETATM   21  C9  UNL     1      77.467  50.763   4.693  1.00  0.00     0.012 C
BRANCH  21  22
HETATM   22  C10 UNL     1      77.368  51.280   6.081  1.00  0.00    -0.014 C
HETATM   23  C11 UNL     1      75.932  51.278   6.548  1.00  0.00     0.004 C
HETATM   24  C12 UNL     1      75.838  51.656   8.005  1.00  0.00     0.000 C
HETATM   25  C13 UNL     1      76.469  53.012   8.198  1.00  0.00     0.000 C
HETATM   26  C14 UNL     1      77.927  52.908   7.798  1.00  0.00     0.000 C
HETATM   27  C15 UNL     1      77.928  52.645   6.285  1.00  0.00     0.004 C
ENDBRANCH  21  22
ENDBRANCH  20  21
ENDBRANCH   1  20
BRANCH   4  28
HETATM   28  C17 UNL     1      78.891  50.003   1.376  1.00  0.00     0.104 C
HETATM   29  C18 UNL     1      80.120  50.615   0.693  1.00  0.00     0.017 C
HETATM   30  C19 UNL     1      81.328  49.940   1.255  1.00  0.00     0.028 C
HETATM   31  C20 UNL     1      81.268  48.448   1.252  1.00  0.00     0.232 C
HETATM   32  N7  UNL     1      80.000  47.904   1.630  1.00  0.00    -0.074 N
HETATM   33  C21 UNL     1      78.873  48.540   0.974  1.00  0.00     0.246 C
ATOM     34  H72 UNL     1      79.982  46.897   1.480  1.00  0.00     0.277 HD
ATOM     35  H71 UNL     1      79.887  47.928   2.643  1.00  0.00     0.277 HD
ENDBRANCH   4  28
TORSDOF 10
ENDMDL