MODEL 2
REMARK VINA RESULT: -8.605945796      2.866      8.021
REMARK  11 active torsions:
REMARK  status: ('A' for Active; 'I' for Inactive)
REMARK    1  A    between atoms: N1_6  and  C6_7
REMARK    2  A    between atoms: C6_7  and  C7_8
REMARK       I    between atoms: C7_8  and  N2_10
REMARK    3  A    between atoms: N2_10  and  C8_12
REMARK    4  A    between atoms: C8_12  and  C9_13
REMARK    5  A    between atoms: C9_13  and  C10_14
REMARK    6  A    between atoms: C10_14  and  C11_15
REMARK    7  A    between atoms: C11_15  and  N3_16
REMARK    8  A    between atoms: N3_16  and  C12_18
REMARK    9  A    between atoms: C12_18  and  N4_19
REMARK   10  A    between atoms: C13_22  and  C14_23
REMARK   11  A    between atoms: C19_28  and  C20_29
ROOT
HETATM    1  C10 UNL     1      76.239  57.844  10.286  1.00  0.00     0.021 C
ENDROOT
BRANCH   1   2
HETATM    2  C9  UNL     1      76.442  56.890   9.140  1.00  0.00     0.021 C
BRANCH   2   3
HETATM    3  C8  UNL     1      77.436  55.816   9.437  1.00  0.00     0.122 C
BRANCH   3   4
HETATM    4  N2  UNL     1      77.146  54.546   8.823  1.00  0.00    -0.360 N
HETATM    5  C7  UNL     1      77.441  54.187   7.496  1.00  0.00     0.235 C
HETATM    6  O1  UNL     1      78.017  55.038   6.744  1.00  0.00    -0.272 OA
ATOM      7  H2  UNL     1      76.686  53.844   9.403  1.00  0.00     0.162 HD
BRANCH   5   8
HETATM    8  C6  UNL     1      77.121  52.867   6.908  1.00  0.00     0.230 C
BRANCH   8   9
HETATM    9  N1  UNL     1      75.739  52.496   7.104  1.00  0.00    -0.325 N
HETATM   10  C5  UNL     1      75.453  51.587   8.204  1.00  0.00     0.130 C
HETATM   11  C4  UNL     1      74.109  50.954   8.059  1.00  0.00     0.050 C
HETATM   12  C2  UNL     1      73.627  50.844   6.641  1.00  0.00     0.029 C
HETATM   13  C1  UNL     1      72.308  50.137   6.613  1.00  0.00     0.038 C
HETATM   14  C3  UNL     1      74.639  50.123   5.764  1.00  0.00     0.038 C
HETATM   15  N6  UNL     1      73.530  52.216   6.138  1.00  0.00    -0.334 N
HETATM   16  C21 UNL     1      74.721  53.006   6.240  1.00  0.00     0.319 C
ATOM     17  H6  UNL     1      72.667  52.587   5.740  1.00  0.00     0.165 HD
HETATM   18  O3  UNL     1      74.884  54.081   5.621  1.00  0.00    -0.247 OA
ENDBRANCH   8   9
ENDBRANCH   5   8
ENDBRANCH   3   4
ENDBRANCH   2   3
ENDBRANCH   1   2
BRANCH   1  19
HETATM   19  C11 UNL     1      74.981  57.590  11.050  1.00  0.00     0.121 C
BRANCH  19  20
HETATM   20  N3  UNL     1      75.178  56.708  12.182  1.00  0.00    -0.377 N
ATOM     21  H3  UNL     1      75.895  56.869  12.890  1.00  0.00     0.161 HD
BRANCH  20  22
HETATM   22  C12 UNL     1      74.266  55.571  12.224  1.00  0.00     0.094 C
HETATM   23  C13 UNL     1      73.465  55.420  11.051  1.00  0.00     0.051 C
BRANCH  22  24
HETATM   24  N4  UNL     1      74.351  54.936  13.314  1.00  0.00    -0.386 N
ATOM     25  H42 UNL     1      74.078  53.999  13.609  1.00  0.00     0.157 HD
ATOM     26  H41 UNL     1      74.775  55.499  14.052  1.00  0.00     0.157 HD
ENDBRANCH  22  24
BRANCH  23  27
HETATM   27  C14 UNL     1      72.563  54.303  10.800  1.00  0.00    -0.064 C
HETATM   28  C15 UNL     1      72.304  54.035   9.348  1.00  0.00     0.035 C
HETATM   29  C16 UNL     1      71.249  53.002   9.070  1.00  0.00     0.004 C
HETATM   30  C17 UNL     1      71.294  52.041  10.237  1.00  0.00     0.001 C
HETATM   31  C18 UNL     1      70.674  52.785  11.404  1.00  0.00     0.018 C
HETATM   32  C19 UNL     1      71.446  54.044  11.746  1.00  0.00     0.104 C
BRANCH  32  33
HETATM   33  C20 UNL     1      70.461  55.117  11.962  1.00  0.00     0.239 C
HETATM   34  N5  UNL     1      69.416  55.476  11.065  1.00  0.00    -0.062 NA
HETATM   35  O2  UNL     1      70.468  55.842  13.022  1.00  0.00    -0.276 OA
ENDBRANCH  32  33
ENDBRANCH  23  27
ENDBRANCH  20  22
ENDBRANCH  19  20
ENDBRANCH   1  19
TORSDOF 11
ENDMDL