MODEL 4
REMARK VINA RESULT: -8.411733109      0.860      1.080
REMARK  10 active torsions:
REMARK  status: ('A' for Active; 'I' for Inactive)
REMARK    1  A    between atoms: N3_4  and  C2_6
REMARK    2  A    between atoms: C2_6  and  C3_7
REMARK    3  A    between atoms: C3_7  and  C4_8
REMARK    4  A    between atoms: C4_8  and  C5_9
REMARK    5  A    between atoms: C5_9  and  C6_10
REMARK    6  A    between atoms: C5_9  and  N7_23
REMARK    7  A    between atoms: C6_10  and  C7_11
REMARK    8  A    between atoms: C7_11  and  C8_12
REMARK    9  A    between atoms: C8_12  and  N4_13
REMARK       I    between atoms: C9_15  and  N6_17
REMARK       I    between atoms: N7_23  and  C15_25
REMARK       I    between atoms: C15_25  and  N8_27
REMARK   10  A    between atoms: N8_27  and  C16_29
ROOT
HETATM    1  C5  UNL     1      74.593  51.833   7.532  1.00  0.00     0.086 C
ENDROOT
BRANCH   1   2
HETATM    2  C4  UNL     1      73.724  50.627   7.683  1.00  0.00     0.027 C
BRANCH   2   3
HETATM    3  C3  UNL     1      72.393  50.742   6.993  1.00  0.00     0.022 C
BRANCH   3   4
HETATM    4  C2  UNL     1      72.263  49.516   6.088  1.00  0.00     0.122 C
BRANCH   4   5
HETATM    5  N3  UNL     1      72.323  48.298   6.838  1.00  0.00    -0.367 N
HETATM    6  C1  UNL     1      73.033  47.277   6.496  1.00  0.00     0.196 C
HETATM    7  N1  UNL     1      73.830  47.284   5.322  1.00  0.00    -0.067 NA
HETATM    8  N2  UNL     1      73.046  46.102   7.287  1.00  0.00    -0.067 NA
ATOM      9  H3  UNL     1      71.771  48.234   7.694  1.00  0.00     0.161 HD
ENDBRANCH   4   5
ENDBRANCH   3   4
ENDBRANCH   2   3
ENDBRANCH   1   2
BRANCH   1  10
HETATM   10  C6  UNL     1      76.021  51.539   7.245  1.00  0.00     0.027 C
BRANCH  10  11
HETATM   11  C7  UNL     1      76.943  52.242   8.216  1.00  0.00     0.022 C
BRANCH  11  12
HETATM   12  C8  UNL     1      77.461  53.528   7.611  1.00  0.00     0.122 C
BRANCH  12  13
HETATM   13  N4  UNL     1      77.611  54.490   8.664  1.00  0.00    -0.365 N
HETATM   14  C9  UNL     1      77.068  55.653   8.672  1.00  0.00     0.186 C
HETATM   15  N5  UNL     1      76.248  56.118   7.622  1.00  0.00    -0.064 NA
HETATM   16  N6  UNL     1      77.305  56.499   9.781  1.00  0.00    -0.356 N
HETATM   17  C10 UNL     1      76.644  56.161  11.028  1.00  0.00     0.125 C
HETATM   18  C14 UNL     1      78.164  57.665   9.723  1.00  0.00     0.125 C
HETATM   19  C11 UNL     1      77.152  57.093  12.105  1.00  0.00     0.020 C
HETATM   20  C12 UNL     1      76.873  58.524  11.694  1.00  0.00     0.003 C
HETATM   21  C13 UNL     1      77.359  58.823  10.301  1.00  0.00     0.020 C
ATOM     22  H4  UNL     1      78.191  54.232   9.463  1.00  0.00     0.162 HD
ENDBRANCH  12  13
ENDBRANCH  11  12
ENDBRANCH  10  11
ENDBRANCH   1  10
BRANCH   1  23
HETATM   23  N7  UNL     1      74.509  52.598   8.760  1.00  0.00    -0.338 N
HETATM   24  C15 UNL     1      73.691  53.784   8.841  1.00  0.00     0.322 C
HETATM   25  O1  UNL     1      73.035  54.175   7.840  1.00  0.00    -0.247 OA
HETATM   26  N8  UNL     1      73.588  54.548  10.012  1.00  0.00    -0.289 N
ATOM     27  H8  UNL     1      74.418  55.013  10.377  1.00  0.00     0.172 HD
ATOM     28  H7  UNL     1      75.036  52.294   9.579  1.00  0.00     0.164 HD
BRANCH  26  29
HETATM   29  C16 UNL     1      72.453  54.678  10.646  1.00  0.00     0.152 A
HETATM   30  N9  UNL     1      71.259  54.263  10.230  1.00  0.00    -0.346 N
HETATM   31  C17 UNL     1      70.225  54.479  10.998  1.00  0.00     0.097 A
ATOM     32  H9  UNL     1      71.154  53.788   9.334  1.00  0.00     0.167 HD
HETATM   33  C18 UNL     1      70.432  55.121  12.189  1.00  0.00     0.070 A
HETATM   34  S1  UNL     1      72.118  55.391  12.155  1.00  0.00    -0.064 SA
ENDBRANCH  26  29
ENDBRANCH   1  23
TORSDOF 10
ENDMDL