MODEL 1
REMARK VINA RESULT: -8.716946776      0.000      0.000
REMARK  9 active torsions:
REMARK  status: ('A' for Active; 'I' for Inactive)
REMARK    1  A    between atoms: N1_12  and  C11_13
REMARK    2  A    between atoms: C11_13  and  C12_14
REMARK       I    between atoms: C12_14  and  N2_16
REMARK    3  A    between atoms: N2_16  and  C13_18
REMARK    4  A    between atoms: C13_18  and  C14_19
REMARK    5  A    between atoms: C14_19  and  C15_20
REMARK    6  A    between atoms: C15_20  and  C16_21
REMARK    7  A    between atoms: C16_21  and  C17_22
REMARK    8  A    between atoms: C17_22  and  C18_23
REMARK    9  A    between atoms: C18_23  and  N3_24
REMARK       I    between atoms: N3_24  and  C19_26
ROOT
HETATM    1  C11 UNL     1      76.042  51.861   4.106  1.00  0.00     0.228 C
ENDROOT
BRANCH   1   2
HETATM    2  N1  UNL     1      76.444  50.860   3.174  1.00  0.00    -0.338 N
HETATM    3  C10 UNL     1      75.697  49.631   3.208  1.00  0.00     0.161 C
HETATM    4  C5  UNL     1      76.332  48.408   2.727  1.00  0.00     0.018 C
HETATM    5  C9  UNL     1      74.375  49.820   2.576  1.00  0.00     0.150 C
HETATM    6  C4  UNL     1      77.299  48.421   1.631  1.00  0.00     0.037 C
HETATM    7  C6  UNL     1      75.221  47.428   2.308  1.00  0.00     0.007 C
HETATM    8  C2  UNL     1      78.669  48.963   1.896  1.00  0.00     0.025 C
HETATM    9  C1  UNL     1      79.667  48.479   0.870  1.00  0.00     0.038 C
HETATM   10  C3  UNL     1      79.192  48.595   3.266  1.00  0.00     0.038 C
HETATM   11  N6  UNL     1      78.581  50.413   1.815  1.00  0.00    -0.359 N
HETATM   12  C20 UNL     1      77.478  51.196   2.264  1.00  0.00     0.171 C
ATOM     13  H6  UNL     1      79.371  50.910   1.405  1.00  0.00     0.162 HD
HETATM   14  S1  UNL     1      77.356  52.721   1.602  1.00  0.00    -0.041 SA
HETATM   15  C7  UNL     1      74.027  47.527   3.202  1.00  0.00     0.008 C
HETATM   16  C8  UNL     1      73.301  48.852   2.923  1.00  0.00     0.080 C
HETATM   17  O1  UNL     1      74.106  50.705   1.798  1.00  0.00    -0.296 OA
ENDBRANCH   1   2
BRANCH   1  18
HETATM   18  C12 UNL     1      76.398  51.637   5.521  1.00  0.00     0.235 C
HETATM   19  O2  UNL     1      77.541  51.260   5.830  1.00  0.00    -0.272 OA
HETATM   20  N2  UNL     1      75.447  51.850   6.526  1.00  0.00    -0.360 N
ATOM     21  H2  UNL     1      74.513  52.158   6.255  1.00  0.00     0.162 HD
BRANCH  20  22
HETATM   22  C13 UNL     1      75.726  51.654   7.915  1.00  0.00     0.122 C
BRANCH  22  23
HETATM   23  C14 UNL     1      74.536  51.314   8.772  1.00  0.00     0.020 C
BRANCH  23  24
HETATM   24  C15 UNL     1      73.369  50.845   7.966  1.00  0.00     0.002 C
BRANCH  24  25
HETATM   25  C16 UNL     1      72.288  50.329   8.875  1.00  0.00     0.002 C
BRANCH  25  26
HETATM   26  C17 UNL     1      71.744  49.016   8.395  1.00  0.00     0.020 C
BRANCH  26  27
HETATM   27  C18 UNL     1      72.136  48.910   6.923  1.00  0.00     0.122 C
BRANCH  27  28
HETATM   28  N3  UNL     1      71.493  47.692   6.441  1.00  0.00    -0.365 N
HETATM   29  C19 UNL     1      72.139  46.466   6.766  1.00  0.00     0.181 C
HETATM   30  N4  UNL     1      71.463  45.364   6.941  1.00  0.00    -0.374 N
HETATM   31  N5  UNL     1      73.554  46.376   6.917  1.00  0.00    -0.064 NA
ATOM     32  H42 UNL     1      70.451  45.428   6.833  1.00  0.00     0.158 HD
ATOM     33  H41 UNL     1      71.927  44.486   7.175  1.00  0.00     0.158 HD
ATOM     34  H3  UNL     1      70.628  47.717   5.900  1.00  0.00     0.162 HD
ENDBRANCH  27  28
ENDBRANCH  26  27
ENDBRANCH  25  26
ENDBRANCH  24  25
ENDBRANCH  23  24
ENDBRANCH  22  23
ENDBRANCH  20  22
ENDBRANCH   1  18
TORSDOF 9
ENDMDL