MODEL 1
REMARK VINA RESULT: -9.015290425      0.000      0.000
REMARK  11 active torsions:
REMARK  status: ('A' for Active; 'I' for Inactive)
REMARK    1  A    between atoms: C2_2  and  N1_3
REMARK    2  A    between atoms: C4_10  and  N4_11
REMARK    3  A    between atoms: N4_11  and  C5_13
REMARK    4  A    between atoms: C5_13  and  C6_14
REMARK    5  A    between atoms: N5_21  and  C12_22
REMARK    6  A    between atoms: C12_22  and  C13_23
REMARK    7  A    between atoms: C13_23  and  C16_26
REMARK    8  A    between atoms: C16_26  and  C17_27
REMARK    9  A    between atoms: C17_27  and  C18_28
REMARK   10  A    between atoms: C18_28  and  C19_29
REMARK   11  A    between atoms: C19_29  and  N6_30
ROOT
HETATM    1  C6  UNL     1      77.503  51.019   2.814  1.00  0.00     0.105 C
HETATM    2  C7  UNL     1      78.244  51.538   1.621  1.00  0.00     0.027 C
HETATM    3  C8  UNL     1      77.603  52.577   0.807  1.00  0.00     0.002 C
HETATM    4  C9  UNL     1      77.003  51.914  -0.420  1.00  0.00     0.009 C
HETATM    5  C10 UNL     1      75.737  51.212  -0.119  1.00  0.00     0.103 C
HETATM    6  C11 UNL     1      75.466  50.929   1.295  1.00  0.00     0.220 C
HETATM    7  O1  UNL     1      74.201  50.998   1.536  1.00  0.00    -0.273 OA
HETATM    8  N5  UNL     1      76.197  50.601   2.467  1.00  0.00    -0.345 N
ENDROOT
BRANCH   1   9
HETATM    9  C5  UNL     1      77.560  51.972   4.013  1.00  0.00     0.163 C
BRANCH   9  10
HETATM   10  N4  UNL     1      78.123  51.378   5.188  1.00  0.00    -0.222 N
ATOM     11  H4  UNL     1      78.929  50.756   5.121  1.00  0.00     0.177 HD
BRANCH  10  12
HETATM   12  C4  UNL     1      77.598  51.640   6.326  1.00  0.00     0.707 A
HETATM   13  N3  UNL     1      78.116  52.276   7.395  1.00  0.00    -0.117 N
HETATM   14  N2  UNL     1      77.255  52.349   8.384  1.00  0.00    -0.117 N
ATOM     15  H3  UNL     1      79.062  52.656   7.432  1.00  0.00     0.206 HD
HETATM   16  C3  UNL     1      76.124  51.745   7.973  1.00  0.00     0.707 A
ATOM     17  H2  UNL     1      77.414  52.782   9.293  1.00  0.00     0.206 HD
HETATM   18  N1  UNL     1      75.056  51.640   8.718  1.00  0.00    -0.225 N
HETATM   19  N9  UNL     1      76.333  51.318   6.729  1.00  0.00    -0.020 N
ATOM     20  H1  UNL     1      75.018  52.014   9.666  1.00  0.00     0.177 HD
ATOM     21  H9  UNL     1      75.648  50.822   6.160  1.00  0.00     0.203 HD
BRANCH  18  22
HETATM   22  C2  UNL     1      73.914  50.949   8.105  1.00  0.00     0.134 C
HETATM   23  C1  UNL     1      72.726  51.012   9.028  1.00  0.00     0.027 C
ENDBRANCH  18  22
ENDBRANCH  10  12
ENDBRANCH   9  10
ENDBRANCH   1   9
BRANCH   8  24
HETATM   24  C12 UNL     1      75.428  49.736   3.335  1.00  0.00     0.135 C
BRANCH  24  25
HETATM   25  C13 UNL     1      75.741  48.306   3.329  1.00  0.00    -0.031 C
HETATM   26  C14 UNL     1      75.852  47.695   1.939  1.00  0.00     0.016 C
HETATM   27  C15 UNL     1      76.982  47.955   4.153  1.00  0.00     0.016 C
BRANCH  25  28
HETATM   28  C16 UNL     1      74.605  47.588   4.022  1.00  0.00     0.010 C
BRANCH  28  29
HETATM   29  C17 UNL     1      73.436  47.247   3.182  1.00  0.00     0.002 C
BRANCH  29  30
HETATM   30  C18 UNL     1      72.285  48.141   3.597  1.00  0.00     0.020 C
BRANCH  30  31
HETATM   31  C19 UNL     1      71.976  48.116   5.054  1.00  0.00     0.122 C
BRANCH  31  32
HETATM   32  N6  UNL     1      72.095  46.776   5.576  1.00  0.00    -0.367 N
HETATM   33  C20 UNL     1      72.292  46.526   6.826  1.00  0.00     0.196 C
HETATM   34  N7  UNL     1      72.397  45.187   7.260  1.00  0.00    -0.067 NA
HETATM   35  N8  UNL     1      72.393  47.640   7.705  1.00  0.00    -0.067 NA
ATOM     36  H6  UNL     1      72.021  45.992   4.928  1.00  0.00     0.161 HD
ENDBRANCH  31  32
ENDBRANCH  30  31
ENDBRANCH  29  30
ENDBRANCH  28  29
ENDBRANCH  25  28
ENDBRANCH  24  25
ENDBRANCH   8  24
TORSDOF 11
ENDMDL