MODEL 2
REMARK VINA RESULT: -8.284320157      4.050      9.981
REMARK  11 active torsions:
REMARK  status: ('A' for Active; 'I' for Inactive)
REMARK    1  A    between atoms: C1_2  and  C2_4
REMARK    2  A    between atoms: C2_4  and  C3_5
REMARK    3  A    between atoms: C3_5  and  N2_6
REMARK       I    between atoms: N2_6  and  C4_8
REMARK    4  A    between atoms: C4_8  and  C5_10
REMARK    5  A    between atoms: C5_10  and  N3_11
REMARK       I    between atoms: N3_11  and  C6_13
REMARK    6  A    between atoms: C6_13  and  C7_15
REMARK    7  A    between atoms: C10_18  and  C11_19
REMARK    8  A    between atoms: C11_19  and  N4_20
REMARK    9  A    between atoms: N4_20  and  C12_22
REMARK   10  A    between atoms: C12_22  and  N5_24
REMARK   11  A    between atoms: N5_24  and  C13_26
ROOT
HETATM    1  C7  UNL     1      74.086  52.307   7.725  1.00  0.00     0.078 C
HETATM    2  C8  UNL     1      73.567  51.218   6.774  1.00  0.00     0.014 C
HETATM    3  C9  UNL     1      74.558  51.197   5.632  1.00  0.00     0.007 C
HETATM    4  C10 UNL     1      75.946  50.885   6.055  1.00  0.00     0.003 C
HETATM    5  C19 UNL     1      76.383  51.602   7.304  1.00  0.00     0.007 C
HETATM    6  C20 UNL     1      75.332  51.686   8.365  1.00  0.00     0.014 C
ENDROOT
BRANCH   1   7
HETATM    7  C6  UNL     1      73.097  52.683   8.729  1.00  0.00     0.222 C
HETATM    8  N3  UNL     1      73.351  53.718   9.654  1.00  0.00    -0.352 N
ATOM      9  H3  UNL     1      74.246  54.207   9.617  1.00  0.00     0.162 HD
HETATM   10  O3  UNL     1      72.001  52.079   8.774  1.00  0.00    -0.273 OA
BRANCH   8  11
HETATM   11  C5  UNL     1      72.388  54.103  10.643  1.00  0.00     0.225 C
BRANCH  11  12
HETATM   12  C4  UNL     1      72.891  55.001  11.690  1.00  0.00     0.235 C
HETATM   13  N2  UNL     1      74.268  55.045  12.000  1.00  0.00    -0.359 N
ATOM     14  H2  UNL     1      74.907  54.442  11.483  1.00  0.00     0.162 HD
HETATM   15  O2  UNL     1      72.105  55.735  12.320  1.00  0.00    -0.272 OA
BRANCH  13  16
HETATM   16  C3  UNL     1      74.808  55.918  13.027  1.00  0.00     0.131 C
BRANCH  16  17
HETATM   17  C2  UNL     1      75.946  56.721  12.456  1.00  0.00     0.119 C
BRANCH  17  18
HETATM   18  C1  UNL     1      75.444  57.795  11.580  1.00  0.00     0.232 C
HETATM   19  N1  UNL     1      75.080  57.470  10.250  1.00  0.00    -0.062 NA
HETATM   20  O1  UNL     1      75.332  58.977  11.977  1.00  0.00    -0.277 OA
ENDBRANCH  17  18
ENDBRANCH  16  17
ENDBRANCH  13  16
ENDBRANCH  11  12
ENDBRANCH   8  11
ENDBRANCH   1   7
BRANCH   4  21
HETATM   21  C11 UNL     1      76.884  51.363   4.914  1.00  0.00     0.126 C
BRANCH  21  22
HETATM   22  N4  UNL     1      77.873  50.372   4.635  1.00  0.00    -0.367 N
ATOM     23  H4  UNL     1      78.823  50.641   4.892  1.00  0.00     0.161 HD
BRANCH  22  24
HETATM   24  C12 UNL     1      77.765  49.104   4.074  1.00  0.00     0.167 C
HETATM   25  S1  UNL     1      79.043  48.704   3.042  1.00  0.00    -0.041 SA
BRANCH  24  26
HETATM   26  N5  UNL     1      76.800  48.103   4.204  1.00  0.00    -0.363 N
ATOM     27  H5  UNL     1      76.987  47.442   4.958  1.00  0.00     0.162 HD
BRANCH  26  28
HETATM   28  C13 UNL     1      75.609  47.834   3.482  1.00  0.00     0.083 C
HETATM   29  C14 UNL     1      75.294  48.730   2.336  1.00  0.00     0.025 C
HETATM   30  C15 UNL     1      74.110  49.635   2.553  1.00  0.00     0.002 C
HETATM   31  C16 UNL     1      72.860  48.854   2.899  1.00  0.00     0.000 C
HETATM   32  C17 UNL     1      73.185  47.546   3.584  1.00  0.00     0.002 C
HETATM   33  C18 UNL     1      74.400  47.743   4.438  1.00  0.00     0.025 C
ENDBRANCH  26  28
ENDBRANCH  24  26
ENDBRANCH  22  24
ENDBRANCH  21  22
ENDBRANCH   4  21
TORSDOF 11
ENDMDL