MODEL 1
REMARK VINA RESULT: -9.154090417      0.000      0.000
REMARK  11 active torsions:
REMARK  status: ('A' for Active; 'I' for Inactive)
REMARK    1  A    between atoms: C2_2  and  C3_3
REMARK    2  A    between atoms: C6_6  and  C7_7
REMARK    3  A    between atoms: C7_7  and  C8_8
REMARK    4  A    between atoms: C8_8  and  C9_9
REMARK    5  A    between atoms: C9_9  and  C10_10
REMARK    6  A    between atoms: C10_10  and  N1_11
REMARK    7  A    between atoms: C12_13  and  C13_14
REMARK    8  A    between atoms: C13_14  and  N2_15
REMARK    9  A    between atoms: C16_21  and  C17_22
REMARK   10  A    between atoms: C17_22  and  N6_26
REMARK   11  A    between atoms: N6_26  and  C18_28
ROOT
HETATM    1  N1  UNL     1      73.935  50.059   6.400  1.00  0.00     0.100 N
HETATM    2  C11 UNL     1      74.990  50.149   5.406  1.00  0.00     0.279 C
HETATM    3  C12 UNL     1      74.538  49.303   4.238  1.00  0.00     0.034 C
HETATM    4  C15 UNL     1      73.055  49.470   4.256  1.00  0.00     0.052 C
HETATM    5  C16 UNL     1      72.740  49.676   5.724  1.00  0.00     0.289 C
ENDROOT
BRANCH   1   6
HETATM    6  C10 UNL     1      73.870  51.371   7.021  1.00  0.00     0.273 C
BRANCH   6   7
HETATM    7  C9  UNL     1      74.400  51.409   8.418  1.00  0.00     0.030 C
BRANCH   7   8
HETATM    8  C8  UNL     1      73.286  51.019   9.361  1.00  0.00     0.002 C
BRANCH   8   9
HETATM    9  C7  UNL     1      71.965  51.676   9.030  1.00  0.00     0.005 C
BRANCH   9  10
HETATM   10  C6  UNL     1      71.717  52.674  10.169  1.00  0.00    -0.014 C
HETATM   11  C5  UNL     1      70.695  52.171  11.136  1.00  0.00     0.005 C
HETATM   12  C4  UNL     1      70.727  53.101  12.345  1.00  0.00     0.005 C
HETATM   13  C3  UNL     1      70.929  54.508  11.882  1.00  0.00    -0.015 C
HETATM   14  C22 UNL     1      70.298  54.668  10.537  1.00  0.00     0.005 C
HETATM   15  C21 UNL     1      71.192  53.932   9.532  1.00  0.00     0.005 C
BRANCH  13  16
HETATM   16  C2  UNL     1      70.484  55.533  12.893  1.00  0.00     0.000 C
HETATM   17  C1  UNL     1      71.628  56.490  13.147  1.00  0.00     0.005 C
ENDBRANCH  13  16
ENDBRANCH   9  10
ENDBRANCH   8   9
ENDBRANCH   7   8
ENDBRANCH   6   7
ENDBRANCH   1   6
BRANCH   5  18
HETATM   18  C17 UNL     1      72.175  48.394   6.242  1.00  0.00     0.105 C
HETATM   19  N5  UNL     1      71.604  47.562   5.441  1.00  0.00    -0.387 N
ATOM     20  H52 UNL     1      71.548  47.801   4.451  1.00  0.00     0.157 HD
ATOM     21  H51 UNL     1      71.218  46.687   5.795  1.00  0.00     0.157 HD
BRANCH  18  22
HETATM   22  N6  UNL     1      72.251  48.065   7.610  1.00  0.00    -0.363 N
ATOM     23  H6  UNL     1      72.886  48.570   8.228  1.00  0.00     0.161 HD
BRANCH  22  24
HETATM   24  C18 UNL     1      71.425  47.014   8.123  1.00  0.00     0.193 C
HETATM   25  C19 UNL     1      71.524  46.755   9.613  1.00  0.00     0.157 C
HETATM   26  N7  UNL     1      71.599  45.318   9.315  1.00  0.00    -0.357 N
HETATM   27  C20 UNL     1      71.932  45.634   7.948  1.00  0.00     0.242 C
ATOM     28  H7  UNL     1      71.470  44.459   9.850  1.00  0.00     0.162 HD
HETATM   29  O1  UNL     1      72.451  44.917   7.056  1.00  0.00    -0.271 OA
ENDBRANCH  22  24
ENDBRANCH  18  22
ENDBRANCH   5  18
BRANCH   3  30
HETATM   30  C13 UNL     1      75.181  49.804   2.967  1.00  0.00     0.128 C
BRANCH  30  31
HETATM   31  N2  UNL     1      75.305  48.726   2.023  1.00  0.00    -0.366 N
HETATM   32  C14 UNL     1      76.106  47.743   2.085  1.00  0.00     0.196 C
HETATM   33  N3  UNL     1      77.048  47.533   3.133  1.00  0.00    -0.067 NA
HETATM   34  N4  UNL     1      76.035  46.789   1.012  1.00  0.00    -0.067 NA
ATOM     35  H2  UNL     1      74.683  48.755   1.217  1.00  0.00     0.161 HD
ENDBRANCH  30  31
ENDBRANCH   3  30
TORSDOF 11
ENDMDL