MODEL 2
REMARK VINA RESULT: -8.383359718      2.205      4.611
REMARK  13 active torsions:
REMARK  status: ('A' for Active; 'I' for Inactive)
REMARK    1  A    between atoms: C2_2  and  C3_3
REMARK    2  A    between atoms: C3_3  and  C4_4
REMARK    3  A    between atoms: C6_6  and  C7_7
REMARK    4  A    between atoms: C7_7  and  C8_8
REMARK    5  A    between atoms: C8_8  and  C9_9
REMARK    6  A    between atoms: C11_11  and  O1_12
REMARK    7  A    between atoms: C12_14  and  O2_15
REMARK    8  A    between atoms: C12_14  and  C13_17
REMARK    9  A    between atoms: C13_17  and  C14_18
REMARK   10  A    between atoms: C14_18  and  C15_19
REMARK   11  A    between atoms: C15_19  and  O3_22
REMARK   12  A    between atoms: C18_24  and  C19_25
REMARK   13  A    between atoms: C19_25  and  O4_26
ROOT
HETATM    1  C9  UNL     1      16.576  53.874  37.607  1.00  0.00     0.015 C
HETATM    2  C10 UNL     1      15.755  53.069  38.532  1.00  0.00     0.020 C
HETATM    3  C11 UNL     1      17.097  52.952  36.494  1.00  0.00     0.166 C
HETATM    4  C12 UNL     1      18.442  52.481  36.949  1.00  0.00     0.120 C
HETATM    5  C18 UNL     1      19.019  53.729  37.558  1.00  0.00     0.142 A
HETATM    6  O5  UNL     1      18.649  54.988  37.167  1.00  0.00    -0.363 OA
HETATM    7  C20 UNL     1      17.892  54.332  38.234  1.00  0.00     0.173 A
ENDROOT
BRANCH   1   8
HETATM    8  C8  UNL     1      15.944  55.053  36.984  1.00  0.00     0.018 C
BRANCH   8   9
HETATM    9  C7  UNL     1      14.619  55.516  37.417  1.00  0.00     0.028 C
BRANCH   9  10
HETATM   10  C6  UNL     1      14.573  56.920  37.831  1.00  0.00    -0.024 C
HETATM   11  C4  UNL     1      14.641  57.285  39.131  1.00  0.00    -0.084 C
HETATM   12  C5  UNL     1      14.764  56.269  40.195  1.00  0.00     0.043 C
BRANCH  11  13
HETATM   13  C3  UNL     1      14.586  58.735  39.436  1.00  0.00     0.059 C
BRANCH  13  14
HETATM   14  C2  UNL     1      13.392  59.355  38.769  1.00  0.00    -0.033 C
HETATM   15  C1  UNL     1      13.328  60.669  38.714  1.00  0.00     0.007 C
ENDBRANCH  13  14
ENDBRANCH  11  13
ENDBRANCH   9  10
ENDBRANCH   8   9
ENDBRANCH   1   8
BRANCH   3  16
HETATM   16  O1  UNL     1      17.244  53.766  35.387  1.00  0.00    -0.392 OA
ATOM     17  H1  UNL     1      18.117  53.587  35.060  1.00  0.00     0.210 HD
ENDBRANCH   3  16
BRANCH   4  18
HETATM   18  O2  UNL     1      18.264  51.601  38.066  1.00  0.00    -0.384 OA
ATOM     19  H2  UNL     1      18.305  50.704  37.755  1.00  0.00     0.210 HD
ENDBRANCH   4  18
BRANCH   4  20
HETATM   20  C13 UNL     1      19.268  51.792  35.961  1.00  0.00     0.047 C
BRANCH  20  21
HETATM   21  C14 UNL     1      18.711  50.700  35.140  1.00  0.00     0.040 C
BRANCH  21  22
HETATM   22  C15 UNL     1      19.749  49.612  34.852  1.00  0.00     0.051 C
HETATM   23  C16 UNL     1      19.197  48.519  34.002  1.00  0.00     0.045 C
HETATM   24  C17 UNL     1      20.909  50.244  34.104  1.00  0.00     0.045 C
BRANCH  22  25
HETATM   25  O3  UNL     1      20.230  49.047  36.032  1.00  0.00    -0.391 OA
ATOM     26  H3  UNL     1      21.180  49.043  36.050  1.00  0.00     0.210 HD
ENDBRANCH  22  25
ENDBRANCH  21  22
ENDBRANCH  20  21
ENDBRANCH   4  20
BRANCH   5  27
HETATM   27  C19 UNL     1      20.314  53.648  38.323  1.00  0.00     0.208 C
BRANCH  27  28
HETATM   28  O4  UNL     1      20.163  53.351  39.655  1.00  0.00    -0.398 OA
ATOM     29  H4  UNL     1      20.704  52.630  39.956  1.00  0.00     0.209 HD
ENDBRANCH  27  28
ENDBRANCH   5  27
TORSDOF 13
ENDMDL