MODEL 4
REMARK VINA RESULT: -7.313707986      3.772      8.464
REMARK  13 active torsions:
REMARK  status: ('A' for Active; 'I' for Inactive)
REMARK    1  A    between atoms: C2_2  and  C3_4
REMARK    2  A    between atoms: C3_4  and  C4_5
REMARK    3  A    between atoms: C4_5  and  N1_6
REMARK    4  A    between atoms: C4_5  and  C17_28
REMARK    5  A    between atoms: N1_6  and  C5_8
REMARK    6  A    between atoms: C5_8  and  O2_9
REMARK    7  A    between atoms: C5_8  and  C6_11
REMARK    8  A    between atoms: C6_11  and  C7_12
REMARK    9  A    between atoms: C7_12  and  C9_14
REMARK   10  A    between atoms: C9_14  and  C10_15
REMARK   11  A    between atoms: C10_15  and  C11_16
REMARK   12  A    between atoms: C11_16  and  O3_17
REMARK   13  A    between atoms: N2_19  and  O4_21
ROOT
HETATM    1  C7  UNL     1      15.756  55.446  36.622  1.00  0.00    -0.079 C
HETATM    2  C8  UNL     1      16.865  56.406  36.586  1.00  0.00     0.043 C
ENDROOT
BRANCH   1   3
HETATM    3  C6  UNL     1      14.564  55.719  36.218  1.00  0.00     0.058 C
BRANCH   3   4
HETATM    4  C5  UNL     1      13.486  56.456  36.744  1.00  0.00     0.136 C
BRANCH   4   5
HETATM    5  N1  UNL     1      13.317  56.970  38.045  1.00  0.00    -0.356 N
ATOM      6  H1  UNL     1      12.730  56.489  38.726  1.00  0.00     0.162 HD
BRANCH   5   7
HETATM    7  C4  UNL     1      14.011  58.220  38.395  1.00  0.00     0.191 C
BRANCH   7   8
HETATM    8  C3  UNL     1      14.565  58.190  39.789  1.00  0.00     0.114 C
BRANCH   8   9
HETATM    9  C2  UNL     1      14.587  56.858  40.413  1.00  0.00     0.125 C
HETATM   10  C1  UNL     1      13.795  56.646  41.659  1.00  0.00     0.091 C
HETATM   11  O1  UNL     1      15.211  55.910  39.982  1.00  0.00    -0.298 OA
ENDBRANCH   8   9
ENDBRANCH   7   8
BRANCH   7  12
HETATM   12  C17 UNL     1      13.004  59.329  38.309  1.00  0.00     0.197 C
HETATM   13  O5  UNL     1      11.884  59.103  37.808  1.00  0.00    -0.646 OA
HETATM   14  O6  UNL     1      13.296  60.601  38.777  1.00  0.00    -0.646 OA
ENDBRANCH   7  12
ENDBRANCH   5   7
ENDBRANCH   4   5
BRANCH   4  15
HETATM   15  O2  UNL     1      12.502  56.694  35.898  1.00  0.00    -0.346 OA
ATOM     16  H2  UNL     1      12.104  57.554  35.956  1.00  0.00     0.219 HD
ENDBRANCH   4  15
ENDBRANCH   3   4
ENDBRANCH   1   3
BRANCH   1  17
HETATM   17  C9  UNL     1      16.021  54.106  37.188  1.00  0.00     0.052 C
BRANCH  17  18
HETATM   18  C10 UNL     1      17.450  53.638  37.159  1.00  0.00     0.030 C
HETATM   19  C12 UNL     1      17.938  53.986  38.603  1.00  0.00     0.018 C
HETATM   20  C13 UNL     1      19.395  53.747  38.768  1.00  0.00     0.001 C
HETATM   21  C14 UNL     1      20.100  54.740  37.850  1.00  0.00     0.000 C
HETATM   22  C15 UNL     1      19.796  54.289  36.457  1.00  0.00     0.001 C
HETATM   23  C16 UNL     1      18.309  54.302  36.174  1.00  0.00     0.018 C
BRANCH  18  24
HETATM   24  C11 UNL     1      17.447  52.149  37.138  1.00  0.00     0.144 C
HETATM   25  N2  UNL     1      17.490  51.368  36.172  1.00  0.00    -0.250 N
ATOM     26  H2  UNL     1      17.474  50.388  36.454  1.00  0.00     0.196 HD
BRANCH  24  27
HETATM   27  O3  UNL     1      17.385  51.553  38.422  1.00  0.00    -0.348 OA
ATOM     28  H3  UNL     1      17.189  50.624  38.409  1.00  0.00     0.219 HD
ENDBRANCH  24  27
BRANCH  25  29
HETATM   29  O4  UNL     1      17.552  51.524  34.848  1.00  0.00    -0.288 OA
ATOM     30  H4  UNL     1      18.240  51.429  34.200  1.00  0.00     0.244 HD
ENDBRANCH  25  29
ENDBRANCH  18  24
ENDBRANCH  17  18
ENDBRANCH   1  17
TORSDOF 13
ENDMDL