MODEL 2
REMARK VINA RESULT: -7.766118568      2.454      8.390
REMARK  12 active torsions:
REMARK  status: ('A' for Active; 'I' for Inactive)
REMARK    1  A    between atoms: C2_2  and  C3_3
REMARK    2  A    between atoms: C2_2  and  C4_6
REMARK    3  A    between atoms: C3_3  and  O1_4
REMARK    4  A    between atoms: C4_6  and  O2_7
REMARK    5  A    between atoms: C4_6  and  C5_9
REMARK    6  A    between atoms: C5_9  and  C6_10
REMARK    7  A    between atoms: C8_13  and  C9_14
REMARK    8  A    between atoms: C10_15  and  C11_16
REMARK    9  A    between atoms: C11_16  and  O4_17
REMARK   10  A    between atoms: C11_16  and  C12_19
REMARK   11  A    between atoms: C12_19  and  O5_20
REMARK   12  A    between atoms: C12_19  and  C13_22
ROOT
HETATM    1  C6  UNL     1      17.520  55.797  36.531  1.00  0.00     0.128 C
HETATM    2  O3  UNL     1      17.039  56.311  35.349  1.00  0.00    -0.385 OA
HETATM    3  C7  UNL     1      15.668  56.448  35.449  1.00  0.00     0.177 C
HETATM    4  C8  UNL     1      15.458  56.850  36.917  1.00  0.00     0.038 C
HETATM    5  C19 UNL     1      16.456  55.874  37.569  1.00  0.00     0.020 C
HETATM    6  C20 UNL     1      15.768  54.531  37.778  1.00  0.00     0.013 C
ENDROOT
BRANCH   4   7
HETATM    7  C9  UNL     1      14.099  56.571  37.384  1.00  0.00    -0.021 C
HETATM    8  C10 UNL     1      13.494  57.330  38.281  1.00  0.00     0.003 C
BRANCH   8   9
HETATM    9  C11 UNL     1      14.177  58.503  38.847  1.00  0.00     0.169 C
BRANCH   9  10
HETATM   10  O4  UNL     1      14.819  58.028  40.031  1.00  0.00    -0.389 OA
ATOM     11  H4  UNL     1      15.462  57.398  39.730  1.00  0.00     0.210 HD
ENDBRANCH   9  10
BRANCH   9  12
HETATM   12  C12 UNL     1      13.315  59.628  39.305  1.00  0.00     0.154 C
BRANCH  12  13
HETATM   13  O5  UNL     1      14.109  60.803  39.090  1.00  0.00    -0.392 OA
ATOM     14  H5  UNL     1      13.778  61.434  39.718  1.00  0.00     0.210 HD
ENDBRANCH  12  13
BRANCH  12  15
HETATM   15  C13 UNL     1      12.038  59.849  38.580  1.00  0.00     0.017 C
HETATM   16  C14 UNL     1      11.187  60.983  39.061  1.00  0.00     0.007 C
HETATM   17  C15 UNL     1      10.165  61.366  37.988  1.00  0.00     0.000 C
HETATM   18  C16 UNL     1       9.896  60.186  37.083  1.00  0.00     0.000 C
HETATM   19  C17 UNL     1      11.118  59.942  36.239  1.00  0.00     0.000 C
HETATM   20  C18 UNL     1      12.345  60.017  37.100  1.00  0.00     0.007 C
ENDBRANCH  12  15
ENDBRANCH   9  12
ENDBRANCH   8   9
ENDBRANCH   4   7
BRANCH   1  21
HETATM   21  C5  UNL     1      18.053  54.389  36.395  1.00  0.00     0.064 C
BRANCH  21  22
HETATM   22  C4  UNL     1      19.555  54.344  36.573  1.00  0.00     0.126 C
BRANCH  22  23
HETATM   23  C2  UNL     1      19.954  54.203  38.013  1.00  0.00     0.034 C
HETATM   24  C1  UNL     1      18.970  53.375  38.805  1.00  0.00     0.015 C
BRANCH  23  25
HETATM   25  C3  UNL     1      21.280  53.462  38.047  1.00  0.00     0.170 C
BRANCH  25  26
HETATM   26  O1  UNL     1      22.292  54.450  38.042  1.00  0.00    -0.400 OA
ATOM     27  H1  UNL     1      23.029  54.079  37.571  1.00  0.00     0.209 HD
ENDBRANCH  25  26
ENDBRANCH  23  25
ENDBRANCH  22  23
BRANCH  22  28
HETATM   28  O2  UNL     1      20.076  55.548  36.108  1.00  0.00    -0.395 OA
ATOM     29  H2  UNL     1      19.344  56.122  35.915  1.00  0.00     0.210 HD
ENDBRANCH  22  28
ENDBRANCH  21  22
ENDBRANCH   1  21
TORSDOF 12
ENDMDL