MODEL 2
REMARK VINA RESULT: -8.607834817      1.112      1.239
REMARK  9 active torsions:
REMARK  status: ('A' for Active; 'I' for Inactive)
REMARK    1  A    between atoms: C2_2  and  C3_3
REMARK    2  A    between atoms: C3_3  and  C4_4
REMARK    3  A    between atoms: C4_4  and  C5_5
REMARK    4  A    between atoms: C5_5  and  C6_6
REMARK    5  A    between atoms: C9_11  and  C10_12
REMARK    6  A    between atoms: C10_12  and  O1_13
REMARK    7  A    between atoms: C10_12  and  C11_15
REMARK    8  A    between atoms: C11_15  and  C12_16
REMARK    9  A    between atoms: C12_16  and  O2_17
ROOT
HETATM    1  C6  UNL     1      16.469  54.923  38.531  1.00  0.00    -0.002 C
HETATM    2  C7  UNL     1      16.299  53.435  38.338  1.00  0.00     0.028 C
HETATM    3  C8  UNL     1      17.557  52.655  38.412  1.00  0.00     0.144 C
HETATM    4  N1  UNL     1      18.649  53.491  38.711  1.00  0.00    -0.400 N
ATOM      5  H1  UNL     1      18.761  53.903  39.638  1.00  0.00     0.154 HD
HETATM    6  C9  UNL     1      19.593  53.741  37.673  1.00  0.00     0.139 C
HETATM    7  C13 UNL     1      19.608  55.193  37.362  1.00  0.00     0.241 A
HETATM    8  N2  UNL     1      19.790  55.730  36.065  1.00  0.00    -0.060 N
ATOM      9  H21 UNL     1      20.070  55.371  35.153  1.00  0.00     0.278 HD
ATOM     10  H22 UNL     1      20.461  56.354  35.615  1.00  0.00     0.278 HD
HETATM   11  C14 UNL     1      18.546  55.884  36.790  1.00  0.00     0.223 A
HETATM   12  C15 UNL     1      17.330  55.371  36.186  1.00  0.00     0.024 C
HETATM   13  C16 UNL     1      17.375  54.196  35.267  1.00  0.00     0.022 C
HETATM   14  C17 UNL     1      16.586  53.069  35.923  1.00  0.00     0.054 C
HETATM   15  S1  UNL     1      17.642  51.877  36.778  1.00  0.00    -0.139 SA
HETATM   16  C18 UNL     1      15.804  53.660  37.006  1.00  0.00     0.011 C
HETATM   17  C19 UNL     1      16.170  55.122  37.107  1.00  0.00     0.002 C
ENDROOT
BRANCH   6  18
HETATM   18  C10 UNL     1      20.968  53.356  38.266  1.00  0.00     0.144 C
BRANCH  18  19
HETATM   19  O1  UNL     1      21.840  53.310  37.180  1.00  0.00    -0.393 OA
ATOM     20  H1  UNL     1      21.387  53.756  36.473  1.00  0.00     0.210 HD
ENDBRANCH  18  19
BRANCH  18  21
HETATM   21  C11 UNL     1      21.453  54.394  39.218  1.00  0.00     0.060 C
BRANCH  21  22
HETATM   22  C12 UNL     1      22.937  54.216  39.417  1.00  0.00     0.166 C
BRANCH  22  23
HETATM   23  O2  UNL     1      23.644  55.134  38.621  1.00  0.00    -0.401 OA
ATOM     24  H2  UNL     1      24.510  55.282  38.983  1.00  0.00     0.209 HD
ENDBRANCH  22  23
ENDBRANCH  21  22
ENDBRANCH  18  21
ENDBRANCH   6  18
BRANCH   1  25
HETATM   25  C5  UNL     1      15.415  55.522  39.466  1.00  0.00     0.005 C
BRANCH  25  26
HETATM   26  C4  UNL     1      14.932  56.856  39.009  1.00  0.00     0.000 C
BRANCH  26  27
HETATM   27  C3  UNL     1      14.412  57.594  40.250  1.00  0.00    -0.000 C
BRANCH  27  28
HETATM   28  C2  UNL     1      14.598  56.732  41.493  1.00  0.00    -0.005 C
HETATM   29  C1  UNL     1      13.259  56.528  42.139  1.00  0.00     0.005 C
ENDBRANCH  27  28
ENDBRANCH  26  27
ENDBRANCH  25  26
ENDBRANCH   1  25
TORSDOF 9
ENDMDL