MODEL 5
REMARK VINA RESULT: -8.002811075      1.760      4.299
REMARK  15 active torsions:
REMARK  status: ('A' for Active; 'I' for Inactive)
REMARK    1  A    between atoms: C4_4  and  C5_5
REMARK    2  A    between atoms: C6_6  and  C7_7
REMARK    3  A    between atoms: C6_6  and  C12_12
REMARK    4  A    between atoms: C7_7  and  C8_8
REMARK    5  A    between atoms: C8_8  and  C9_9
REMARK    6  A    between atoms: C12_12  and  C13_13
REMARK    7  A    between atoms: C14_14  and  O1_15
REMARK    8  A    between atoms: C15_17  and  O2_18
REMARK    9  A    between atoms: C15_17  and  C16_20
REMARK   10  A    between atoms: C16_20  and  C17_21
REMARK   11  A    between atoms: C17_21  and  C19_23
REMARK   12  A    between atoms: C19_23  and  O3_24
REMARK   13  A    between atoms: C19_23  and  C20_26
REMARK   14  A    between atoms: C20_26  and  O4_27
REMARK   15  A    between atoms: C20_26  and  O5_29
ROOT
HETATM    1  C12 UNL     1      17.815  53.856  38.086  1.00  0.00     0.013 C
HETATM    2  C15 UNL     1      18.979  54.526  37.563  1.00  0.00     0.055 C
ENDROOT
BRANCH   1   3
HETATM    3  C6  UNL     1      16.463  54.475  37.804  1.00  0.00     0.030 C
HETATM    4  C5  UNL     1      15.801  54.413  36.685  1.00  0.00     0.022 C
BRANCH   4   5
HETATM    5  C4  UNL     1      14.472  55.108  36.644  1.00  0.00     0.003 C
HETATM    6  C2  UNL     1      14.364  56.341  36.243  1.00  0.00    -0.088 C
HETATM    7  C1  UNL     1      13.054  57.017  36.205  1.00  0.00     0.043 C
HETATM    8  C3  UNL     1      15.569  57.083  35.818  1.00  0.00     0.043 C
ENDBRANCH   4   5
BRANCH   3   9
HETATM    9  C7  UNL     1      15.842  55.218  38.906  1.00  0.00    -0.066 C
BRANCH   9  10
HETATM   10  C8  UNL     1      15.303  55.865  39.810  1.00  0.00    -0.097 C
BRANCH  10  11
HETATM   11  C9  UNL     1      14.675  56.651  40.864  1.00  0.00     0.057 C
HETATM   12  C10 UNL     1      14.108  57.923  40.272  1.00  0.00     0.023 C
HETATM   13  C11 UNL     1      13.523  55.843  41.415  1.00  0.00     0.023 C
ENDBRANCH  10  11
ENDBRANCH   9  10
ENDBRANCH   3   9
ENDBRANCH   1   3
BRANCH   1  14
HETATM   14  C13 UNL     1      17.725  52.766  38.790  1.00  0.00     0.039 C
HETATM   15  C14 UNL     1      16.982  51.558  38.822  1.00  0.00     0.132 C
BRANCH  15  16
HETATM   16  O1  UNL     1      16.019  51.157  37.999  1.00  0.00    -0.373 OA
ATOM     17  H1  UNL     1      15.885  51.392  37.088  1.00  0.00     0.216 HD
ENDBRANCH  15  16
ENDBRANCH   1  14
BRANCH   2  18
HETATM   18  O2  UNL     1      18.748  55.616  36.884  1.00  0.00    -0.364 OA
ATOM     19  H2  UNL     1      19.476  55.943  36.368  1.00  0.00     0.217 HD
ENDBRANCH   2  18
BRANCH   2  20
HETATM   20  C16 UNL     1      20.367  54.216  37.650  1.00  0.00     0.072 C
BRANCH  20  21
HETATM   21  C17 UNL     1      20.816  52.803  37.452  1.00  0.00     0.021 C
HETATM   22  C18 UNL     1      22.206  52.687  38.084  1.00  0.00     0.013 C
BRANCH  21  23
HETATM   23  C19 UNL     1      20.884  52.300  36.062  1.00  0.00     0.177 C
BRANCH  23  24
HETATM   24  O3  UNL     1      20.837  53.297  35.094  1.00  0.00    -0.390 OA
ATOM     25  H3  UNL     1      20.006  53.356  34.638  1.00  0.00     0.210 HD
ENDBRANCH  23  24
BRANCH  23  26
HETATM   26  C20 UNL     1      19.673  51.402  35.773  1.00  0.00     0.282 C
BRANCH  26  27
HETATM   27  O4  UNL     1      19.684  50.905  34.495  1.00  0.00    -0.369 OA
ATOM     28  H4  UNL     1      19.127  50.141  34.399  1.00  0.00     0.212 HD
ENDBRANCH  26  27
BRANCH  26  29
HETATM   29  O5  UNL     1      19.673  50.323  36.658  1.00  0.00    -0.369 OA
ATOM     30  H5  UNL     1      19.459  49.526  36.186  1.00  0.00     0.212 HD
ENDBRANCH  26  29
ENDBRANCH  23  26
ENDBRANCH  21  23
ENDBRANCH  20  21
ENDBRANCH   2  20
TORSDOF 15
ENDMDL