MODEL 5
REMARK VINA RESULT: -7.024543658      2.079      2.602
REMARK  10 active torsions:
REMARK  status: ('A' for Active; 'I' for Inactive)
REMARK    1  A    between atoms: C11_15  and  O3_16
REMARK    2  A    between atoms: C12_18  and  N2_19
REMARK    3  A    between atoms: N2_19  and  C13_21
REMARK    4  A    between atoms: C13_21  and  C14_22
REMARK    5  A    between atoms: C14_22  and  C15_23
REMARK    6  A    between atoms: C15_23  and  C16_24
REMARK    7  A    between atoms: C16_24  and  C17_25
REMARK    8  A    between atoms: C17_25  and  C18_26
REMARK    9  A    between atoms: C18_26  and  C19_27
REMARK   10  A    between atoms: C19_27  and  N3_28
ROOT
HETATM    1  C1  UNL     1      18.347  55.749  36.424  1.00  0.00     0.018 C
HETATM    2  C2  UNL     1      19.369  54.692  36.786  1.00  0.00    -0.009 C
HETATM    3  C3  UNL     1      20.081  54.218  35.583  1.00  0.00     0.018 C
HETATM    4  C4  UNL     1      20.201  55.152  37.936  1.00  0.00     0.003 C
HETATM    5  C5  UNL     1      21.484  54.443  38.190  1.00  0.00     0.006 C
HETATM    6  C6  UNL     1      21.333  53.675  39.471  1.00  0.00     0.001 C
HETATM    7  C7  UNL     1      19.969  53.988  39.972  1.00  0.00     0.008 C
HETATM    8  C8  UNL     1      19.132  54.527  38.836  1.00  0.00     0.029 C
HETATM    9  C9  UNL     1      18.791  53.605  37.722  1.00  0.00     0.107 C
HETATM   10  O1  UNL     1      19.695  52.512  37.718  1.00  0.00    -0.289 OA
HETATM   11  C10 UNL     1      19.553  51.412  36.902  1.00  0.00     0.363 C
HETATM   12  O2  UNL     1      20.516  50.665  36.531  1.00  0.00    -0.238 OA
HETATM   13  N1  UNL     1      18.225  51.144  36.474  1.00  0.00    -0.308 N
ATOM     14  H1  UNL     1      18.029  50.557  35.663  1.00  0.00     0.167 HD
HETATM   15  C11 UNL     1      17.170  51.743  37.247  1.00  0.00     0.247 C
HETATM   16  C12 UNL     1      17.395  53.261  37.411  1.00  0.00     0.162 C
ENDROOT
BRANCH  16  17
HETATM   17  N2  UNL     1      16.334  53.743  38.168  1.00  0.00    -0.411 N
ATOM     18  H2  UNL     1      16.079  53.232  39.014  1.00  0.00     0.153 HD
BRANCH  17  19
HETATM   19  C13 UNL     1      15.602  54.876  37.845  1.00  0.00     0.114 C
BRANCH  19  20
HETATM   20  C14 UNL     1      15.541  55.764  39.104  1.00  0.00     0.019 C
BRANCH  20  21
HETATM   21  C15 UNL     1      14.795  57.044  38.757  1.00  0.00     0.002 C
BRANCH  21  22
HETATM   22  C16 UNL     1      14.418  57.706  40.056  1.00  0.00     0.000 C
BRANCH  22  23
HETATM   23  C17 UNL     1      14.570  56.842  41.257  1.00  0.00     0.002 C
BRANCH  23  24
HETATM   24  C18 UNL     1      13.357  56.453  42.003  1.00  0.00     0.027 C
BRANCH  24  25
HETATM   25  C19 UNL     1      12.814  55.103  41.749  1.00  0.00     0.229 C
BRANCH  25  26
HETATM   26  N3  UNL     1      11.759  54.701  42.606  1.00  0.00    -0.079 N
ATOM     27  H33 UNL     1      10.948  55.304  42.469  1.00  0.00     0.274 HD
ATOM     28  H32 UNL     1      11.376  53.809  42.294  1.00  0.00     0.274 HD
ATOM     29  H31 UNL     1      11.996  54.652  43.597  1.00  0.00     0.274 HD
ENDBRANCH  25  26
ENDBRANCH  24  25
ENDBRANCH  23  24
ENDBRANCH  22  23
ENDBRANCH  21  22
ENDBRANCH  20  21
ENDBRANCH  19  20
ENDBRANCH  17  19
ENDBRANCH  16  17
BRANCH  15  30
HETATM   30  O3  UNL     1      15.922  51.599  36.610  1.00  0.00    -0.374 OA
ATOM     31  H3  UNL     1      15.227  52.000  37.118  1.00  0.00     0.212 HD
ENDBRANCH  15  30
TORSDOF 10
ENDMDL