MODEL 1
REMARK VINA RESULT: -8.071885377      0.000      0.000
REMARK  10 active torsions:
REMARK  status: ('A' for Active; 'I' for Inactive)
REMARK    1  A    between atoms: C2_2  and  C3_3
REMARK    2  A    between atoms: C3_3  and  C4_4
REMARK    3  A    between atoms: C4_4  and  N1_5
REMARK    4  A    between atoms: C4_4  and  C7_9
REMARK    5  A    between atoms: N1_5  and  C5_7
REMARK    6  A    between atoms: C7_9  and  O1_10
REMARK    7  A    between atoms: C7_9  and  C8_12
REMARK    8  A    between atoms: C8_12  and  O2_13
REMARK    9  A    between atoms: C8_12  and  C9_15
REMARK   10  A    between atoms: C18_25  and  O3_26
ROOT
HETATM    1  C9  UNL     1      16.813  55.663  37.018  1.00  0.00     0.119 C
HETATM    2  C10 UNL     1      16.150  56.906  36.519  1.00  0.00     0.028 C
HETATM    3  C11 UNL     1      14.976  56.851  35.651  1.00  0.00     0.002 C
HETATM    4  C12 UNL     1      13.628  56.794  36.381  1.00  0.00     0.000 C
HETATM    5  C13 UNL     1      13.121  58.100  36.832  1.00  0.00     0.000 C
HETATM    6  C14 UNL     1      13.382  58.548  38.210  1.00  0.00     0.000 C
HETATM    7  C15 UNL     1      13.316  57.561  39.309  1.00  0.00     0.006 C
HETATM    8  C16 UNL     1      14.586  57.586  40.156  1.00  0.00     0.060 C
HETATM    9  C17 UNL     1      14.991  56.175  40.514  1.00  0.00     0.159 C
HETATM   10  N2  UNL     1      15.266  55.326  39.708  1.00  0.00    -0.382 NA
HETATM   11  C18 UNL     1      15.576  54.368  38.814  1.00  0.00     0.295 C
HETATM   12  N3  UNL     1      15.958  54.586  37.395  1.00  0.00    -0.333 N
HETATM   13  C19 UNL     1      15.386  53.594  36.505  1.00  0.00     0.155 C
ENDROOT
BRANCH   1  14
HETATM   14  C8  UNL     1      18.006  55.289  36.135  1.00  0.00     0.171 C
BRANCH  14  15
HETATM   15  C7  UNL     1      19.330  55.202  36.735  1.00  0.00     0.171 C
BRANCH  15  16
HETATM   16  C4  UNL     1      19.622  53.676  37.015  1.00  0.00     0.111 C
BRANCH  16  17
HETATM   17  C3  UNL     1      19.386  53.529  38.470  1.00  0.00     0.053 C
BRANCH  17  18
HETATM   18  C2  UNL     1      19.914  54.504  39.399  1.00  0.00    -0.035 C
HETATM   19  C1  UNL     1      21.198  54.445  39.804  1.00  0.00     0.007 C
ENDBRANCH  17  18
ENDBRANCH  16  17
BRANCH  16  20
HETATM   20  N1  UNL     1      18.949  52.871  36.113  1.00  0.00    -0.415 N
ATOM     21  H1  UNL     1      18.309  53.268  35.425  1.00  0.00     0.153 HD
BRANCH  20  22
HETATM   22  C5  UNL     1      19.179  51.487  36.178  1.00  0.00     0.110 C
HETATM   23  C6  UNL     1      18.382  50.735  35.087  1.00  0.00     0.026 C
ENDBRANCH  20  22
ENDBRANCH  16  20
ENDBRANCH  15  16
BRANCH  15  24
HETATM   24  O1  UNL     1      20.441  55.537  35.988  1.00  0.00    -0.391 OA
ATOM     25  H1  UNL     1      20.098  56.266  35.485  1.00  0.00     0.210 HD
ENDBRANCH  15  24
ENDBRANCH  14  15
BRANCH  14  26
HETATM   26  O2  UNL     1      17.978  55.830  34.886  1.00  0.00    -0.391 OA
ATOM     27  H2  UNL     1      17.161  55.707  34.416  1.00  0.00     0.210 HD
ENDBRANCH  14  26
ENDBRANCH   1  14
BRANCH  11  28
HETATM   28  O3  UNL     1      15.588  53.061  39.059  1.00  0.00    -0.321 OA
ATOM     29  H3  UNL     1      14.968  52.431  38.713  1.00  0.00     0.222 HD
ENDBRANCH  11  28
TORSDOF 10
ENDMDL