MODEL 3
REMARK VINA RESULT: -8.306361216      1.496      2.653
REMARK  12 active torsions:
REMARK  status: ('A' for Active; 'I' for Inactive)
REMARK    1  A    between atoms: C2_2  and  C3_3
REMARK    2  A    between atoms: C7_7  and  C8_8
REMARK    3  A    between atoms: C8_8  and  O1_9
REMARK    4  A    between atoms: C8_8  and  C9_11
REMARK    5  A    between atoms: C9_11  and  O2_12
REMARK    6  A    between atoms: C9_11  and  C10_14
REMARK    7  A    between atoms: C11_15  and  O3_16
REMARK    8  A    between atoms: C11_15  and  C12_18
REMARK    9  A    between atoms: C12_18  and  O4_19
REMARK   10  A    between atoms: C12_18  and  C13_21
REMARK   11  A    between atoms: C13_21  and  C14_22
REMARK   12  A    between atoms: C16_24  and  C17_25
ROOT
HETATM    1  C10 UNL     1      15.655  53.957  38.438  1.00  0.00     0.042 C
HETATM    2  C11 UNL     1      15.235  55.155  38.720  1.00  0.00     0.071 C
ENDROOT
BRANCH   1   3
HETATM    3  C9  UNL     1      16.426  53.503  37.257  1.00  0.00     0.174 C
BRANCH   3   4
HETATM    4  C8  UNL     1      17.212  52.235  37.510  1.00  0.00     0.179 C
BRANCH   4   5
HETATM    5  C7  UNL     1      18.703  52.501  37.526  1.00  0.00     0.154 C
HETATM    6  C6  UNL     1      18.975  53.605  36.543  1.00  0.00     0.038 C
HETATM    7  C5  UNL     1      19.520  54.703  37.461  1.00  0.00     0.044 C
HETATM    8  C3  UNL     1      20.136  53.838  38.567  1.00  0.00     0.075 C
HETATM    9  C4  UNL     1      21.423  53.284  38.001  1.00  0.00     0.050 C
HETATM   10  O5  UNL     1      19.163  52.891  38.757  1.00  0.00    -0.369 OA
BRANCH   8  11
HETATM   11  C2  UNL     1      20.415  54.640  39.755  1.00  0.00     0.000 C
HETATM   12  C1  UNL     1      21.635  55.090  39.988  1.00  0.00     0.010 C
ENDBRANCH   8  11
ENDBRANCH   4   5
BRANCH   4  13
HETATM   13  O1  UNL     1      16.946  51.349  36.468  1.00  0.00    -0.390 OA
ATOM     14  H1  UNL     1      17.164  51.785  35.652  1.00  0.00     0.210 HD
ENDBRANCH   4  13
ENDBRANCH   3   4
BRANCH   3  15
HETATM   15  O2  UNL     1      15.568  53.283  36.200  1.00  0.00    -0.389 OA
ATOM     16  H2  UNL     1      15.848  53.819  35.468  1.00  0.00     0.210 HD
ENDBRANCH   3  15
ENDBRANCH   1   3
BRANCH   2  17
HETATM   17  O3  UNL     1      14.512  55.310  39.931  1.00  0.00    -0.363 OA
ATOM     18  H3  UNL     1      13.820  55.960  39.936  1.00  0.00     0.217 HD
ENDBRANCH   2  17
BRANCH   2  19
HETATM   19  C12 UNL     1      15.415  56.380  37.939  1.00  0.00     0.178 C
BRANCH  19  20
HETATM   20  O4  UNL     1      16.223  56.275  36.838  1.00  0.00    -0.389 OA
ATOM     21  H4  UNL     1      16.640  57.079  36.550  1.00  0.00     0.210 HD
ENDBRANCH  19  20
BRANCH  19  22
HETATM   22  C13 UNL     1      14.077  56.978  37.522  1.00  0.00     0.072 C
BRANCH  22  23
HETATM   23  C14 UNL     1      13.757  58.241  38.210  1.00  0.00    -0.081 C
HETATM   24  C15 UNL     1      14.495  58.767  39.387  1.00  0.00     0.043 C
HETATM   25  C16 UNL     1      12.762  58.979  37.761  1.00  0.00     0.003 C
BRANCH  25  26
HETATM   26  C17 UNL     1      12.366  60.254  38.378  1.00  0.00     0.002 C
HETATM   27  C18 UNL     1      11.123  60.643  38.348  1.00  0.00    -0.088 C
HETATM   28  C19 UNL     1      10.730  61.928  38.970  1.00  0.00     0.043 C
HETATM   29  C20 UNL     1      10.101  59.796  37.687  1.00  0.00     0.043 C
ENDBRANCH  25  26
ENDBRANCH  22  23
ENDBRANCH  19  22
ENDBRANCH   2  19
TORSDOF 12
ENDMDL