MODEL 3
REMARK VINA RESULT: -8.330526263      1.345      2.128
REMARK  11 active torsions:
REMARK  status: ('A' for Active; 'I' for Inactive)
REMARK    1  A    between atoms: C2_2  and  C3_3
REMARK    2  A    between atoms: C2_2  and  C14_18
REMARK    3  A    between atoms: C5_8  and  C6_9
REMARK    4  A    between atoms: C6_9  and  C7_10
REMARK    5  A    between atoms: C8_11  and  C9_12
REMARK    6  A    between atoms: C14_18  and  O2_19
REMARK    7  A    between atoms: C14_18  and  C15_21
REMARK    8  A    between atoms: C15_21  and  O3_22
REMARK    9  A    between atoms: C15_21  and  C16_24
REMARK   10  A    between atoms: C16_24  and  N2_25
REMARK   11  A    between atoms: N2_25  and  C17_27
ROOT
HETATM    1  C3  UNL     1      15.150  55.993  38.118  1.00  0.00     0.327 C
HETATM    2  N1  UNL     1      15.319  55.229  39.303  1.00  0.00    -0.046 N
ATOM      3  H11 UNL     1      16.253  54.839  39.425  1.00  0.00     0.280 HD
ATOM      4  H12 UNL     1      14.830  54.334  39.304  1.00  0.00     0.280 HD
HETATM    5  C4  UNL     1      14.904  56.146  40.357  1.00  0.00     0.267 C
HETATM    6  C5  UNL     1      14.036  57.117  39.621  1.00  0.00     0.153 C
HETATM    7  O1  UNL     1      13.944  56.653  38.311  1.00  0.00    -0.351 OA
ENDROOT
BRANCH   1   8
HETATM    8  C2  UNL     1      15.134  55.195  36.834  1.00  0.00     0.070 C
HETATM    9  C1  UNL     1      14.317  56.003  35.850  1.00  0.00     0.017 C
BRANCH   8  10
HETATM   10  C14 UNL     1      16.469  54.783  36.326  1.00  0.00     0.160 C
BRANCH  10  11
HETATM   11  O2  UNL     1      17.438  55.484  37.061  1.00  0.00    -0.392 OA
ATOM     12  H2  UNL     1      18.164  55.667  36.477  1.00  0.00     0.210 HD
ENDBRANCH  10  11
BRANCH  10  13
HETATM   13  C15 UNL     1      16.665  53.286  36.491  1.00  0.00     0.185 C
BRANCH  13  14
HETATM   14  O3  UNL     1      16.895  52.660  35.288  1.00  0.00    -0.388 OA
ATOM     15  H3  UNL     1      16.200  52.052  35.064  1.00  0.00     0.210 HD
ENDBRANCH  13  14
BRANCH  13  16
HETATM   16  C16 UNL     1      17.675  52.942  37.519  1.00  0.00     0.090 C
BRANCH  16  17
HETATM   17  N2  UNL     1      18.930  52.470  37.141  1.00  0.00    -0.392 N
ATOM     18  H2  UNL     1      18.978  51.560  36.684  1.00  0.00     0.159 HD
BRANCH  17  19
HETATM   19  C17 UNL     1      20.127  53.160  37.344  1.00  0.00     0.018 C
HETATM   20  C18 UNL     1      20.200  54.219  36.199  1.00  0.00     0.037 C
HETATM   21  C19 UNL     1      20.239  53.986  38.603  1.00  0.00     0.037 C
HETATM   22  C20 UNL     1      21.380  52.339  37.166  1.00  0.00     0.037 C
ENDBRANCH  17  19
ENDBRANCH  16  17
ENDBRANCH  13  16
ENDBRANCH  10  13
ENDBRANCH   8  10
ENDBRANCH   1   8
BRANCH   6  23
HETATM   23  C6  UNL     1      14.490  58.537  39.639  1.00  0.00     0.060 C
BRANCH  23  24
HETATM   24  C7  UNL     1      13.731  59.509  38.875  1.00  0.00    -0.028 C
HETATM   25  C8  UNL     1      12.434  59.612  38.852  1.00  0.00    -0.026 C
BRANCH  25  26
HETATM   26  C9  UNL     1      11.669  60.624  38.056  1.00  0.00     0.008 C
HETATM   27  C10 UNL     1      10.443  60.025  37.395  1.00  0.00     0.008 C
HETATM   28  C11 UNL     1       9.449  61.176  37.305  1.00  0.00     0.001 C
HETATM   29  C12 UNL     1       9.897  62.222  38.286  1.00  0.00     0.001 C
HETATM   30  C13 UNL     1      10.988  61.537  39.080  1.00  0.00     0.008 C
ENDBRANCH  25  26
ENDBRANCH  23  24
ENDBRANCH   6  23
TORSDOF 11
ENDMDL