MODEL 4
REMARK VINA RESULT: -7.728088547      4.093      8.455
REMARK  12 active torsions:
REMARK  status: ('A' for Active; 'I' for Inactive)
REMARK    1  A    between atoms: C2_2  and  O1_3
REMARK    2  A    between atoms: C2_2  and  C3_5
REMARK    3  A    between atoms: C3_5  and  O2_6
REMARK    4  A    between atoms: C3_5  and  C4_8
REMARK    5  A    between atoms: C4_8  and  C5_9
REMARK    6  A    between atoms: C5_9  and  C6_10
REMARK    7  A    between atoms: C6_10  and  C7_11
REMARK    8  A    between atoms: C7_11  and  C8_12
REMARK    9  A    between atoms: C8_12  and  C9_13
REMARK   10  A    between atoms: C9_13  and  C10_14
REMARK   11  A    between atoms: C12_17  and  O4_18
REMARK   12  A    between atoms: C20_27  and  O5_28
ROOT
HETATM    1  C10 UNL     1      17.740  55.923  36.676  1.00  0.00     0.151 C
HETATM    2  O3  UNL     1      17.272  54.830  37.443  1.00  0.00    -0.368 OA
HETATM    3  C11 UNL     1      17.709  53.645  36.980  1.00  0.00     0.103 A
HETATM    4  C12 UNL     1      17.052  52.858  35.916  1.00  0.00     0.155 C
HETATM    5  C13 UNL     1      17.661  51.561  36.463  1.00  0.00     0.048 C
HETATM    6  C14 UNL     1      17.975  52.388  37.660  1.00  0.00     0.003 A
HETATM    7  C15 UNL     1      17.262  52.098  38.915  1.00  0.00     0.019 C
HETATM    8  C16 UNL     1      19.041  53.372  37.546  1.00  0.00     0.001 A
HETATM    9  C17 UNL     1      19.468  53.878  38.913  1.00  0.00     0.019 C
HETATM   10  C18 UNL     1      20.021  53.520  36.465  1.00  0.00     0.016 C
HETATM   11  C19 UNL     1      19.746  54.773  35.674  1.00  0.00     0.035 C
HETATM   12  C20 UNL     1      19.192  55.906  36.459  1.00  0.00     0.147 C
ENDROOT
BRANCH   1  13
HETATM   13  C9  UNL     1      16.844  56.178  35.518  1.00  0.00     0.034 C
BRANCH  13  14
HETATM   14  C8  UNL     1      15.612  56.994  35.774  1.00  0.00     0.002 C
BRANCH  14  15
HETATM   15  C7  UNL     1      14.434  56.110  36.151  1.00  0.00     0.000 C
BRANCH  15  16
HETATM   16  C6  UNL     1      14.068  56.298  37.611  1.00  0.00     0.000 C
BRANCH  16  17
HETATM   17  C5  UNL     1      13.575  57.659  37.939  1.00  0.00     0.002 C
BRANCH  17  18
HETATM   18  C4  UNL     1      12.343  58.066  37.230  1.00  0.00     0.034 C
BRANCH  18  19
HETATM   19  C3  UNL     1      12.146  59.519  36.965  1.00  0.00     0.146 C
BRANCH  19  20
HETATM   20  C2  UNL     1      11.183  60.137  37.984  1.00  0.00     0.142 C
HETATM   21  C1  UNL     1      10.011  60.780  37.302  1.00  0.00     0.042 C
BRANCH  20  22
HETATM   22  O1  UNL     1      11.912  61.050  38.736  1.00  0.00    -0.393 OA
ATOM     23  H1  UNL     1      12.805  61.137  38.421  1.00  0.00     0.210 HD
ENDBRANCH  20  22
ENDBRANCH  19  20
BRANCH  19  24
HETATM   24  O2  UNL     1      11.508  59.765  35.728  1.00  0.00    -0.393 OA
ATOM     25  H2  UNL     1      12.229  59.991  35.153  1.00  0.00     0.210 HD
ENDBRANCH  19  24
ENDBRANCH  18  19
ENDBRANCH  17  18
ENDBRANCH  16  17
ENDBRANCH  15  16
ENDBRANCH  14  15
ENDBRANCH  13  14
ENDBRANCH   1  13
BRANCH  12  26
HETATM   26  O5  UNL     1      19.573  57.085  35.828  1.00  0.00    -0.393 OA
ATOM     27  H5  UNL     1      20.417  56.957  35.411  1.00  0.00     0.210 HD
ENDBRANCH  12  26
BRANCH   4  28
HETATM   28  O4  UNL     1      15.659  52.769  36.095  1.00  0.00    -0.392 OA
ATOM     29  H4  UNL     1      15.204  52.536  35.294  1.00  0.00     0.210 HD
ENDBRANCH   4  28
TORSDOF 12
ENDMDL