MODEL 3
REMARK VINA RESULT: -8.317713784      1.791      2.214
REMARK  9 active torsions:
REMARK  status: ('A' for Active; 'I' for Inactive)
REMARK    1  A    between atoms: C2_3  and  C4_6
REMARK       I    between atoms: C4_6  and  N3_8
REMARK    2  A    between atoms: N3_8  and  N4_10
REMARK    3  A    between atoms: N4_10  and  C5_12
REMARK    4  A    between atoms: C6_15  and  N6_16
REMARK    5  A    between atoms: N6_16  and  N7_18
REMARK    6  A    between atoms: C7_23  and  N9_24
REMARK    7  A    between atoms: N9_24  and  N10_26
REMARK    8  A    between atoms: C8_28  and  C9_29
REMARK    9  A    between atoms: C12_36  and  O2_37
ROOT
HETATM    1  N1  UNL     1      31.465 -20.724  14.614  1.00  0.00    -0.195 NA
HETATM    2  C1  UNL     1      30.594 -20.280  15.195  1.00  0.00     0.088 C
HETATM    3  C2  UNL     1      29.459 -19.689  15.934  1.00  0.00     0.292 C
HETATM    4  C3  UNL     1      28.550 -20.769  16.246  1.00  0.00     0.088 C
HETATM    5  N2  UNL     1      27.807 -21.632  16.486  1.00  0.00    -0.195 NA
ENDROOT
BRANCH   3   6
HETATM    6  C4  UNL     1      28.814 -18.673  15.067  1.00  0.00     0.268 C
HETATM    7  O1  UNL     1      29.423 -18.085  14.136  1.00  0.00    -0.269 OA
HETATM    8  N3  UNL     1      27.440 -18.347  15.301  1.00  0.00    -0.254 N
ATOM      9  H3  UNL     1      26.933 -18.815  16.053  1.00  0.00     0.190 HD
BRANCH   8  10
HETATM   10  N4  UNL     1      26.785 -17.401  14.518  1.00  0.00    -0.128 N
ATOM     11  H4  UNL     1      27.329 -16.839  13.863  1.00  0.00     0.205 HD
BRANCH  10  12
HETATM   12  C5  UNL     1      25.502 -17.212  14.599  1.00  0.00     0.726 A
HETATM   13  N5  UNL     1      24.767 -17.702  15.605  1.00  0.00    -0.018 N
HETATM   14  C6  UNL     1      23.442 -17.508  15.689  1.00  0.00     0.725 A
ATOM     15  H5  UNL     1      25.232 -18.242  16.335  1.00  0.00     0.203 HD
HETATM   16  N8  UNL     1      22.843 -16.784  14.704  1.00  0.00    -0.018 N
HETATM   17  C7  UNL     1      23.565 -16.280  13.679  1.00  0.00     0.726 A
ATOM     18  H8  UNL     1      21.838 -16.620  14.741  1.00  0.00     0.203 HD
HETATM   19  N13 UNL     1      24.894 -16.499  13.635  1.00  0.00    -0.018 N
ATOM     20  H13 UNL     1      25.444 -16.121  12.863  1.00  0.00     0.203 HD
BRANCH  14  21
HETATM   21  N6  UNL     1      22.759 -17.988  16.665  1.00  0.00    -0.138 N
ATOM     22  H6  UNL     1      23.204 -18.556  17.386  1.00  0.00     0.205 HD
BRANCH  21  23
HETATM   23  N7  UNL     1      21.395 -17.716  16.715  1.00  0.00    -0.331 N
ATOM     24  H72 UNL     1      20.885 -17.839  17.590  1.00  0.00     0.177 HD
ATOM     25  H71 UNL     1      20.933 -17.394  15.865  1.00  0.00     0.177 HD
ENDBRANCH  21  23
ENDBRANCH  14  21
BRANCH  17  26
HETATM   26  N9  UNL     1      23.037 -15.599  12.742  1.00  0.00    -0.131 N
ATOM     27  H9  UNL     1      22.200 -15.048  12.929  1.00  0.00     0.205 HD
BRANCH  26  28
HETATM   28  N10 UNL     1      23.592 -15.601  11.462  1.00  0.00    -0.295 N
HETATM   29  C8  UNL     1      23.849 -16.697  10.884  1.00  0.00     0.141 C
ATOM     30  H10 UNL     1      23.792 -14.719  10.992  1.00  0.00     0.186 HD
BRANCH  29  31
HETATM   31  C9  UNL     1      24.433 -16.730   9.539  1.00  0.00     0.098 A
HETATM   32  N11 UNL     1      24.203 -15.738   8.656  1.00  0.00    -0.297 N
HETATM   33  N12 UNL     1      24.718 -15.754   7.452  1.00  0.00    -0.311 N
ATOM     34  H11 UNL     1      23.612 -14.954   8.932  1.00  0.00     0.187 HD
HETATM   35  C10 UNL     1      25.514 -16.748   6.992  1.00  0.00     0.110 A
ATOM     36  H12 UNL     1      24.508 -14.976   6.827  1.00  0.00     0.186 HD
HETATM   37  C11 UNL     1      25.787 -17.793   7.851  1.00  0.00     0.057 A
HETATM   38  C12 UNL     1      25.239 -17.769   9.121  1.00  0.00     0.096 A
BRANCH  38  39
HETATM   39  O2  UNL     1      25.485 -18.794  10.018  1.00  0.00    -0.358 OA
ATOM     40  H2  UNL     1      26.375 -18.904  10.331  1.00  0.00     0.217 HD
ENDBRANCH  38  39
ENDBRANCH  29  31
ENDBRANCH  26  28
ENDBRANCH  17  26
ENDBRANCH  10  12
ENDBRANCH   8  10
ENDBRANCH   3   6
TORSDOF 9
ENDMDL