MODEL 5
REMARK VINA RESULT: -6.216142181      0.673      1.310
REMARK  7 active torsions:
REMARK  status: ('A' for Active; 'I' for Inactive)
REMARK    1  A    between atoms: N1_1  and  C1_4
REMARK    2  A    between atoms: C2_7  and  N3_8
REMARK    3  A    between atoms: N3_8  and  C3_10
REMARK    4  A    between atoms: C3_10  and  C4_11
REMARK    5  A    between atoms: N6_17  and  N7_18
REMARK    6  A    between atoms: C7_22  and  S1_23
REMARK    7  A    between atoms: S1_23  and  N8_24
ROOT
HETATM    1  C1  UNL     1      23.471 -17.335  15.323  1.00  0.00     0.679 A
HETATM    2  N2  UNL     1      24.348 -18.183  14.766  1.00  0.00    -0.176 N
ATOM      3  H2  UNL     1      24.709 -18.957  15.325  1.00  0.00     0.186 HD
HETATM    4  C2  UNL     1      24.776 -18.046  13.471  1.00  0.00     0.133 A
HETATM    5  C6  UNL     1      24.299 -17.013  12.714  1.00  0.00     0.078 A
HETATM    6  C7  UNL     1      24.682 -16.813  11.384  1.00  0.00     0.122 A
HETATM    7  C8  UNL     1      24.080 -15.714  10.764  1.00  0.00     0.086 A
HETATM    8  N9  UNL     1      24.451 -15.493   9.394  1.00  0.00    -0.099 NA
HETATM    9  C9  UNL     1      23.184 -14.865  11.361  1.00  0.00     0.118 A
HETATM   10  N10 UNL     1      22.846 -15.083  12.627  1.00  0.00    -0.349 N
ATOM     11  H10 UNL     1      22.183 -14.467  13.096  1.00  0.00     0.166 HD
HETATM   12  C10 UNL     1      23.385 -16.121  13.282  1.00  0.00     0.136 A
HETATM   13  N11 UNL     1      23.006 -16.325  14.580  1.00  0.00    -0.176 N
ATOM     14  H11 UNL     1      22.339 -15.678  15.000  1.00  0.00     0.186 HD
ENDROOT
BRANCH   4  15
HETATM   15  N3  UNL     1      25.596 -18.885  12.962  1.00  0.00    -0.368 N
ATOM     16  H3  UNL     1      25.338 -19.444  12.148  1.00  0.00     0.161 HD
BRANCH  15  17
HETATM   17  C3  UNL     1      26.902 -19.019  13.574  1.00  0.00     0.201 C
BRANCH  17  18
HETATM   18  C4  UNL     1      26.931 -19.955  14.700  1.00  0.00     0.136 A
HETATM   19  N4  UNL     1      26.468 -21.207  14.778  1.00  0.00    -0.285 N
HETATM   20  N5  UNL     1      26.700 -21.705  15.998  1.00  0.00    -0.293 N
ATOM     21  H4  UNL     1      26.006 -21.708  14.018  1.00  0.00     0.188 HD
HETATM   22  C5  UNL     1      27.328 -20.726  16.693  1.00  0.00     0.224 A
ATOM     23  H5  UNL     1      26.454 -22.635  16.336  1.00  0.00     0.187 HD
HETATM   24  N6  UNL     1      27.470 -19.659  15.908  1.00  0.00    -0.242 N
BRANCH  24  25
HETATM   25  N7  UNL     1      28.069 -18.449  16.262  1.00  0.00    -0.336 N
ATOM     26  H72 UNL     1      28.604 -18.268  17.111  1.00  0.00     0.177 HD
ATOM     27  H71 UNL     1      28.050 -17.589  15.714  1.00  0.00     0.177 HD
ENDBRANCH  24  25
ENDBRANCH  17  18
ENDBRANCH  15  17
ENDBRANCH   4  15
BRANCH   1  28
HETATM   28  N1  UNL     1      23.101 -17.499  16.529  1.00  0.00    -0.234 N
ATOM     29  H12 UNL     1      22.137 -17.337  16.817  1.00  0.00     0.174 HD
ATOM     30  H11 UNL     1      23.773 -17.799  17.235  1.00  0.00     0.174 HD
ENDBRANCH   1  28
BRANCH   6  31
HETATM   31  S1  UNL     1      25.823 -17.832  10.647  1.00  0.00     0.259 S
HETATM   32  O1  UNL     1      27.253 -17.783  11.093  1.00  0.00    -0.201 OA
HETATM   33  O2  UNL     1      26.091 -17.079   9.296  1.00  0.00    -0.201 OA
BRANCH  31  34
HETATM   34  N8  UNL     1      25.282 -19.306   9.978  1.00  0.00    -0.324 N
ATOM     35  H82 UNL     1      25.505 -19.536   9.009  1.00  0.00     0.169 HD
ATOM     36  H81 UNL     1      24.740 -19.936  10.568  1.00  0.00     0.169 HD
ENDBRANCH  31  34
ENDBRANCH   6  31
TORSDOF 7
ENDMDL