MODEL 1
REMARK VINA RESULT: -8.365005265      0.000      0.000
REMARK  10 active torsions:
REMARK  status: ('A' for Active; 'I' for Inactive)
REMARK    1  A    between atoms: C2_6  and  N4_7
REMARK    2  A    between atoms: N4_7  and  C3_9
REMARK    3  A    between atoms: C3_9  and  C4_14
REMARK    4  A    between atoms: N5_10  and  O1_12
REMARK    5  A    between atoms: C7_17  and  N6_18
REMARK    6  A    between atoms: N9_27  and  C10_28
REMARK    7  A    between atoms: C10_28  and  C11_29
REMARK    8  A    between atoms: C11_29  and  O2_30
REMARK    9  A    between atoms: C11_29  and  C12_32
REMARK   10  A    between atoms: C12_32  and  O3_33
ROOT
HETATM    1  C4  UNL     1      24.706 -16.971  11.994  1.00  0.00     0.084 A
HETATM    2  C5  UNL     1      25.153 -18.048  11.208  1.00  0.00     0.052 A
HETATM    3  C6  UNL     1      25.205 -17.614   9.930  1.00  0.00     0.054 A
HETATM    4  C7  UNL     1      25.578 -18.264   8.751  1.00  0.00     0.113 A
HETATM    5  N7  UNL     1      25.511 -17.520   7.630  1.00  0.00    -0.338 N
ATOM      6  H7  UNL     1      25.772 -17.949   6.743  1.00  0.00     0.168 HD
HETATM    7  C8  UNL     1      25.114 -16.234   7.634  1.00  0.00     0.183 A
HETATM    8  N8  UNL     1      24.753 -15.607   8.787  1.00  0.00    -0.338 N
ATOM      9  H8  UNL     1      24.455 -14.632   8.779  1.00  0.00     0.168 HD
HETATM   10  C9  UNL     1      24.800 -16.305   9.944  1.00  0.00     0.123 A
HETATM   11  N9  UNL     1      24.493 -15.911  11.216  1.00  0.00    -0.327 N
ENDROOT
BRANCH   1  12
HETATM   12  C3  UNL     1      24.535 -17.064  13.432  1.00  0.00     0.167 C
HETATM   13  N5  UNL     1      23.403 -17.212  14.005  1.00  0.00    -0.251 N
ATOM     14  H5  UNL     1      22.578 -17.267  13.409  1.00  0.00     0.196 HD
BRANCH  12  15
HETATM   15  N4  UNL     1      25.677 -16.988  14.266  1.00  0.00    -0.170 N
ATOM     16  H4  UNL     1      25.997 -16.079  14.599  1.00  0.00     0.186 HD
BRANCH  15  17
HETATM   17  C2  UNL     1      26.319 -18.057  14.611  1.00  0.00     0.712 A
HETATM   18  N3  UNL     1      25.870 -19.339  14.498  1.00  0.00    -0.113 N
HETATM   19  N2  UNL     1      26.820 -20.149  14.962  1.00  0.00     0.011 NA
ATOM     20  H3  UNL     1      24.966 -19.627  14.124  1.00  0.00     0.203 HD
HETATM   21  N1  UNL     1      27.841 -19.383  15.355  1.00  0.00    -0.208 N
HETATM   22  C1  UNL     1      29.049 -19.933  15.913  1.00  0.00     0.198 C
HETATM   23  N10 UNL     1      27.546 -18.115  15.147  1.00  0.00    -0.116 N
ATOM     24  H10 UNL     1      28.147 -17.318  15.357  1.00  0.00     0.207 HD
ENDBRANCH  15  17
ENDBRANCH  12  15
BRANCH  13  25
HETATM   25  O1  UNL     1      23.213 -17.301  15.344  1.00  0.00    -0.288 OA
ATOM     26  H1  UNL     1      22.784 -18.023  15.788  1.00  0.00     0.244 HD
ENDBRANCH  13  25
ENDBRANCH   1  12
BRANCH  11  27
HETATM   27  C10 UNL     1      24.019 -14.589  11.601  1.00  0.00     0.165 C
BRANCH  27  28
HETATM   28  C11 UNL     1      22.528 -14.469  11.534  1.00  0.00     0.160 C
BRANCH  28  29
HETATM   29  O2  UNL     1      22.120 -14.550  10.183  1.00  0.00    -0.392 OA
ATOM     30  H2  UNL     1      21.391 -15.155  10.116  1.00  0.00     0.210 HD
ENDBRANCH  28  29
BRANCH  28  31
HETATM   31  C12 UNL     1      22.174 -13.051  11.972  1.00  0.00     0.197 C
BRANCH  31  32
HETATM   32  O3  UNL     1      22.744 -12.724  13.192  1.00  0.00    -0.398 OA
ATOM     33  H3  UNL     1      22.869 -13.487  13.745  1.00  0.00     0.209 HD
ENDBRANCH  31  32
ENDBRANCH  28  31
ENDBRANCH  27  28
ENDBRANCH  11  27
BRANCH   4  34
HETATM   34  N6  UNL     1      25.959 -19.496   8.743  1.00  0.00    -0.385 N
ATOM     35  H62 UNL     1      25.453 -20.229   9.240  1.00  0.00     0.157 HD
ATOM     36  H61 UNL     1      26.792 -19.800   8.239  1.00  0.00     0.157 HD
ENDBRANCH   4  34
TORSDOF 10
ENDMDL