MODEL 1
REMARK VINA RESULT: -8.533475687      0.000      0.000
REMARK  5 active torsions:
REMARK  status: ('A' for Active; 'I' for Inactive)
REMARK    1  A    between atoms: O1_2  and  N1_3
REMARK    2  A    between atoms: N1_3  and  C2_5
REMARK    3  A    between atoms: C4_18  and  N7_19
REMARK    4  A    between atoms: N7_19  and  C5_21
REMARK    5  A    between atoms: C9_29  and  N10_30
ROOT
HETATM    1  C2  UNL     1      25.487 -18.264  14.895  1.00  0.00     0.173 C
HETATM    2  N2  UNL     1      26.106 -18.932  15.887  1.00  0.00    -0.314 N
ATOM      3  H2  UNL     1      25.431 -19.331  16.539  1.00  0.00     0.170 HD
HETATM    4  C3  UNL     1      27.373 -19.221  16.258  1.00  0.00     0.193 C
HETATM    5  S1  UNL     1      27.470 -19.811  17.778  1.00  0.00    -0.039 SA
HETATM    6  N3  UNL     1      28.539 -19.113  15.616  1.00  0.00    -0.260 N
ATOM      7  H3  UNL     1      29.269 -19.693  16.029  1.00  0.00     0.191 HD
HETATM    8  N4  UNL     1      28.972 -18.419  14.553  1.00  0.00    -0.226 N
ATOM      9  H4  UNL     1      29.989 -18.452  14.472  1.00  0.00     0.210 HD
HETATM   10  N5  UNL     1      28.428 -17.703  13.581  1.00  0.00    -0.227 N
ATOM     11  H5  UNL     1      29.117 -17.323  12.932  1.00  0.00     0.210 HD
HETATM   12  N6  UNL     1      27.177 -17.369  13.266  1.00  0.00    -0.267 N
ATOM     13  H6  UNL     1      27.140 -16.719  12.482  1.00  0.00     0.190 HD
HETATM   14  C4  UNL     1      25.951 -17.676  13.724  1.00  0.00     0.165 C
ENDROOT
BRANCH  14  15
HETATM   15  N7  UNL     1      24.886 -17.338  12.842  1.00  0.00    -0.349 N
ATOM     16  H7  UNL     1      23.953 -17.730  12.969  1.00  0.00     0.163 HD
BRANCH  15  17
HETATM   17  C5  UNL     1      25.167 -16.424  11.764  1.00  0.00     0.211 C
HETATM   18  N8  UNL     1      25.800 -17.047  10.643  1.00  0.00    -0.336 N
HETATM   19  C6  UNL     1      25.139 -17.611   9.688  1.00  0.00     0.229 C
ATOM     20  H8  UNL     1      26.819 -17.045  10.596  1.00  0.00     0.164 HD
HETATM   21  N9  UNL     1      25.855 -18.214   8.599  1.00  0.00    -0.056 NA
HETATM   22  O2  UNL     1      23.757 -17.598   9.780  1.00  0.00    -0.317 OA
HETATM   23  C7  UNL     1      23.139 -16.426  10.274  1.00  0.00     0.154 C
HETATM   24  C8  UNL     1      22.836 -15.559   9.047  1.00  0.00     0.042 C
HETATM   25  C9  UNL     1      23.962 -15.687  11.285  1.00  0.00     0.155 C
BRANCH  25  26
HETATM   26  N10 UNL     1      23.125 -15.214  12.378  1.00  0.00    -0.356 N
HETATM   27  C10 UNL     1      22.546 -14.056  12.333  1.00  0.00     0.197 C
HETATM   28  N11 UNL     1      21.745 -13.649  13.424  1.00  0.00    -0.067 NA
HETATM   29  N12 UNL     1      22.673 -13.163  11.236  1.00  0.00    -0.067 NA
ATOM     30  H10 UNL     1      22.992 -15.807  13.198  1.00  0.00     0.162 HD
ENDBRANCH  25  26
ENDBRANCH  15  17
ENDBRANCH  14  15
BRANCH   1  31
HETATM   31  N1  UNL     1      24.220 -18.128  15.030  1.00  0.00    -0.248 N
ATOM     32  H1  UNL     1      23.622 -18.780  14.522  1.00  0.00     0.196 HD
BRANCH  31  33
HETATM   33  O1  UNL     1      23.612 -17.189  15.791  1.00  0.00    -0.284 OA
HETATM   34  C1  UNL     1      22.355 -17.419  16.408  1.00  0.00     0.237 C
ENDBRANCH  31  33
ENDBRANCH   1  31
TORSDOF 5
ENDMDL