MODEL 5
REMARK VINA RESULT: -9.046727644      1.666      1.835
REMARK  9 active torsions:
REMARK  status: ('A' for Active; 'I' for Inactive)
REMARK    1  A    between atoms: C1_2  and  N2_3
REMARK    2  A    between atoms: C1_2  and  C2_7
REMARK    3  A    between atoms: N2_3  and  O1_5
REMARK    4  A    between atoms: C2_7  and  N3_8
REMARK    5  A    between atoms: C2_7  and  C8_30
REMARK    6  A    between atoms: N3_8  and  N4_10
REMARK    7  A    between atoms: N4_10  and  C3_12
REMARK    8  A    between atoms: C6_19  and  S1_20
REMARK    9  A    between atoms: S1_20  and  N7_21
ROOT
HETATM    1  N4  UNL     1      25.007 -19.432  12.439  1.00  0.00    -0.286 N
ATOM      2  H4  UNL     1      24.956 -20.338  11.975  1.00  0.00     0.188 HD
ENDROOT
BRANCH   1   3
HETATM    3  N3  UNL     1      25.360 -19.380  13.789  1.00  0.00    -0.317 N
ATOM      4  H3  UNL     1      24.623 -19.391  14.495  1.00  0.00     0.181 HD
BRANCH   3   5
HETATM    5  C2  UNL     1      26.743 -19.312  14.213  1.00  0.00     0.218 C
BRANCH   5   6
HETATM    6  C1  UNL     1      27.259 -17.947  14.051  1.00  0.00     0.143 C
HETATM    7  N1  UNL     1      28.300 -17.673  13.099  1.00  0.00    -0.083 NA
BRANCH   6   8
HETATM    8  N2  UNL     1      26.796 -16.973  14.749  1.00  0.00    -0.257 N
ATOM      9  H2  UNL     1      27.425 -16.389  15.301  1.00  0.00     0.195 HD
BRANCH   8  10
HETATM   10  O1  UNL     1      25.436 -16.725  14.746  1.00  0.00    -0.289 OA
ATOM     11  H1  UNL     1      25.126 -15.831  14.838  1.00  0.00     0.244 HD
ENDBRANCH   8  10
ENDBRANCH   6   8
ENDBRANCH   5   6
BRANCH   5  12
HETATM   12  C8  UNL     1      26.876 -19.730  15.651  1.00  0.00     0.075 A
HETATM   13  C9  UNL     1      27.356 -20.941  16.133  1.00  0.00     0.137 A
HETATM   14  N9  UNL     1      27.314 -20.922  17.483  1.00  0.00    -0.296 N
HETATM   15  N10 UNL     1      26.824 -19.741  17.818  1.00  0.00    -0.243 N
ATOM     16  H9  UNL     1      27.602 -21.668  18.115  1.00  0.00     0.187 HD
HETATM   17  N11 UNL     1      26.560 -19.024  16.746  1.00  0.00    -0.287 N
ATOM     18  H10 UNL     1      26.672 -19.429  18.777  1.00  0.00     0.208 HD
ATOM     19  H11 UNL     1      26.175 -18.080  16.748  1.00  0.00     0.188 HD
ENDBRANCH   5  12
ENDBRANCH   3   5
ENDBRANCH   1   3
BRANCH   1  20
HETATM   20  C3  UNL     1      24.745 -18.369  11.765  1.00  0.00     0.159 A
HETATM   21  N5  UNL     1      24.096 -17.321  12.352  1.00  0.00    -0.335 N
HETATM   22  C4  UNL     1      23.818 -16.206  11.655  1.00  0.00     0.182 A
ATOM     23  H5  UNL     1      23.817 -17.385  13.331  1.00  0.00     0.168 HD
HETATM   24  N6  UNL     1      24.177 -16.107  10.365  1.00  0.00    -0.347 N
HETATM   25  C5  UNL     1      24.822 -17.104   9.720  1.00  0.00     0.115 A
ATOM     26  H6  UNL     1      23.955 -15.252   9.855  1.00  0.00     0.167 HD
HETATM   27  C6  UNL     1      25.303 -17.287   8.441  1.00  0.00     0.199 A
HETATM   28  C7  UNL     1      25.103 -18.243  10.441  1.00  0.00     0.173 A
HETATM   29  N8  UNL     1      25.849 -18.516   8.443  1.00  0.00    -0.246 N
HETATM   30  O4  UNL     1      25.717 -19.056   9.634  1.00  0.00    -0.231 OA
ATOM     31  H8  UNL     1      26.297 -18.962   7.643  1.00  0.00     0.196 HD
BRANCH  27  32
HETATM   32  S1  UNL     1      25.208 -16.146   7.123  1.00  0.00     0.276 S
HETATM   33  O2  UNL     1      26.582 -15.615   6.784  1.00  0.00    -0.199 OA
HETATM   34  O3  UNL     1      24.366 -14.953   7.484  1.00  0.00    -0.199 OA
BRANCH  32  35
HETATM   35  N7  UNL     1      24.545 -16.846   5.705  1.00  0.00    -0.323 N
ATOM     36  H72 UNL     1      24.414 -17.852   5.591  1.00  0.00     0.169 HD
ATOM     37  H71 UNL     1      24.303 -16.145   5.006  1.00  0.00     0.169 HD
ENDBRANCH  32  35
ENDBRANCH  27  32
ENDBRANCH   1  20
TORSDOF 9
ENDMDL