MODEL 4
REMARK VINA RESULT: -7.387161476      1.728      2.579
REMARK  5 active torsions:
REMARK  status: ('A' for Active; 'I' for Inactive)
REMARK    1  A    between atoms: C2_2  and  C3_3
REMARK    2  A    between atoms: C2_2  and  N4_17
REMARK       I    between atoms: C3_3  and  N1_5
REMARK    3  A    between atoms: N1_5  and  C4_7
REMARK    4  A    between atoms: C5_13  and  C6_14
REMARK    5  A    between atoms: C9_26  and  C11_28
ROOT
HETATM    1  C1  UNL     1      25.535 -19.926  12.707  1.00  0.00     0.043 C
HETATM    2  C2  UNL     1      26.133 -18.674  12.112  1.00  0.00     0.178 C
ENDROOT
BRANCH   2   3
HETATM    3  C3  UNL     1      27.090 -18.041  13.074  1.00  0.00     0.246 C
HETATM    4  O1  UNL     1      28.018 -17.358  12.505  1.00  0.00    -0.271 OA
HETATM    5  N1  UNL     1      27.070 -18.115  14.411  1.00  0.00    -0.308 N
ATOM      6  H1  UNL     1      26.441 -17.363  14.689  1.00  0.00     0.170 HD
BRANCH   5   7
HETATM    7  C4  UNL     1      27.409 -18.609  15.453  1.00  0.00     0.166 A
HETATM    8  N2  UNL     1      26.527 -18.913  16.462  1.00  0.00    -0.223 N
HETATM    9  O2  UNL     1      27.162 -19.426  17.450  1.00  0.00    -0.154 OA
ATOM     10  H2  UNL     1      25.520 -18.755  16.429  1.00  0.00     0.198 HD
HETATM   11  N3  UNL     1      28.425 -19.502  17.204  1.00  0.00    -0.231 N
HETATM   12  C5  UNL     1      28.629 -18.994  15.944  1.00  0.00     0.178 A
ATOM     13  H3  UNL     1      29.141 -19.872  17.829  1.00  0.00     0.197 HD
BRANCH  12  14
HETATM   14  C6  UNL     1      29.943 -18.934  15.366  1.00  0.00     0.232 C
HETATM   15  O3  UNL     1      30.425 -17.854  14.958  1.00  0.00    -0.643 OA
HETATM   16  O4  UNL     1      30.726 -20.055  15.234  1.00  0.00    -0.643 OA
ENDBRANCH  12  14
ENDBRANCH   5   7
ENDBRANCH   2   3
BRANCH   2  17
HETATM   17  N4  UNL     1      25.171 -17.761  11.564  1.00  0.00    -0.306 N
HETATM   18  C7  UNL     1      25.322 -17.332  10.216  1.00  0.00     0.196 A
HETATM   19  N5  UNL     1      26.401 -17.814   9.445  1.00  0.00    -0.063 NA
HETATM   20  N6  UNL     1      24.504 -16.500   9.634  1.00  0.00    -0.305 N
HETATM   21  C8  UNL     1      23.393 -15.967  10.339  1.00  0.00     0.193 A
ATOM     22  H6  UNL     1      24.664 -16.230   8.664  1.00  0.00     0.171 HD
HETATM   23  N7  UNL     1      22.522 -15.061   9.673  1.00  0.00    -0.063 NA
HETATM   24  N8  UNL     1      23.226 -16.323  11.539  1.00  0.00    -0.329 N
HETATM   25  C9  UNL     1      24.043 -17.229  12.308  1.00  0.00     0.198 A
ATOM     26  H8  UNL     1      22.421 -15.923  12.019  1.00  0.00     0.165 HD
HETATM   27  C10 UNL     1      23.109 -18.399  12.658  1.00  0.00     0.076 C
BRANCH  25  28
HETATM   28  C11 UNL     1      24.423 -16.606  13.596  1.00  0.00     0.224 C
HETATM   29  O5  UNL     1      25.016 -15.511  13.640  1.00  0.00    -0.645 OA
HETATM   30  O6  UNL     1      24.108 -17.259  14.760  1.00  0.00    -0.645 OA
ENDBRANCH  25  28
ENDBRANCH   2  17
TORSDOF 5
ENDMDL