MODEL 2
REMARK VINA RESULT: -8.774830157      2.345      7.641
REMARK  7 active torsions:
REMARK  status: ('A' for Active; 'I' for Inactive)
REMARK    1  A    between atoms: C2_7  and  S1_8
REMARK    2  A    between atoms: S1_8  and  C3_9
REMARK    3  A    between atoms: C3_9  and  C4_10
REMARK    4  A    between atoms: C6_14  and  S2_15
REMARK    5  A    between atoms: S2_15  and  N4_16
REMARK    6  A    between atoms: C7_23  and  N6_24
REMARK    7  A    between atoms: N7_27  and  O3_28
ROOT
HETATM    1  C4  UNL     1      25.392 -17.268  13.587  1.00  0.00     0.011 A
HETATM    2  C5  UNL     1      26.666 -17.726  13.311  1.00  0.00     0.102 A
HETATM    3  N3  UNL     1      27.317 -18.477  14.222  1.00  0.00    -0.341 N
ATOM      4  H3  UNL     1      28.257 -18.805  13.998  1.00  0.00     0.167 HD
HETATM    5  C6  UNL     1      26.788 -18.815  15.413  1.00  0.00     0.225 A
HETATM    6  N5  UNL     1      25.535 -18.363  15.680  1.00  0.00    -0.318 N
ATOM      7  H5  UNL     1      25.104 -18.600  16.573  1.00  0.00     0.169 HD
HETATM    8  C7  UNL     1      24.847 -17.611  14.803  1.00  0.00     0.109 A
ENDROOT
BRANCH   1   9
HETATM    9  C3  UNL     1      24.646 -16.433  12.594  1.00  0.00     0.126 C
BRANCH   9  10
HETATM   10  S1  UNL     1      23.700 -17.423  11.452  1.00  0.00    -0.086 SA
BRANCH  10  11
HETATM   11  C2  UNL     1      24.386 -17.255   9.818  1.00  0.00     0.189 A
HETATM   12  N2  UNL     1      25.144 -18.253   9.334  1.00  0.00    -0.168 N
HETATM   13  C1  UNL     1      25.668 -18.151   8.118  1.00  0.00     0.680 A
ATOM     14  H2  UNL     1      25.316 -19.085   9.898  1.00  0.00     0.186 HD
HETATM   15  N1  UNL     1      26.396 -19.087   7.626  1.00  0.00    -0.234 N
HETATM   16  N9  UNL     1      25.433 -17.053   7.388  1.00  0.00    -0.161 N
ATOM     17  H12 UNL     1      26.575 -19.923   8.183  1.00  0.00     0.174 HD
ATOM     18  H11 UNL     1      26.798 -19.009   6.692  1.00  0.00     0.174 HD
HETATM   19  C8  UNL     1      24.666 -16.041   7.877  1.00  0.00     0.235 A
ATOM     20  H9  UNL     1      25.833 -16.974   6.453  1.00  0.00     0.187 HD
HETATM   21  N7  UNL     1      24.138 -16.140   9.099  1.00  0.00    -0.170 N
HETATM   22  N8  UNL     1      24.416 -14.874   7.101  1.00  0.00    -0.060 NA
BRANCH  21  23
HETATM   23  O3  UNL     1      23.348 -15.155   9.665  1.00  0.00    -0.278 OA
ATOM     24  H3  UNL     1      23.676 -14.263   9.674  1.00  0.00     0.245 HD
ENDBRANCH  21  23
ENDBRANCH  10  11
ENDBRANCH   9  10
ENDBRANCH   1   9
BRANCH   8  25
HETATM   25  N6  UNL     1      23.660 -17.188  15.067  1.00  0.00    -0.385 N
ATOM     26  H62 UNL     1      23.482 -16.209  15.292  1.00  0.00     0.157 HD
ATOM     27  H61 UNL     1      22.899 -17.866  15.044  1.00  0.00     0.157 HD
ENDBRANCH   8  25
BRANCH   5  28
HETATM   28  S2  UNL     1      27.653 -19.794  16.583  1.00  0.00     0.289 S
HETATM   29  O1  UNL     1      27.791 -21.219  16.104  1.00  0.00    -0.198 OA
HETATM   30  O2  UNL     1      29.057 -19.279  16.786  1.00  0.00    -0.198 OA
BRANCH  28  31
HETATM   31  N4  UNL     1      26.844 -19.700  18.091  1.00  0.00    -0.322 N
ATOM     32  H42 UNL     1      26.171 -18.978  18.345  1.00  0.00     0.169 HD
ATOM     33  H41 UNL     1      27.147 -20.478  18.678  1.00  0.00     0.169 HD
ENDBRANCH  28  31
ENDBRANCH   5  28
TORSDOF 7
ENDMDL