MODEL 5
REMARK VINA RESULT: -7.803802915      2.007      4.734
REMARK  6 active torsions:
REMARK  status: ('A' for Active; 'I' for Inactive)
REMARK       I    between atoms: N1_1  and  C1_5
REMARK       I    between atoms: C1_5  and  N2_6
REMARK       I    between atoms: C1_5  and  N3_10
REMARK    1  A    between atoms: N3_10  and  C2_12
REMARK    2  A    between atoms: C3_15  and  S1_16
REMARK    3  A    between atoms: S1_16  and  N5_17
REMARK    4  A    between atoms: C5_23  and  O3_24
REMARK    5  A    between atoms: O3_24  and  S2_25
REMARK    6  A    between atoms: C6_29  and  N6_30
ROOT
HETATM    1  C2  UNL     1      24.944 -18.147  12.037  1.00  0.00     0.141 A
HETATM    2  N4  UNL     1      25.240 -18.157  10.739  1.00  0.00    -0.330 N
ATOM      3  H4  UNL     1      25.555 -19.034  10.324  1.00  0.00     0.168 HD
HETATM    4  C3  UNL     1      25.148 -17.075   9.942  1.00  0.00     0.153 A
HETATM    5  C4  UNL     1      24.719 -15.871  10.494  1.00  0.00     0.084 A
HETATM    6  C5  UNL     1      24.403 -15.800  11.815  1.00  0.00     0.131 A
HETATM    7  C6  UNL     1      24.513 -16.932  12.584  1.00  0.00     0.181 A
ENDROOT
BRANCH   1   8
HETATM    8  N3  UNL     1      25.010 -19.123  12.833  1.00  0.00    -0.325 N
HETATM    9  C1  UNL     1      26.089 -19.484  13.691  1.00  0.00     0.481 C
HETATM   10  N1  UNL     1      26.219 -20.939  13.636  1.00  0.00    -0.033 N
HETATM   11  N2  UNL     1      25.722 -19.163  15.060  1.00  0.00    -0.033 N
ATOM     12  H13 UNL     1      26.866 -21.316  14.329  1.00  0.00     0.278 HD
ATOM     13  H12 UNL     1      25.388 -21.434  13.960  1.00  0.00     0.278 HD
ATOM     14  H11 UNL     1      26.476 -21.164  12.675  1.00  0.00     0.278 HD
ATOM     15  H23 UNL     1      24.891 -19.658  15.384  1.00  0.00     0.278 HD
ATOM     16  H22 UNL     1      26.368 -19.540  15.753  1.00  0.00     0.278 HD
ATOM     17  H21 UNL     1      25.631 -18.148  15.098  1.00  0.00     0.278 HD
ATOM     18  H3  UNL     1      24.190 -19.730  12.867  1.00  0.00     0.165 HD
ENDBRANCH   1   8
BRANCH   7  19
HETATM   19  N6  UNL     1      24.178 -16.848  13.961  1.00  0.00    -0.109 N
HETATM   20  O7  UNL     1      24.996 -16.288  14.734  1.00  0.00    -0.532 OA
HETATM   21  O8  UNL     1      22.989 -17.366  14.405  1.00  0.00    -0.532 OA
ENDBRANCH   7  19
BRANCH   4  22
HETATM   22  S1  UNL     1      25.553 -17.149   8.262  1.00  0.00     0.272 S
HETATM   23  O1  UNL     1      24.403 -16.647   7.433  1.00  0.00    -0.199 OA
HETATM   24  O2  UNL     1      26.748 -16.324   7.959  1.00  0.00    -0.199 OA
BRANCH  22  25
HETATM   25  N5  UNL     1      25.839 -18.787   7.789  1.00  0.00    -0.323 N
ATOM     26  H52 UNL     1      26.014 -19.082   6.828  1.00  0.00     0.169 HD
ATOM     27  H51 UNL     1      25.806 -19.400   8.603  1.00  0.00     0.169 HD
ENDBRANCH  22  25
ENDBRANCH   4  22
BRANCH   6  28
HETATM   28  O3  UNL     1      23.974 -14.614  12.384  1.00  0.00    -0.211 OA
BRANCH  28  29
HETATM   29  S2  UNL     1      22.662 -13.698  11.881  1.00  0.00     0.257 S
HETATM   30  O4  UNL     1      21.932 -14.325  10.714  1.00  0.00    -0.572 OA
HETATM   31  O5  UNL     1      23.064 -12.287  11.509  1.00  0.00    -0.572 OA
HETATM   32  O6  UNL     1      21.560 -13.613  13.170  1.00  0.00    -0.572 OA
ENDBRANCH  28  29
ENDBRANCH   6  28
TORSDOF 6
ENDMDL