MODEL 5
REMARK VINA RESULT: -2.704560268      2.197      6.496
REMARK  5 active torsions:
REMARK  status: ('A' for Active; 'I' for Inactive)
REMARK    1  A    between atoms: N1_2  and  C3_4
REMARK    2  A    between atoms: C3_4  and  C4_5
REMARK    3  A    between atoms: C5_9  and  N4_10
REMARK    4  A    between atoms: C6_11  and  N5_12
REMARK    5  A    between atoms: C9_19  and  N7_20
REMARK       I    between atoms: N7_20  and  C10_22
REMARK       I    between atoms: C10_22  and  N8_23
REMARK       I    between atoms: C10_22  and  N9_27
ROOT
HETATM    1  N4  UNL     1      24.859 -18.073  11.787  1.00  0.00    -0.102 N
HETATM    2  C6  UNL     1      25.421 -19.154  11.223  1.00  0.00     0.688 A
HETATM    3  N6  UNL     1      25.481 -18.895   9.905  1.00  0.00    -0.174 N
ATOM      4  H6  UNL     1      25.862 -19.532   9.206  1.00  0.00     0.186 HD
HETATM    5  C7  UNL     1      24.971 -17.684   9.632  1.00  0.00     0.159 A
HETATM    6  C8  UNL     1      24.566 -17.138  10.830  1.00  0.00     0.149 A
HETATM    7  C9  UNL     1      23.994 -15.885  10.887  1.00  0.00     0.140 A
HETATM    8  N10 UNL     1      23.841 -15.208   9.747  1.00  0.00    -0.292 N
ATOM      9  H10 UNL     1      23.420 -14.280   9.770  1.00  0.00     0.172 HD
HETATM   10  C11 UNL     1      24.240 -15.737   8.549  1.00  0.00     0.329 A
HETATM   11  O1  UNL     1      24.091 -15.088   7.471  1.00  0.00    -0.246 OA
HETATM   12  N11 UNL     1      24.795 -16.956   8.504  1.00  0.00    -0.287 N
HETATM   13  C12 UNL     1      25.225 -17.528   7.245  1.00  0.00     0.163 C
ENDROOT
BRANCH   7  14
HETATM   14  N7  UNL     1      23.635 -15.403  11.986  1.00  0.00    -0.325 N
HETATM   15  C10 UNL     1      23.033 -14.161  12.320  1.00  0.00     0.481 C
HETATM   16  N8  UNL     1      21.687 -14.009  11.813  1.00  0.00    -0.033 N
HETATM   17  N9  UNL     1      23.804 -13.028  11.874  1.00  0.00    -0.033 N
ATOM     18  H83 UNL     1      21.664 -14.160  10.805  1.00  0.00     0.278 HD
ATOM     19  H82 UNL     1      21.099 -14.786  12.115  1.00  0.00     0.278 HD
ATOM     20  H81 UNL     1      21.254 -13.117  12.053  1.00  0.00     0.278 HD
ATOM     21  H93 UNL     1      24.761 -13.077  12.225  1.00  0.00     0.278 HD
ATOM     22  H92 UNL     1      23.992 -13.085  10.873  1.00  0.00     0.278 HD
ATOM     23  H91 UNL     1      23.372 -12.137  12.114  1.00  0.00     0.278 HD
ATOM     24  H7  UNL     1      23.805 -16.014  12.785  1.00  0.00     0.165 HD
ENDBRANCH   7  14
BRANCH   1  25
HETATM   25  C5  UNL     1      24.576 -17.862  13.177  1.00  0.00     0.259 C
HETATM   26  N3  UNL     1      24.292 -16.710  13.681  1.00  0.00    -0.266 N
HETATM   27  N2  UNL     1      24.067 -16.838  15.061  1.00  0.00    -0.103 NA
ATOM     28  H3  UNL     1      24.238 -15.838  13.156  1.00  0.00     0.186 HD
HETATM   29  C4  UNL     1      24.689 -18.086  15.448  1.00  0.00     0.273 C
HETATM   30  O2  UNL     1      24.552 -18.810  14.213  1.00  0.00    -0.295 OA
BRANCH  29  31
HETATM   31  C3  UNL     1      26.168 -17.918  15.665  1.00  0.00     0.322 C
BRANCH  31  32
HETATM   32  N1  UNL     1      26.898 -19.166  15.526  1.00  0.00     0.083 N
HETATM   33  C1  UNL     1      27.381 -19.679  16.790  1.00  0.00     0.309 C
HETATM   34  C2  UNL     1      28.078 -18.840  14.711  1.00  0.00     0.309 C
ENDBRANCH  31  32
ENDBRANCH  29  31
ENDBRANCH   1  25
BRANCH   2  35
HETATM   35  N5  UNL     1      25.829 -20.232  11.832  1.00  0.00    -0.234 N
ATOM     36  H52 UNL     1      26.756 -20.653  11.784  1.00  0.00     0.174 HD
ATOM     37  H51 UNL     1      25.283 -20.825  12.457  1.00  0.00     0.174 HD
ENDBRANCH   2  35
TORSDOF 5
ENDMDL