MODEL 5
REMARK VINA RESULT: -4.364274132      2.199      6.781
REMARK  6 active torsions:
REMARK  status: ('A' for Active; 'I' for Inactive)
REMARK    1  A    between atoms: N1_1  and  C1_4
REMARK    2  A    between atoms: C2_7  and  N3_8
REMARK    3  A    between atoms: C4_13  and  N5_14
REMARK    4  A    between atoms: C6_20  and  C7_21
REMARK    5  A    between atoms: C7_21  and  C8_22
REMARK    6  A    between atoms: C8_22  and  C9_23
ROOT
HETATM    1  N3  UNL     1      24.799 -17.555  11.254  1.00  0.00    -0.079 N
HETATM    2  C3  UNL     1      23.500 -17.616  11.632  1.00  0.00     0.348 C
HETATM    3  O1  UNL     1      22.655 -17.680  10.687  1.00  0.00    -0.245 OA
HETATM    4  N4  UNL     1      22.957 -17.620  12.867  1.00  0.00    -0.289 N
ATOM      5  H4  UNL     1      21.986 -17.922  12.949  1.00  0.00     0.172 HD
HETATM    6  C4  UNL     1      23.586 -17.261  13.996  1.00  0.00     0.173 C
HETATM    7  C5  UNL     1      24.954 -17.067  14.216  1.00  0.00     0.310 C
HETATM    8  O2  UNL     1      25.314 -16.477  15.241  1.00  0.00    -0.263 OA
HETATM    9  N6  UNL     1      25.942 -17.462  13.414  1.00  0.00    -0.109 N
HETATM   10  C6  UNL     1      27.204 -17.709  13.867  1.00  0.00     0.054 A
HETATM   11  C10 UNL     1      27.880 -18.095  12.698  1.00  0.00     0.132 A
HETATM   12  N8  UNL     1      27.086 -18.078  11.642  1.00  0.00    -0.199 N
ATOM     13  H8  UNL     1      27.345 -18.318  10.685  1.00  0.00     0.183 HD
HETATM   14  C11 UNL     1      25.880 -17.688  12.067  1.00  0.00     0.704 A
ENDROOT
BRANCH   1  15
HETATM   15  C2  UNL     1      25.076 -17.334   9.888  1.00  0.00     0.152 A
HETATM   16  N2  UNL     1      25.509 -18.345   9.116  1.00  0.00    -0.176 N
HETATM   17  C1  UNL     1      25.795 -18.238   7.827  1.00  0.00     0.678 A
ATOM     18  H2  UNL     1      25.627 -19.260   9.553  1.00  0.00     0.186 HD
HETATM   19  N10 UNL     1      25.646 -17.040   7.234  1.00  0.00    -0.179 N
HETATM   20  C13 UNL     1      25.211 -15.982   7.964  1.00  0.00     0.135 A
ATOM     21  H10 UNL     1      25.859 -16.927   6.243  1.00  0.00     0.185 HD
HETATM   22  C12 UNL     1      24.911 -16.093   9.313  1.00  0.00     0.096 A
HETATM   23  N9  UNL     1      25.061 -14.727   7.315  1.00  0.00    -0.082 NA
BRANCH  17  24
HETATM   24  N1  UNL     1      26.214 -19.233   7.099  1.00  0.00    -0.234 N
ATOM     25  H12 UNL     1      26.361 -20.133   7.556  1.00  0.00     0.174 HD
ATOM     26  H11 UNL     1      26.401 -19.158   6.099  1.00  0.00     0.174 HD
ENDBRANCH  17  24
ENDBRANCH   1  15
BRANCH   6  27
HETATM   27  N5  UNL     1      22.887 -17.052  15.059  1.00  0.00    -0.381 N
ATOM     28  H52 UNL     1      23.057 -17.756  15.777  1.00  0.00     0.157 HD
ATOM     29  H51 UNL     1      22.261 -16.248  15.087  1.00  0.00     0.157 HD
ENDBRANCH   6  27
BRANCH  10  30
HETATM   30  C7  UNL     1      27.732 -17.568  15.233  1.00  0.00     0.069 C
BRANCH  30  31
HETATM   31  C8  UNL     1      28.561 -18.694  15.740  1.00  0.00     0.105 C
BRANCH  31  32
HETATM   32  C9  UNL     1      29.976 -18.708  15.359  1.00  0.00     0.231 C
HETATM   33  N7  UNL     1      30.623 -19.997  15.328  1.00  0.00    -0.062 NA
HETATM   34  O3  UNL     1      30.662 -17.731  15.067  1.00  0.00    -0.277 OA
ENDBRANCH  31  32
ENDBRANCH  30  31
ENDBRANCH  10  30
TORSDOF 6
ENDMDL