MODEL 5
REMARK VINA RESULT: -6.109839663      2.334      4.463
REMARK  3 active torsions:
REMARK  status: ('A' for Active; 'I' for Inactive)
REMARK    1  A    between atoms: C2_3  and  C3_4
REMARK    2  A    between atoms: C3_4  and  N2_5
REMARK    3  A    between atoms: C3_4  and  N3_9
ROOT
HETATM    1  N1  UNL     1     -16.555  58.646  11.035  1.00  0.00    -0.094 NA
HETATM    2  C1  UNL     1     -15.412  58.966  10.268  1.00  0.00     0.140 A
HETATM    3  C2  UNL     1     -14.191  58.986  10.905  1.00  0.00     0.101 A
HETATM    4  N4  UNL     1     -13.106  59.290  10.172  1.00  0.00    -0.307 N
ATOM      5  H4  UNL     1     -12.194  59.308  10.627  1.00  0.00     0.170 HD
HETATM    6  C4  UNL     1     -13.180  59.571   8.860  1.00  0.00     0.327 A
HETATM    7  O1  UNL     1     -12.145  59.852   8.196  1.00  0.00    -0.247 OA
HETATM    8  N5  UNL     1     -14.344  59.556   8.228  1.00  0.00    -0.274 N
ATOM      9  H5  UNL     1     -14.397  59.768   7.231  1.00  0.00     0.173 HD
HETATM   10  C5  UNL     1     -15.453  59.257   8.924  1.00  0.00     0.275 A
HETATM   11  O2  UNL     1     -16.591  59.231   8.361  1.00  0.00    -0.266 OA
ENDROOT
BRANCH   3  12
HETATM   12  C3  UNL     1     -14.056  58.687  12.340  1.00  0.00     0.429 C
BRANCH  12  13
HETATM   13  N2  UNL     1     -14.405  57.301  12.648  1.00  0.00    -0.045 N
ATOM     14  H23 UNL     1     -15.165  57.253  13.327  1.00  0.00     0.277 HD
ATOM     15  H22 UNL     1     -14.866  56.852  11.858  1.00  0.00     0.277 HD
ATOM     16  H21 UNL     1     -13.598  56.761  12.960  1.00  0.00     0.277 HD
ENDBRANCH  12  13
BRANCH  12  17
HETATM   17  N3  UNL     1     -14.830  59.599  13.154  1.00  0.00    -0.045 N
ATOM     18  H33 UNL     1     -15.399  60.220  12.578  1.00  0.00     0.277 HD
ATOM     19  H32 UNL     1     -15.576  59.113  13.650  1.00  0.00     0.277 HD
ATOM     20  H31 UNL     1     -14.239  60.127  13.797  1.00  0.00     0.277 HD
ENDBRANCH  12  17
ENDBRANCH   3  12
TORSDOF 3
ENDMDL