MODEL 1
REMARK VINA RESULT: -6.506816922      0.000      0.000
REMARK  3 active torsions:
REMARK  status: ('A' for Active; 'I' for Inactive)
REMARK    1  A    between atoms: C3_9  and  N4_10
REMARK    2  A    between atoms: N4_10  and  O2_12
REMARK    3  A    between atoms: O2_12  and  C4_13
ROOT
HETATM    1  C1  UNL     1     -16.139  58.442   9.987  1.00  0.00     0.180 C
HETATM    2  N1  UNL     1     -15.044  58.808  10.863  1.00  0.00    -0.133 N
HETATM    3  C2  UNL     1     -14.936  58.710  12.199  1.00  0.00     0.355 A
HETATM    4  O1  UNL     1     -15.829  58.252  12.941  1.00  0.00    -0.244 OA
HETATM    5  N2  UNL     1     -13.728  59.176  12.593  1.00  0.00    -0.236 N
ATOM      6  H2  UNL     1     -13.369  59.224  13.546  1.00  0.00     0.192 HD
HETATM    7  N3  UNL     1     -13.111  59.556  11.495  1.00  0.00    -0.126 N
ATOM      8  H3  UNL     1     -12.173  59.955  11.461  1.00  0.00     0.206 HD
HETATM    9  C3  UNL     1     -13.890  59.343  10.426  1.00  0.00     0.723 A
ENDROOT
BRANCH   9  10
HETATM   10  N4  UNL     1     -13.573  59.608   9.221  1.00  0.00    -0.086 N
ATOM     11  H4  UNL     1     -14.327  59.667   8.538  1.00  0.00     0.214 HD
BRANCH  10  12
HETATM   12  O2  UNL     1     -12.305  59.820   8.775  1.00  0.00    -0.190 OA
BRANCH  12  13
HETATM   13  C4  UNL     1     -11.697  58.921   7.897  1.00  0.00     0.250 C
HETATM   14  N5  UNL     1     -10.488  58.573   8.188  1.00  0.00    -0.366 N
ATOM     15  H52 UNL     1      -9.998  58.929   9.009  1.00  0.00     0.159 HD
ATOM     16  H51 UNL     1     -10.043  57.916   7.547  1.00  0.00     0.159 HD
HETATM   17  N6  UNL     1     -12.376  58.427   6.757  1.00  0.00    -0.055 NA
ENDBRANCH  12  13
ENDBRANCH  10  12
ENDBRANCH   9  10
TORSDOF 3
ENDMDL