MODEL 4
REMARK VINA RESULT: -6.858908432      2.444      2.886
REMARK  2 active torsions:
REMARK  status: ('A' for Active; 'I' for Inactive)
REMARK    1  A    between atoms: N1_1  and  N2_4
REMARK    2  A    between atoms: N2_4  and  N3_6
ROOT
HETATM    1  N3  UNL     1     -15.626  59.455  10.313  1.00  0.00    -0.171 N
HETATM    2  C1  UNL     1     -14.309  59.355  10.012  1.00  0.00     0.350 A
HETATM    3  O1  UNL     1     -13.386  59.814  10.721  1.00  0.00    -0.244 OA
HETATM    4  N4  UNL     1     -14.114  58.710   8.873  1.00  0.00    -0.290 N
ATOM      5  H4  UNL     1     -13.211  58.513   8.442  1.00  0.00     0.172 HD
HETATM    6  C2  UNL     1     -15.319  58.360   8.383  1.00  0.00     0.159 A
HETATM    7  N5  UNL     1     -15.727  57.707   7.269  1.00  0.00    -0.305 N
ATOM      8  H5  UNL     1     -15.045  57.357   6.596  1.00  0.00     0.170 HD
HETATM    9  C3  UNL     1     -17.035  57.527   7.065  1.00  0.00     0.262 A
HETATM   10  O2  UNL     1     -17.419  56.932   6.040  1.00  0.00    -0.267 OA
HETATM   11  C4  UNL     1     -17.999  57.985   7.964  1.00  0.00     0.164 A
HETATM   12  N6  UNL     1     -17.566  58.627   9.055  1.00  0.00    -0.342 N
ATOM     13  H6  UNL     1     -18.253  58.973   9.726  1.00  0.00     0.167 HD
HETATM   14  C5  UNL     1     -16.268  58.834   9.301  1.00  0.00     0.178 A
ENDROOT
BRANCH   1  15
HETATM   15  N2  UNL     1     -16.180  60.080  11.429  1.00  0.00    -0.237 N
ATOM     16  H2  UNL     1     -15.941  61.058  11.597  1.00  0.00     0.208 HD
BRANCH  15  17
HETATM   17  N1  UNL     1     -17.037  59.460  12.326  1.00  0.00    -0.330 N
ATOM     18  H12 UNL     1     -16.699  59.345  13.281  1.00  0.00     0.178 HD
ATOM     19  H11 UNL     1     -17.968  59.119  12.087  1.00  0.00     0.178 HD
ENDBRANCH  15  17
ENDBRANCH   1  15
TORSDOF 2
ENDMDL