MODEL 2
REMARK VINA RESULT: -6.722929820      1.872      4.847
REMARK  3 active torsions:
REMARK  status: ('A' for Active; 'I' for Inactive)
REMARK    1  A    between atoms: N1_1  and  C1_4
REMARK    2  A    between atoms: C2_9  and  C3_10
REMARK       I    between atoms: C3_10  and  N4_12
REMARK    3  A    between atoms: N4_12  and  N5_14
ROOT
HETATM    1  C1  UNL     1     -16.270  59.187  11.171  1.00  0.00     0.693 A
HETATM    2  N2  UNL     1     -16.628  58.939   9.898  1.00  0.00    -0.132 N
ATOM      3  H2  UNL     1     -17.600  58.709   9.692  1.00  0.00     0.205 HD
HETATM    4  N3  UNL     1     -15.745  58.987   8.895  1.00  0.00    -0.277 N
ATOM      5  H3  UNL     1     -16.061  58.793   7.946  1.00  0.00     0.188 HD
HETATM    6  C2  UNL     1     -14.449  59.285   9.107  1.00  0.00     0.187 A
HETATM    7  C4  UNL     1     -14.078  59.540  10.410  1.00  0.00     0.293 A
HETATM    8  O2  UNL     1     -12.884  59.818  10.626  1.00  0.00    -0.265 OA
HETATM    9  N6  UNL     1     -14.984  59.488  11.419  1.00  0.00    -0.153 N
ATOM     10  H6  UNL     1     -14.686  59.680  12.375  1.00  0.00     0.187 HD
ENDROOT
BRANCH   6  11
HETATM   11  C3  UNL     1     -13.484  59.337   8.004  1.00  0.00     0.293 C
HETATM   12  O1  UNL     1     -13.554  60.236   7.153  1.00  0.00    -0.264 OA
HETATM   13  N4  UNL     1     -12.451  58.378   7.874  1.00  0.00    -0.271 N
ATOM     14  H4  UNL     1     -12.379  57.632   8.566  1.00  0.00     0.189 HD
BRANCH  13  15
HETATM   15  N5  UNL     1     -11.545  58.419   6.848  1.00  0.00    -0.342 N
ATOM     16  H52 UNL     1     -11.739  59.041   6.064  1.00  0.00     0.176 HD
ATOM     17  H51 UNL     1     -10.696  57.852   6.851  1.00  0.00     0.176 HD
ENDBRANCH  13  15
ENDBRANCH   6  11
BRANCH   1  18
HETATM   18  N1  UNL     1     -17.144  59.135  12.130  1.00  0.00    -0.233 N
ATOM     19  H12 UNL     1     -18.122  58.916  11.941  1.00  0.00     0.174 HD
ATOM     20  H11 UNL     1     -16.870  59.314  13.096  1.00  0.00     0.174 HD
ENDBRANCH   1  18
TORSDOF 3
ENDMDL