MODEL 2
REMARK VINA RESULT: -7.136057600      2.662      4.731
REMARK  3 active torsions:
REMARK  status: ('A' for Active; 'I' for Inactive)
REMARK    1  A    between atoms: C2_3  and  N2_4
REMARK    2  A    between atoms: N2_4  and  N3_6
REMARK    3  A    between atoms: C3_11  and  N5_12
ROOT
HETATM    1  C1  UNL     1     -15.856  59.066   9.242  1.00  0.00     0.179 C
HETATM    2  N1  UNL     1     -14.582  59.095   8.540  1.00  0.00    -0.145 N
HETATM    3  C2  UNL     1     -13.526  59.424   9.298  1.00  0.00     0.715 C
HETATM    4  N4  UNL     1     -12.218  59.260   8.981  1.00  0.00    -0.021 N
ATOM      5  H4  UNL     1     -11.561  59.520   9.715  1.00  0.00     0.203 HD
HETATM    6  C3  UNL     1     -11.653  58.807   7.850  1.00  0.00     0.693 C
HETATM    7  N6  UNL     1     -12.247  58.599   6.660  1.00  0.00    -0.151 N
ATOM      8  H6  UNL     1     -11.626  58.421   5.871  1.00  0.00     0.188 HD
HETATM    9  C4  UNL     1     -13.583  58.597   6.386  1.00  0.00     0.328 C
HETATM   10  O1  UNL     1     -13.886  58.394   5.184  1.00  0.00    -0.261 OA
HETATM   11  C5  UNL     1     -14.657  58.785   7.227  1.00  0.00     0.330 C
HETATM   12  O2  UNL     1     -15.798  58.652   6.717  1.00  0.00    -0.261 OA
ENDROOT
BRANCH   3  13
HETATM   13  N2  UNL     1     -13.796  59.958  10.459  1.00  0.00    -0.138 N
ATOM     14  H2  UNL     1     -14.500  60.693  10.537  1.00  0.00     0.205 HD
BRANCH  13  15
HETATM   15  N3  UNL     1     -13.111  59.512  11.593  1.00  0.00    -0.331 N
ATOM     16  H32 UNL     1     -12.164  59.845  11.769  1.00  0.00     0.177 HD
ATOM     17  H31 UNL     1     -13.569  58.859  12.228  1.00  0.00     0.177 HD
ENDBRANCH  13  15
ENDBRANCH   3  13
BRANCH   6  18
HETATM   18  N5  UNL     1     -10.396  58.547   7.929  1.00  0.00    -0.234 N
ATOM     19  H52 UNL     1      -9.802  58.903   7.180  1.00  0.00     0.174 HD
ATOM     20  H51 UNL     1     -10.114  58.004   8.744  1.00  0.00     0.174 HD
ENDBRANCH   6  18
TORSDOF 3
ENDMDL