MODEL 3
REMARK VINA RESULT: -7.151201805      2.051      5.811
REMARK  3 active torsions:
REMARK  status: ('A' for Active; 'I' for Inactive)
REMARK       I    between atoms: N1_2  and  C2_4
REMARK       I    between atoms: C2_4  and  N2_6
REMARK    1  A    between atoms: N2_6  and  N3_8
REMARK    2  A    between atoms: N3_8  and  C3_10
REMARK    3  A    between atoms: C4_19  and  N8_20
ROOT
HETATM    1  C3  UNL     1     -13.444  58.801   7.480  1.00  0.00     0.182 A
HETATM    2  N4  UNL     1     -12.414  58.880   8.416  1.00  0.00    -0.266 N
ATOM      3  H4  UNL     1     -12.646  59.042   9.396  1.00  0.00     0.190 HD
HETATM    4  N5  UNL     1     -11.162  58.752   8.072  1.00  0.00    -0.226 N
ATOM      5  H5  UNL     1     -10.441  58.817   8.791  1.00  0.00     0.210 HD
HETATM    6  N6  UNL     1     -10.801  58.541   6.817  1.00  0.00    -0.227 N
ATOM      7  H6  UNL     1      -9.813  58.444   6.584  1.00  0.00     0.210 HD
HETATM    8  N7  UNL     1     -11.693  58.455   5.884  1.00  0.00    -0.267 N
ATOM      9  H7  UNL     1     -11.405  58.292   4.919  1.00  0.00     0.190 HD
HETATM   10  C4  UNL     1     -13.029  58.582   6.187  1.00  0.00     0.162 A
ENDROOT
BRANCH   1  11
HETATM   11  N3  UNL     1     -14.610  58.938   7.917  1.00  0.00    -0.277 N
ATOM     12  H3  UNL     1     -15.289  58.394   7.384  1.00  0.00     0.189 HD
BRANCH  11  13
HETATM   13  N2  UNL     1     -15.180  59.623   8.908  1.00  0.00    -0.250 N
HETATM   14  C2  UNL     1     -15.771  59.046  10.076  1.00  0.00     0.334 C
HETATM   15  N1  UNL     1     -16.369  59.783  11.117  1.00  0.00    -0.346 N
HETATM   16  O1  UNL     1     -15.755  57.778  10.186  1.00  0.00    -0.246 OA
HETATM   17  C1  UNL     1     -16.951  59.157  12.276  1.00  0.00     0.151 C
ATOM     18  H1  UNL     1     -16.391  60.801  11.047  1.00  0.00     0.163 HD
ATOM     19  H2  UNL     1     -15.197  60.640   8.827  1.00  0.00     0.192 HD
ENDBRANCH  11  13
ENDBRANCH   1  11
BRANCH  10  20
HETATM   20  N8  UNL     1     -13.834  58.482   5.200  1.00  0.00    -0.381 N
ATOM     21  H82 UNL     1     -14.723  58.970   5.304  1.00  0.00     0.157 HD
ATOM     22  H81 UNL     1     -13.620  57.954   4.354  1.00  0.00     0.157 HD
ENDBRANCH  10  20
TORSDOF 3
ENDMDL