MODEL 1
REMARK VINA RESULT: -6.884425449      0.000      0.000
REMARK  4 active torsions:
REMARK  status: ('A' for Active; 'I' for Inactive)
REMARK    1  A    between atoms: N1_1  and  N2_4
REMARK       I    between atoms: N2_4  and  C1_6
REMARK       I    between atoms: C1_6  and  N3_8
REMARK    2  A    between atoms: N3_8  and  N4_10
REMARK    3  A    between atoms: N4_10  and  C2_12
REMARK    4  A    between atoms: N7_18  and  N8_19
ROOT
HETATM    1  N4  UNL     1     -13.201  59.102   9.856  1.00  0.00    -0.125 N
ATOM      2  H4  UNL     1     -12.747  58.276  10.244  1.00  0.00     0.206 HD
ENDROOT
BRANCH   1   3
HETATM    3  N3  UNL     1     -14.124  59.831  10.611  1.00  0.00    -0.236 N
HETATM    4  C1  UNL     1     -15.290  59.202  11.116  1.00  0.00     0.353 C
HETATM    5  N2  UNL     1     -16.213  59.962  11.882  1.00  0.00    -0.257 N
HETATM    6  O1  UNL     1     -15.458  57.984  10.862  1.00  0.00    -0.244 OA
ATOM      7  H2  UNL     1     -16.015  60.948  12.052  1.00  0.00     0.191 HD
ATOM      8  H3  UNL     1     -13.957  60.820  10.801  1.00  0.00     0.192 HD
BRANCH   5   9
HETATM    9  N1  UNL     1     -17.378  59.413  12.411  1.00  0.00    -0.341 N
ATOM     10  H12 UNL     1     -17.983  58.888  11.779  1.00  0.00     0.177 HD
ATOM     11  H11 UNL     1     -17.639  59.519  13.392  1.00  0.00     0.177 HD
ENDBRANCH   5   9
ENDBRANCH   1   3
BRANCH   1  12
HETATM   12  C2  UNL     1     -12.940  59.496   8.663  1.00  0.00     0.733 A
HETATM   13  N5  UNL     1     -13.747  60.205   7.859  1.00  0.00    -0.128 N
HETATM   14  N6  UNL     1     -13.138  60.435   6.684  1.00  0.00    -0.279 N
ATOM     15  H5  UNL     1     -14.685  60.522   8.104  1.00  0.00     0.205 HD
HETATM   16  C3  UNL     1     -11.938  59.861   6.763  1.00  0.00     0.241 A
ATOM     17  H6  UNL     1     -13.520  60.948   5.890  1.00  0.00     0.188 HD
HETATM   18  N7  UNL     1     -11.805  59.282   7.973  1.00  0.00    -0.085 N
BRANCH  18  19
HETATM   19  N8  UNL     1     -10.667  58.571   8.433  1.00  0.00    -0.323 N
ATOM     20  H82 UNL     1     -10.283  57.723   8.017  1.00  0.00     0.178 HD
ATOM     21  H81 UNL     1     -10.089  58.817   9.238  1.00  0.00     0.178 HD
ENDBRANCH  18  19
ENDBRANCH   1  12
TORSDOF 4
ENDMDL