MODEL 1
REMARK VINA RESULT: -7.302685144      0.000      0.000
REMARK  3 active torsions:
REMARK  status: ('A' for Active; 'I' for Inactive)
REMARK    1  A    between atoms: N1_1  and  C1_4
REMARK    2  A    between atoms: C3_10  and  N4_11
REMARK    3  A    between atoms: N4_11  and  N5_13
ROOT
HETATM    1  C1  UNL     1     -12.852  58.606   7.729  1.00  0.00     0.706 A
HETATM    2  N2  UNL     1     -12.945  59.234   8.914  1.00  0.00    -0.019 N
ATOM      3  H2  UNL     1     -12.162  59.670   9.401  1.00  0.00     0.203 HD
HETATM    4  C2  UNL     1     -14.218  59.211   9.373  1.00  0.00     0.737 A
HETATM    5  N3  UNL     1     -14.806  59.700  10.498  1.00  0.00    -0.018 N
ATOM      6  H3  UNL     1     -14.241  60.199  11.186  1.00  0.00     0.203 HD
HETATM    7  C3  UNL     1     -16.122  59.533  10.712  1.00  0.00     0.715 A
HETATM    8  N6  UNL     1     -16.829  58.867   9.777  1.00  0.00    -0.137 N
ATOM      9  H6  UNL     1     -17.830  58.724   9.912  1.00  0.00     0.189 HD
HETATM   10  C4  UNL     1     -16.237  58.391   8.675  1.00  0.00     0.375 A
HETATM   11  O1  UNL     1     -16.921  57.778   7.827  1.00  0.00    -0.244 OA
HETATM   12  N7  UNL     1     -14.925  58.550   8.447  1.00  0.00    -0.015 N
HETATM   13  N8  UNL     1     -14.100  58.187   7.458  1.00  0.00    -0.106 N
ATOM     14  H8  UNL     1     -14.377  57.669   6.623  1.00  0.00     0.207 HD
ENDROOT
BRANCH   7  15
HETATM   15  N4  UNL     1     -16.699  59.998  11.788  1.00  0.00    -0.138 N
ATOM     16  H4  UNL     1     -16.592  60.975  12.060  1.00  0.00     0.205 HD
BRANCH  15  17
HETATM   17  N5  UNL     1     -17.468  59.118  12.555  1.00  0.00    -0.331 N
ATOM     18  H52 UNL     1     -17.293  58.114  12.509  1.00  0.00     0.177 HD
ATOM     19  H51 UNL     1     -18.196  59.510  13.151  1.00  0.00     0.177 HD
ENDBRANCH  15  17
ENDBRANCH   7  15
BRANCH   1  20
HETATM   20  N1  UNL     1     -11.825  58.412   6.971  1.00  0.00    -0.233 N
ATOM     21  H12 UNL     1     -11.338  57.522   6.861  1.00  0.00     0.174 HD
ATOM     22  H11 UNL     1     -11.322  59.064   6.370  1.00  0.00     0.174 HD
ENDBRANCH   1  20
TORSDOF 3
ENDMDL