MODEL 3
REMARK VINA RESULT: -6.734870930      2.561      3.895
REMARK  3 active torsions:
REMARK  status: ('A' for Active; 'I' for Inactive)
REMARK    1  A    between atoms: O1_2  and  N1_3
REMARK    2  A    between atoms: C4_14  and  N5_15
REMARK    3  A    between atoms: C5_18  and  N6_19
ROOT
HETATM    1  N1  UNL     1     -14.243  59.132   8.417  1.00  0.00    -0.150 N
HETATM    2  C2  UNL     1     -13.998  59.500   9.689  1.00  0.00     0.366 C
HETATM    3  O2  UNL     1     -12.792  59.780   9.917  1.00  0.00    -0.244 OA
HETATM    4  N2  UNL     1     -14.856  59.611  10.745  1.00  0.00    -0.139 N
ATOM      5  H2  UNL     1     -14.426  59.818  11.646  1.00  0.00     0.189 HD
HETATM    6  C3  UNL     1     -16.205  59.482  10.753  1.00  0.00     0.681 C
HETATM    7  N3  UNL     1     -16.751  59.924  11.821  1.00  0.00    -0.234 N
ATOM      8  H31 UNL     1     -17.767  59.827  11.827  1.00  0.00     0.174 HD
ATOM      9  H32 UNL     1     -16.142  60.317  12.537  1.00  0.00     0.174 HD
HETATM   10  N4  UNL     1     -17.010  58.962   9.807  1.00  0.00    -0.173 N
ATOM     11  H4  UNL     1     -18.007  58.922  10.019  1.00  0.00     0.186 HD
HETATM   12  C4  UNL     1     -16.626  58.492   8.608  1.00  0.00     0.161 C
HETATM   13  C5  UNL     1     -15.411  58.661   7.943  1.00  0.00     0.176 C
ENDROOT
BRANCH  12  14
HETATM   14  N5  UNL     1     -17.484  57.789   7.983  1.00  0.00    -0.382 N
ATOM     15  H52 UNL     1     -17.786  56.947   8.473  1.00  0.00     0.157 HD
ATOM     16  H51 UNL     1     -17.771  58.143   7.070  1.00  0.00     0.157 HD
ENDBRANCH  12  14
BRANCH   1  17
HETATM   17  O1  UNL     1     -13.180  59.262   7.555  1.00  0.00    -0.273 OA
HETATM   18  C1  UNL     1     -12.964  60.393   6.746  1.00  0.00     0.238 C
ENDBRANCH   1  17
BRANCH  13  19
HETATM   19  N6  UNL     1     -15.384  58.324   6.693  1.00  0.00    -0.380 N
ATOM     20  H62 UNL     1     -16.242  58.471   6.162  1.00  0.00     0.157 HD
ATOM     21  H61 UNL     1     -14.490  57.944   6.380  1.00  0.00     0.157 HD
ENDBRANCH  13  19
TORSDOF 3
ENDMDL