MODEL 2
REMARK VINA RESULT: -5.857574927      1.082      1.323
REMARK  4 active torsions:
REMARK  status: ('A' for Active; 'I' for Inactive)
REMARK    1  A    between atoms: O1_2  and  C2_3
REMARK       I    between atoms: C2_3  and  N1_5
REMARK    2  A    between atoms: N1_5  and  C3_7
REMARK    3  A    between atoms: C3_7  and  N2_8
REMARK    4  A    between atoms: N5_15  and  N6_16
ROOT
HETATM    1  C3  UNL     1     -15.716  59.124  11.252  1.00  0.00     0.305 C
HETATM    2  C4  UNL     1     -15.541  57.749  11.832  1.00  0.00     0.214 C
HETATM    3  N3  UNL     1     -14.997  58.073  13.157  1.00  0.00    -0.124 NA
HETATM    4  N4  UNL     1     -15.360  59.371  13.438  1.00  0.00    -0.033 NA
HETATM    5  N5  UNL     1     -16.205  59.828  12.444  1.00  0.00    -0.075 NA
ENDROOT
BRANCH   1   6
HETATM    6  N1  UNL     1     -14.519  59.719  10.745  1.00  0.00    -0.288 N
HETATM    7  C2  UNL     1     -14.045  59.402   9.457  1.00  0.00     0.363 C
HETATM    8  O2  UNL     1     -14.650  58.597   8.717  1.00  0.00    -0.238 OA
ATOM      9  H1  UNL     1     -14.002  60.381  11.323  1.00  0.00     0.168 HD
BRANCH   7  10
HETATM   10  O1  UNL     1     -12.887  59.983   8.982  1.00  0.00    -0.309 OA
HETATM   11  C1  UNL     1     -12.011  59.364   8.069  1.00  0.00     0.215 C
ENDBRANCH   7  10
ENDBRANCH   1   6
BRANCH   1  12
HETATM   12  N2  UNL     1     -16.758  59.170  10.244  1.00  0.00    -0.034 N
ATOM     13  H23 UNL     1     -16.650  59.967   9.618  1.00  0.00     0.279 HD
ATOM     14  H22 UNL     1     -16.656  58.424   9.555  1.00  0.00     0.279 HD
ATOM     15  H21 UNL     1     -17.675  59.156  10.690  1.00  0.00     0.279 HD
ENDBRANCH   1  12
BRANCH   5  16
HETATM   16  N6  UNL     1     -17.480  59.282  12.700  1.00  0.00    -0.344 NA
ATOM     17  H62 UNL     1     -18.070  60.044  13.035  1.00  0.00     0.172 HD
ATOM     18  H61 UNL     1     -17.363  58.704  13.533  1.00  0.00     0.172 HD
ENDBRANCH   5  16
TORSDOF 4
ENDMDL