MODEL 4
REMARK VINA RESULT: -7.809610222      4.769     12.622
REMARK  16 active torsions:
REMARK  status: ('A' for Active; 'I' for Inactive)
REMARK    1  A    between atoms: N1_2  and  C2_3
REMARK    2  A    between atoms: N1_2  and  C21_29
REMARK    3  A    between atoms: C2_3  and  C3_4
REMARK    4  A    between atoms: C3_4  and  C4_5
REMARK    5  A    between atoms: C5_6  and  C6_7
REMARK    6  A    between atoms: C9_10  and  C10_11
REMARK    7  A    between atoms: C10_11  and  N2_12
REMARK    8  A    between atoms: C13_15  and  C14_16
REMARK    9  A    between atoms: C14_16  and  N3_17
REMARK   10  A    between atoms: N3_17  and  O1_18
REMARK   11  A    between atoms: O1_18  and  C15_19
REMARK   12  A    between atoms: C15_19  and  C16_20
REMARK   13  A    between atoms: C16_20  and  N4_21
REMARK   14  A    between atoms: C21_29  and  C22_30
REMARK   15  A    between atoms: C25_33  and  C26_34
REMARK   16  A    between atoms: C31_45  and  O2_46
ROOT
HETATM    1  C3  UNL     1      18.083  23.515  15.206  1.00  0.00     0.124 C
ENDROOT
BRANCH   1   2
HETATM    2  C2  UNL     1      18.280  24.533  16.236  1.00  0.00     0.284 C
BRANCH   2   3
HETATM    3  N1  UNL     1      18.725  24.049  17.494  1.00  0.00     0.089 N
HETATM    4  C1  UNL     1      19.951  24.884  17.772  1.00  0.00     0.310 C
BRANCH   3   5
HETATM    5  C21 UNL     1      17.886  24.321  18.638  1.00  0.00     0.310 C
BRANCH   5   6
HETATM    6  C22 UNL     1      16.923  23.185  18.781  1.00  0.00    -0.030 A
HETATM    7  C23 UNL     1      17.324  21.935  19.150  1.00  0.00     0.010 A
HETATM    8  C24 UNL     1      16.357  20.937  19.266  1.00  0.00     0.013 A
HETATM    9  C25 UNL     1      15.019  21.143  19.028  1.00  0.00    -0.023 A
HETATM   10  C32 UNL     1      14.640  22.427  18.654  1.00  0.00     0.013 A
HETATM   11  C33 UNL     1      15.578  23.414  18.536  1.00  0.00     0.010 A
BRANCH   9  12
HETATM   12  C26 UNL     1      14.027  20.084  19.164  1.00  0.00     0.010 A
HETATM   13  C27 UNL     1      13.212  19.798  18.057  1.00  0.00     0.017 A
HETATM   14  C28 UNL     1      12.255  18.809  18.072  1.00  0.00     0.034 A
HETATM   15  C29 UNL     1      12.066  18.056  19.202  1.00  0.00     0.080 A
HETATM   16  N5  UNL     1      11.213  17.042  19.477  1.00  0.00    -0.284 N
HETATM   17  C30 UNL     1      12.847  18.310  20.301  1.00  0.00     0.111 A
HETATM   18  N6  UNL     1      11.469  16.687  20.719  1.00  0.00    -0.242 N
ATOM     19  H5  UNL     1      10.516  16.637  18.852  1.00  0.00     0.188 HD
HETATM   20  N7  UNL     1      12.445  17.430  21.236  1.00  0.00    -0.281 N
ATOM     21  H6  UNL     1      10.985  15.941  21.219  1.00  0.00     0.208 HD
ATOM     22  H7  UNL     1      12.822  17.347  22.180  1.00  0.00     0.188 HD
HETATM   23  C31 UNL     1      13.825  19.321  20.280  1.00  0.00     0.107 A
BRANCH  23  24
HETATM   24  O2  UNL     1      14.578  19.537  21.410  1.00  0.00    -0.357 OA
ATOM     25  H2  UNL     1      14.152  19.705  22.243  1.00  0.00     0.217 HD
ENDBRANCH  23  24
ENDBRANCH   9  12
ENDBRANCH   5   6
ENDBRANCH   3   5
ENDBRANCH   2   3
ENDBRANCH   1   2
BRANCH   1  26
HETATM   26  C4  UNL     1      16.833  22.830  15.130  1.00  0.00    -0.099 C
HETATM   27  C5  UNL     1      15.775  22.270  15.012  1.00  0.00    -0.067 C
BRANCH  27  28
HETATM   28  C6  UNL     1      14.489  21.619  14.840  1.00  0.00     0.017 A
HETATM   29  C7  UNL     1      14.353  20.299  14.484  1.00  0.00     0.021 A
HETATM   30  C8  UNL     1      13.100  19.713  14.366  1.00  0.00     0.010 A
HETATM   31  C9  UNL     1      11.983  20.449  14.604  1.00  0.00    -0.040 A
HETATM   32  C19 UNL     1      12.088  21.777  14.961  1.00  0.00     0.010 A
HETATM   33  C20 UNL     1      13.328  22.361  15.079  1.00  0.00     0.021 A
BRANCH  31  34
HETATM   34  C10 UNL     1      10.600  19.877  14.545  1.00  0.00     0.166 C
BRANCH  34  35
HETATM   35  N2  UNL     1      10.728  18.412  14.368  1.00  0.00    -0.362 N
HETATM   36  C11 UNL     1      10.992  17.887  13.164  1.00  0.00     0.091 A
HETATM   37  C12 UNL     1      11.179  16.527  12.974  1.00  0.00     0.031 A
HETATM   38  C13 UNL     1      11.100  15.663  14.033  1.00  0.00    -0.002 A
HETATM   39  C17 UNL     1      10.825  16.216  15.269  1.00  0.00     0.031 A
HETATM   40  C18 UNL     1      10.642  17.584  15.421  1.00  0.00     0.091 A
BRANCH  38  41
HETATM   41  C14 UNL     1      11.309  14.213  13.867  1.00  0.00     0.229 C
BRANCH  41  42
HETATM   42  N3  UNL     1      11.307  13.456  14.781  1.00  0.00    -0.293 NA
BRANCH  42  43
HETATM   43  O1  UNL     1      11.222  12.568  15.663  1.00  0.00    -0.208 OA
BRANCH  43  44
HETATM   44  C15 UNL     1      10.084  11.840  16.061  1.00  0.00     0.245 C
BRANCH  44  45
HETATM   45  C16 UNL     1       9.303  12.665  17.072  1.00  0.00     0.259 C
BRANCH  45  46
HETATM   46  N4  UNL     1      10.210  13.518  17.787  1.00  0.00    -0.077 N
ATOM     47  H43 UNL     1      11.155  13.487  17.404  1.00  0.00     0.274 HD
ATOM     48  H42 UNL     1      10.022  14.507  17.626  1.00  0.00     0.274 HD
ATOM     49  H41 UNL     1      10.188  13.275  18.777  1.00  0.00     0.274 HD
ENDBRANCH  45  46
ENDBRANCH  44  45
ENDBRANCH  43  44
ENDBRANCH  42  43
ENDBRANCH  41  42
ENDBRANCH  38  41
ENDBRANCH  34  35
ENDBRANCH  31  34
ENDBRANCH  27  28
ENDBRANCH   1  26
TORSDOF 16
ENDMDL