MODEL 4
REMARK VINA RESULT: -10.028078852      2.120      5.149
REMARK  14 active torsions:
REMARK  status: ('A' for Active; 'I' for Inactive)
REMARK    1  A    between atoms: C2_2  and  C3_3
REMARK    2  A    between atoms: C6_6  and  C7_7
REMARK    3  A    between atoms: C7_7  and  N1_8
REMARK    4  A    between atoms: N1_8  and  C8_10
REMARK    5  A    between atoms: C11_19  and  N5_20
REMARK    6  A    between atoms: N5_20  and  C12_22
REMARK    7  A    between atoms: C12_22  and  C13_23
REMARK    8  A    between atoms: C12_22  and  C21_33
REMARK    9  A    between atoms: C14_24  and  C15_25
REMARK   10  A    between atoms: C18_28  and  O1_29
REMARK   11  A    between atoms: N6_37  and  C23_38
REMARK   12  A    between atoms: C23_38  and  C24_39
REMARK   13  A    between atoms: C24_39  and  C25_40
REMARK   14  A    between atoms: N7_44  and  O4_45
ROOT
HETATM    1  C8  UNL     1      16.378  22.114  15.532  1.00  0.00     0.682 A
HETATM    2  N2  UNL     1      16.079  21.754  14.281  1.00  0.00    -0.174 N
ATOM      3  H2  UNL     1      16.568  22.024  13.428  1.00  0.00     0.186 HD
HETATM    4  C9  UNL     1      14.988  20.953  14.382  1.00  0.00     0.153 A
HETATM    5  N3  UNL     1      14.289  20.325  13.421  1.00  0.00    -0.336 N
ATOM      6  H3  UNL     1      14.558  20.419  12.441  1.00  0.00     0.168 HD
HETATM    7  C10 UNL     1      13.242  19.578  13.764  1.00  0.00     0.183 A
HETATM    8  N4  UNL     1      12.866  19.440  15.070  1.00  0.00    -0.337 N
ATOM      9  H4  UNL     1      12.057  18.858  15.288  1.00  0.00     0.168 HD
HETATM   10  C11 UNL     1      13.518  20.040  16.078  1.00  0.00     0.135 A
HETATM   11  C22 UNL     1      14.616  20.821  15.709  1.00  0.00     0.140 A
HETATM   12  N6  UNL     1      15.489  21.547  16.407  1.00  0.00    -0.176 N
ENDROOT
BRANCH  10  13
HETATM   13  N5  UNL     1      13.263  19.962  17.291  1.00  0.00    -0.357 N
ATOM     14  H5  UNL     1      13.422  20.810  17.834  1.00  0.00     0.162 HD
BRANCH  13  15
HETATM   15  C12 UNL     1      12.753  18.789  18.053  1.00  0.00     0.207 C
BRANCH  15  16
HETATM   16  C13 UNL     1      11.307  18.896  18.203  1.00  0.00     0.010 C
HETATM   17  C14 UNL     1      10.341  18.005  17.639  1.00  0.00     0.010 C
BRANCH  17  18
HETATM   18  C15 UNL     1      10.173  16.601  17.790  1.00  0.00    -0.036 A
HETATM   19  C16 UNL     1      10.654  15.741  16.788  1.00  0.00     0.014 A
HETATM   20  C17 UNL     1      10.520  14.377  16.868  1.00  0.00     0.037 A
HETATM   21  C18 UNL     1       9.899  13.806  17.955  1.00  0.00     0.065 A
HETATM   22  C19 UNL     1       9.411  14.615  18.963  1.00  0.00     0.037 A
HETATM   23  C20 UNL     1       9.559  15.967  18.854  1.00  0.00     0.014 A
BRANCH  21  24
HETATM   24  O1  UNL     1       9.739  12.430  18.083  1.00  0.00    -0.361 OA
ATOM     25  H1  UNL     1       9.406  11.889  17.377  1.00  0.00     0.217 HD
ENDBRANCH  21  24
ENDBRANCH  17  18
ENDBRANCH  15  16
BRANCH  15  26
HETATM   26  C21 UNL     1      13.646  18.599  19.201  1.00  0.00     0.200 C
HETATM   27  O2  UNL     1      13.954  19.330  20.138  1.00  0.00    -0.646 OA
HETATM   28  O3  UNL     1      14.305  17.328  19.286  1.00  0.00    -0.646 OA
ENDBRANCH  15  26
ENDBRANCH  13  15
ENDBRANCH  10  13
BRANCH  12  29
HETATM   29  C23 UNL     1      15.522  21.721  17.838  1.00  0.00     0.152 C
BRANCH  29  30
HETATM   30  C24 UNL     1      16.621  20.887  18.451  1.00  0.00     0.061 C
BRANCH  30  31
HETATM   31  C25 UNL     1      17.582  21.647  19.229  1.00  0.00    -0.039 A
HETATM   32  C26 UNL     1      18.816  21.120  19.536  1.00  0.00     0.010 A
HETATM   33  C27 UNL     1      19.750  21.829  20.278  1.00  0.00     0.020 A
HETATM   34  C28 UNL     1      19.397  23.101  20.705  1.00  0.00     0.122 A
HETATM   35  N7  UNL     1      18.195  23.622  20.409  1.00  0.00    -0.247 N
HETATM   36  C29 UNL     1      17.286  22.915  19.679  1.00  0.00     0.129 A
BRANCH  35  37
HETATM   37  O4  UNL     1      17.866  24.883  20.842  1.00  0.00    -0.284 OA
ATOM     38  H4  UNL     1      16.983  25.212  20.725  1.00  0.00     0.245 HD
ENDBRANCH  35  37
ENDBRANCH  30  31
ENDBRANCH  29  30
ENDBRANCH  12  29
BRANCH   1  39
HETATM   39  N1  UNL     1      17.351  22.876  15.876  1.00  0.00    -0.222 N
ATOM     40  H1  UNL     1      18.247  22.442  16.097  1.00  0.00     0.178 HD
BRANCH  39  41
HETATM   41  C7  UNL     1      17.250  24.299  15.968  1.00  0.00     0.176 C
BRANCH  41  42
HETATM   42  C6  UNL     1      18.497  25.009  15.660  1.00  0.00    -0.040 A
HETATM   43  C5  UNL     1      18.860  25.258  14.359  1.00  0.00     0.009 A
HETATM   44  C4  UNL     1      20.046  25.933  14.052  1.00  0.00     0.012 A
HETATM   45  C3  UNL     1      20.873  26.364  15.038  1.00  0.00    -0.037 A
HETATM   46  C31 UNL     1      20.508  26.113  16.358  1.00  0.00     0.012 A
HETATM   47  C30 UNL     1      19.346  25.451  16.645  1.00  0.00     0.009 A
BRANCH  45  48
HETATM   48  C2  UNL     1      22.113  27.069  14.765  1.00  0.00     0.001 C
HETATM   49  C1  UNL     1      23.177  26.958  15.514  1.00  0.00     0.012 C
ENDBRANCH  45  48
ENDBRANCH  41  42
ENDBRANCH  39  41
ENDBRANCH   1  39
TORSDOF 14
ENDMDL