MODEL 2
REMARK VINA RESULT: -8.527469885      1.157      1.407
REMARK  13 active torsions:
REMARK  status: ('A' for Active; 'I' for Inactive)
REMARK    1  A    between atoms: C2_2  and  C3_3
REMARK    2  A    between atoms: C2_2  and  C6_8
REMARK    3  A    between atoms: C3_3  and  C4_4
REMARK    4  A    between atoms: C4_4  and  C5_5
REMARK    5  A    between atoms: C6_8  and  O3_9
REMARK    6  A    between atoms: C6_8  and  C7_11
REMARK    7  A    between atoms: C7_11  and  C9_13
REMARK    8  A    between atoms: C19_24  and  C21_26
REMARK    9  A    between atoms: C23_28  and  C24_29
REMARK   10  A    between atoms: C24_29  and  C25_30
REMARK       I    between atoms: C25_30  and  N1_32
REMARK   11  A    between atoms: N1_32  and  C26_34
REMARK   12  A    between atoms: C26_34  and  C27_35
REMARK   13  A    between atoms: C27_35  and  N2_36
ROOT
HETATM    1  C9  UNL     1      15.962  21.635  16.173  1.00  0.00     0.013 C
HETATM    2  C10 UNL     1      17.351  22.114  15.993  1.00  0.00     0.065 C
HETATM    3  C11 UNL     1      18.362  21.561  16.937  1.00  0.00     0.136 C
HETATM    4  O4  UNL     1      18.634  20.426  17.236  1.00  0.00    -0.297 OA
HETATM    5  C12 UNL     1      19.065  22.733  17.516  1.00  0.00     0.056 C
HETATM    6  C13 UNL     1      18.345  23.440  18.599  1.00  0.00     0.017 C
HETATM    7  C14 UNL     1      16.877  23.749  18.220  1.00  0.00    -0.013 C
HETATM    8  C15 UNL     1      16.921  24.435  16.916  1.00  0.00     0.010 C
HETATM    9  C16 UNL     1      17.600  23.568  15.917  1.00  0.00    -0.002 C
HETATM   10  C17 UNL     1      19.103  23.626  16.267  1.00  0.00     0.017 C
HETATM   11  C18 UNL     1      16.100  22.587  18.488  1.00  0.00     0.016 C
HETATM   12  C19 UNL     1      15.250  21.901  17.438  1.00  0.00    -0.019 C
HETATM   13  C20 UNL     1      13.979  22.728  17.344  1.00  0.00     0.018 C
ENDROOT
BRANCH  12  14
HETATM   14  C21 UNL     1      14.747  20.668  18.198  1.00  0.00     0.087 C
HETATM   15  C22 UNL     1      15.117  20.503  19.621  1.00  0.00     0.050 C
HETATM   16  C23 UNL     1      13.899  19.572  19.594  1.00  0.00     0.087 C
HETATM   17  N3  UNL     1      13.436  20.405  18.492  1.00  0.00    -0.412 N
ATOM     18  H3  UNL     1      12.530  20.675  18.108  1.00  0.00     0.154 HD
BRANCH  16  19
HETATM   19  C24 UNL     1      14.191  18.144  19.294  1.00  0.00     0.127 C
BRANCH  19  20
HETATM   20  C25 UNL     1      12.938  17.320  19.449  1.00  0.00     0.219 C
HETATM   21  O5  UNL     1      12.531  17.109  20.606  1.00  0.00    -0.274 OA
HETATM   22  N1  UNL     1      12.287  16.828  18.312  1.00  0.00    -0.359 N
ATOM     23  H1  UNL     1      12.679  17.044  17.396  1.00  0.00     0.162 HD
BRANCH  22  24
HETATM   24  C26 UNL     1      11.093  16.032  18.374  1.00  0.00     0.152 C
BRANCH  24  25
HETATM   25  C27 UNL     1      10.854  15.291  17.106  1.00  0.00     0.292 C
BRANCH  25  26
HETATM   26  N2  UNL     1      10.556  13.885  17.322  1.00  0.00     0.094 N
HETATM   27  C28 UNL     1      10.572  13.102  16.133  1.00  0.00     0.298 C
HETATM   28  C29 UNL     1       9.253  12.839  15.495  1.00  0.00     0.198 C
HETATM   29  O6  UNL     1       8.181  13.026  16.368  1.00  0.00    -0.388 OA
HETATM   30  C30 UNL     1       8.557  12.612  17.647  1.00  0.00     0.198 C
HETATM   31  C31 UNL     1       9.470  13.672  18.216  1.00  0.00     0.298 C
ENDBRANCH  25  26
ENDBRANCH  24  25
ENDBRANCH  22  24
ENDBRANCH  19  20
ENDBRANCH  16  19
ENDBRANCH  12  14
BRANCH   1  32
HETATM   32  C7  UNL     1      15.118  21.586  14.944  1.00  0.00     0.016 C
HETATM   33  C8  UNL     1      15.843  21.826  13.636  1.00  0.00     0.013 C
BRANCH  32  34
HETATM   34  C6  UNL     1      14.241  20.386  14.751  1.00  0.00     0.126 C
BRANCH  34  35
HETATM   35  C2  UNL     1      12.778  20.657  15.036  1.00  0.00     0.011 C
HETATM   36  C1  UNL     1      12.416  21.944  14.292  1.00  0.00     0.012 C
BRANCH  35  37
HETATM   37  C3  UNL     1      11.851  19.629  14.420  1.00  0.00     0.017 C
BRANCH  37  38
HETATM   38  C4  UNL     1      11.360  18.710  15.524  1.00  0.00     0.113 C
BRANCH  38  39
HETATM   39  C5  UNL     1      10.445  19.413  16.451  1.00  0.00     0.172 C
HETATM   40  O1  UNL     1       9.445  20.006  15.944  1.00  0.00    -0.648 OA
HETATM   41  O2  UNL     1      10.601  19.469  17.804  1.00  0.00    -0.648 OA
ENDBRANCH  38  39
ENDBRANCH  37  38
ENDBRANCH  35  37
ENDBRANCH  34  35
BRANCH  34  42
HETATM   42  O3  UNL     1      14.237  19.908  13.414  1.00  0.00    -0.395 OA
ATOM     43  H3  UNL     1      14.215  20.701  12.893  1.00  0.00     0.210 HD
ENDBRANCH  34  42
ENDBRANCH  32  34
ENDBRANCH   1  32
TORSDOF 13
ENDMDL