MODEL 2
REMARK VINA RESULT: -7.162244758      1.269      1.757
REMARK  14 active torsions:
REMARK  status: ('A' for Active; 'I' for Inactive)
REMARK    1  A    between atoms: C2_2  and  C3_3
REMARK    2  A    between atoms: C3_3  and  C4_4
REMARK    3  A    between atoms: C4_4  and  C5_5
REMARK    4  A    between atoms: C5_5  and  O1_6
REMARK    5  A    between atoms: O1_6  and  C6_7
REMARK       I    between atoms: C6_7  and  N1_9
REMARK    6  A    between atoms: C10_13  and  C11_14
REMARK    7  A    between atoms: C11_14  and  C12_15
REMARK    8  A    between atoms: C12_15  and  C14_17
REMARK    9  A    between atoms: C14_17  and  N2_18
REMARK   10  A    between atoms: N2_18  and  C15_21
REMARK   11  A    between atoms: C21_30  and  C22_31
REMARK   12  A    between atoms: C22_31  and  C23_32
REMARK   13  A    between atoms: C23_32  and  C24_33
REMARK   14  A    between atoms: C24_33  and  N4_34
ROOT
HETATM    1  C6  UNL     1      13.745  20.011  13.618  1.00  0.00     0.362 C
HETATM    2  O2  UNL     1      14.950  20.311  13.433  1.00  0.00    -0.238 OA
HETATM    3  N1  UNL     1      12.948  20.503  14.678  1.00  0.00    -0.327 N
HETATM    4  C7  UNL     1      11.564  20.086  14.763  1.00  0.00     0.128 C
HETATM    5  C8  UNL     1      11.349  18.855  15.617  1.00  0.00     0.022 C
HETATM    6  C9  UNL     1      10.642  19.288  16.859  1.00  0.00     0.034 C
HETATM    7  C10 UNL     1      10.453  18.227  17.905  1.00  0.00     0.134 C
HETATM    8  O3  UNL     1      10.853  18.754  19.114  1.00  0.00    -0.298 OA
HETATM    9  C19 UNL     1      11.808  18.468  20.013  1.00  0.00     0.363 C
HETATM   10  O4  UNL     1      11.444  18.140  21.210  1.00  0.00    -0.238 OA
HETATM   11  N3  UNL     1      13.238  18.481  19.803  1.00  0.00    -0.319 N
HETATM   12  C20 UNL     1      13.964  17.347  20.323  1.00  0.00     0.156 C
HETATM   13  C21 UNL     1      13.920  19.566  19.116  1.00  0.00     0.181 C
HETATM   14  C26 UNL     1      14.828  19.125  18.046  1.00  0.00     0.240 C
HETATM   15  O5  UNL     1      15.697  18.231  18.296  1.00  0.00    -0.271 OA
HETATM   16  N7  UNL     1      14.839  19.608  16.711  1.00  0.00    -0.358 N
ATOM     17  H7  UNL     1      14.908  18.910  15.970  1.00  0.00     0.162 HD
HETATM   18  C27 UNL     1      14.764  20.978  16.303  1.00  0.00     0.142 C
HETATM   19  C28 UNL     1      13.511  21.410  15.635  1.00  0.00     0.147 C
ENDROOT
BRANCH   7  20
HETATM   20  C11 UNL     1      11.032  16.924  17.493  1.00  0.00     0.038 C
BRANCH  20  21
HETATM   21  C12 UNL     1      10.135  15.748  17.531  1.00  0.00     0.009 C
HETATM   22  C13 UNL     1       9.718  15.552  18.998  1.00  0.00     0.011 C
BRANCH  21  23
HETATM   23  C14 UNL     1      10.812  14.453  17.141  1.00  0.00     0.237 C
BRANCH  23  24
HETATM   24  N2  UNL     1       9.996  13.336  17.610  1.00  0.00    -0.067 N
ATOM     25  H22 UNL     1      10.498  12.775  18.299  1.00  0.00     0.278 HD
ATOM     26  H21 UNL     1       9.227  13.661  18.196  1.00  0.00     0.278 HD
BRANCH  24  27
HETATM   27  C15 UNL     1       9.520  12.526  16.530  1.00  0.00     0.115 C
HETATM   28  C16 UNL     1      10.645  12.017  15.646  1.00  0.00     0.045 C
HETATM   29  C17 UNL     1       8.465  13.192  15.699  1.00  0.00     0.045 C
HETATM   30  C18 UNL     1       8.876  11.289  17.169  1.00  0.00     0.045 C
ENDBRANCH  24  27
ENDBRANCH  23  24
ENDBRANCH  21  23
ENDBRANCH  20  21
ENDBRANCH   7  20
BRANCH  13  31
HETATM   31  C22 UNL     1      14.512  20.566  20.068  1.00  0.00     0.037 C
BRANCH  31  32
HETATM   32  C23 UNL     1      15.230  21.711  19.446  1.00  0.00     0.022 C
BRANCH  32  33
HETATM   33  C24 UNL     1      16.756  21.497  19.545  1.00  0.00     0.122 C
BRANCH  33  34
HETATM   34  N4  UNL     1      17.443  22.394  18.643  1.00  0.00    -0.367 N
HETATM   35  C25 UNL     1      18.084  21.959  17.613  1.00  0.00     0.196 C
HETATM   36  N5  UNL     1      18.754  22.852  16.739  1.00  0.00    -0.067 NA
HETATM   37  N6  UNL     1      18.128  20.570  17.336  1.00  0.00    -0.067 NA
ATOM     38  H4  UNL     1      17.420  23.397  18.827  1.00  0.00     0.161 HD
ENDBRANCH  33  34
ENDBRANCH  32  33
ENDBRANCH  31  32
ENDBRANCH  13  31
BRANCH   1  39
HETATM   39  O1  UNL     1      13.216  19.117  12.665  1.00  0.00    -0.304 OA
BRANCH  39  40
HETATM   40  C5  UNL     1      13.446  17.722  12.736  1.00  0.00     0.180 C
BRANCH  40  41
HETATM   41  C4  UNL     1      12.147  17.048  12.356  1.00  0.00     0.027 C
BRANCH  41  42
HETATM   42  C3  UNL     1      12.280  15.541  12.425  1.00  0.00     0.002 C
BRANCH  42  43
HETATM   43  C2  UNL     1      11.459  14.995  13.569  1.00  0.00    -0.004 C
HETATM   44  C1  UNL     1      10.208  15.820  13.791  1.00  0.00     0.005 C
ENDBRANCH  42  43
ENDBRANCH  41  42
ENDBRANCH  40  41
ENDBRANCH  39  40
ENDBRANCH   1  39
TORSDOF 14
ENDMDL