MODEL 5
REMARK VINA RESULT: -6.339848791      2.574      6.516
REMARK  15 active torsions:
REMARK  status: ('A' for Active; 'I' for Inactive)
REMARK    1  A    between atoms: C2_2  and  C3_3
REMARK    2  A    between atoms: C4_4  and  O1_5
REMARK    3  A    between atoms: C5_9  and  C6_10
REMARK    4  A    between atoms: C6_10  and  C7_11
REMARK    5  A    between atoms: C11_18  and  C12_19
REMARK    6  A    between atoms: C12_19  and  C13_20
REMARK    7  A    between atoms: C13_20  and  C14_21
REMARK    8  A    between atoms: C14_21  and  C15_22
REMARK    9  A    between atoms: C15_22  and  C16_23
REMARK   10  A    between atoms: C16_23  and  C17_24
REMARK   11  A    between atoms: C17_24  and  O3_25
REMARK   12  A    between atoms: N3_27  and  O4_29
REMARK   13  A    between atoms: C22_37  and  C23_38
REMARK   14  A    between atoms: C23_38  and  N4_41
REMARK   15  A    between atoms: C28_44  and  O7_45
ROOT
HETATM    1  C3  UNL     1       7.732  13.000  12.552  1.00  0.00     0.063 C
HETATM    2  C4  UNL     1       6.715  12.415  13.465  1.00  0.00     0.163 C
HETATM    3  N1  UNL     1       6.439  12.597  14.810  1.00  0.00    -0.334 N
ATOM      4  H1  UNL     1       5.442  12.710  14.989  1.00  0.00     0.168 HD
HETATM    5  C5  UNL     1       7.217  12.663  16.004  1.00  0.00     0.080 C
HETATM    6  C10 UNL     1       7.726  14.019  16.357  1.00  0.00     0.264 C
HETATM    7  O2  UNL     1       6.915  14.918  15.897  1.00  0.00    -0.266 OA
HETATM    8  N2  UNL     1       8.817  14.466  17.035  1.00  0.00    -0.342 N
ATOM      9  H2  UNL     1       8.534  15.039  17.831  1.00  0.00     0.163 HD
HETATM   10  C11 UNL     1      10.241  14.373  16.964  1.00  0.00     0.184 C
HETATM   11  C18 UNL     1      10.853  13.848  15.736  1.00  0.00     0.281 C
HETATM   12  O5  UNL     1      11.400  12.682  15.892  1.00  0.00    -0.263 OA
HETATM   13  O6  UNL     1      10.836  14.532  14.565  1.00  0.00    -0.319 OA
HETATM   14  C19 UNL     1      11.645  15.493  13.999  1.00  0.00     0.183 C
HETATM   15  C20 UNL     1      10.922  16.365  12.957  1.00  0.00     0.020 C
HETATM   16  C21 UNL     1      12.019  17.173  12.334  1.00  0.00     0.013 C
HETATM   17  C22 UNL     1      10.108  15.512  12.031  1.00  0.00     0.104 C
HETATM   18  C28 UNL     1       8.752  15.386  12.593  1.00  0.00     0.124 C
HETATM   19  N5  UNL     1       7.764  14.426  12.508  1.00  0.00    -0.335 N
HETATM   20  C29 UNL     1       6.382  14.978  12.319  1.00  0.00     0.158 C
ENDROOT
BRANCH  10  21
HETATM   21  C12 UNL     1      10.908  15.725  17.233  1.00  0.00     0.035 C
BRANCH  21  22
HETATM   22  C13 UNL     1      10.310  16.492  18.357  1.00  0.00     0.002 C
BRANCH  22  23
HETATM   23  C14 UNL     1      11.145  16.634  19.580  1.00  0.00     0.001 C
BRANCH  23  24
HETATM   24  C15 UNL     1      12.504  17.170  19.177  1.00  0.00     0.008 C
BRANCH  24  25
HETATM   25  C16 UNL     1      12.637  18.660  19.402  1.00  0.00     0.086 C
BRANCH  25  26
HETATM   26  C17 UNL     1      12.737  19.280  18.046  1.00  0.00     0.135 C
HETATM   27  N3  UNL     1      11.734  19.810  17.442  1.00  0.00    -0.251 N
ATOM     28  H3  UNL     1      11.851  20.221  16.515  1.00  0.00     0.196 HD
BRANCH  26  29
HETATM   29  O3  UNL     1      13.968  19.277  17.418  1.00  0.00    -0.348 OA
ATOM     30  H3  UNL     1      14.154  19.969  16.794  1.00  0.00     0.219 HD
ENDBRANCH  26  29
BRANCH  27  31
HETATM   31  O4  UNL     1      10.518  19.821  18.044  1.00  0.00    -0.288 OA
ATOM     32  H4  UNL     1      10.457  20.004  18.973  1.00  0.00     0.244 HD
ENDBRANCH  27  31
ENDBRANCH  25  26
ENDBRANCH  24  25
ENDBRANCH  23  24
ENDBRANCH  22  23
ENDBRANCH  21  22
ENDBRANCH  10  21
BRANCH   5  33
HETATM   33  C6  UNL     1       8.061  11.526  16.412  1.00  0.00     0.067 C
BRANCH  33  34
HETATM   34  C7  UNL     1       7.761  10.846  17.691  1.00  0.00    -0.017 C
HETATM   35  C8  UNL     1       6.410  10.989  18.274  1.00  0.00     0.010 C
HETATM   36  C9  UNL     1       7.946   9.333  17.421  1.00  0.00     0.010 C
ENDBRANCH  33  34
ENDBRANCH   5  33
BRANCH   2  37
HETATM   37  O1  UNL     1       5.940  11.566  12.855  1.00  0.00    -0.345 OA
ATOM     38  H1  UNL     1       6.414  11.046  12.217  1.00  0.00     0.219 HD
ENDBRANCH   2  37
BRANCH  17  39
HETATM   39  C23 UNL     1      10.010  16.126  10.627  1.00  0.00     0.163 C
HETATM   40  C24 UNL     1       9.530  17.538  10.635  1.00  0.00     0.049 C
HETATM   41  C25 UNL     1       8.951  15.344   9.834  1.00  0.00     0.049 C
BRANCH  39  42
HETATM   42  N4  UNL     1      11.227  15.931   9.890  1.00  0.00     0.089 N
HETATM   43  C26 UNL     1      11.546  14.572   9.594  1.00  0.00     0.310 C
HETATM   44  C27 UNL     1      11.285  16.712   8.698  1.00  0.00     0.310 C
ENDBRANCH  39  42
ENDBRANCH  17  39
BRANCH   1  45
HETATM   45  C2  UNL     1       9.000  12.229  12.526  1.00  0.00     0.057 C
HETATM   46  C1  UNL     1       9.219  11.839  11.044  1.00  0.00     0.011 C
ENDBRANCH   1  45
BRANCH  18  47
HETATM   47  O7  UNL     1       8.421  16.408  13.327  1.00  0.00    -0.349 OA
ATOM     48  H7  UNL     1       8.139  16.153  14.198  1.00  0.00     0.219 HD
ENDBRANCH  18  47
TORSDOF 15
ENDMDL