MODEL 3
REMARK VINA RESULT: -7.188639686      1.835      2.575
REMARK  15 active torsions:
REMARK  status: ('A' for Active; 'I' for Inactive)
REMARK    1  A    between atoms: O1_2  and  N1_3
REMARK    2  A    between atoms: N1_3  and  C3_5
REMARK    3  A    between atoms: C3_5  and  C4_6
REMARK    4  A    between atoms: C3_5  and  C5_9
REMARK    5  A    between atoms: C4_6  and  O2_7
REMARK    6  A    between atoms: C5_9  and  C7_11
REMARK    7  A    between atoms: C7_11  and  N2_12
REMARK    8  A    between atoms: N2_12  and  N3_13
REMARK    9  A    between atoms: N2_12  and  C9_18
REMARK   10  A    between atoms: N3_13  and  C8_15
REMARK   11  A    between atoms: C9_18  and  N5_19
REMARK       I    between atoms: N5_19  and  C10_21
REMARK       I    between atoms: C10_21  and  N7_25
REMARK   12  A    between atoms: C15_32  and  C16_33
REMARK   13  A    between atoms: C20_37  and  C21_38
REMARK   14  A    between atoms: C20_37  and  C25_42
REMARK   15  A    between atoms: C21_38  and  C22_39
ROOT
HETATM    1  C9  UNL     1      20.977  26.018  18.115  1.00  0.00     0.146 C
HETATM    2  C20 UNL     1      22.058  26.474  17.270  1.00  0.00     0.021 C
ENDROOT
BRANCH   1   3
HETATM    3  N2  UNL     1      19.922  25.083  17.749  1.00  0.00    -0.273 N
BRANCH   3   4
HETATM    4  C7  UNL     1      19.998  23.728  18.243  1.00  0.00     0.157 C
BRANCH   4   5
HETATM    5  C5  UNL     1      18.925  23.247  19.124  1.00  0.00     0.028 C
HETATM    6  C6  UNL     1      19.542  22.136  20.001  1.00  0.00     0.014 C
BRANCH   5   7
HETATM    7  C3  UNL     1      17.839  22.485  18.334  1.00  0.00     0.137 C
BRANCH   7   8
HETATM    8  N1  UNL     1      16.545  22.722  18.818  1.00  0.00    -0.292 N
HETATM    9  C2  UNL     1      15.866  23.908  18.498  1.00  0.00     0.178 C
BRANCH   8  10
HETATM   10  O1  UNL     1      15.914  21.811  19.512  1.00  0.00    -0.288 OA
HETATM   11  C1  UNL     1      14.618  21.550  19.139  1.00  0.00     0.237 C
ENDBRANCH   8  10
ENDBRANCH   7   8
BRANCH   7  12
HETATM   12  C4  UNL     1      18.230  21.022  18.317  1.00  0.00     0.191 C
BRANCH  12  13
HETATM   13  O2  UNL     1      18.422  20.531  17.032  1.00  0.00    -0.399 OA
ATOM     14  H2  UNL     1      18.274  21.187  16.361  1.00  0.00     0.209 HD
ENDBRANCH  12  13
ENDBRANCH   7  12
ENDBRANCH   5   7
ENDBRANCH   4   5
ENDBRANCH   3   4
BRANCH   3  15
HETATM   15  N3  UNL     1      18.846  25.399  16.935  1.00  0.00    -0.275 N
ATOM     16  H3  UNL     1      18.252  26.163  17.255  1.00  0.00     0.189 HD
BRANCH  15  17
HETATM   17  C8  UNL     1      18.473  24.794  15.719  1.00  0.00     0.199 C
HETATM   18  N4  UNL     1      18.178  23.454  15.457  1.00  0.00    -0.068 NA
HETATM   19  S1  UNL     1      18.354  25.771  14.382  1.00  0.00    -0.043 SA
ENDBRANCH  15  17
ENDBRANCH   3  15
ENDBRANCH   1   3
BRANCH   1  20
HETATM   20  N5  UNL     1      20.876  26.464  19.319  1.00  0.00    -0.175 N
HETATM   21  C10 UNL     1      21.309  25.960  20.528  1.00  0.00     0.677 C
HETATM   22  N6  UNL     1      20.437  25.659  21.424  1.00  0.00    -0.234 N
HETATM   23  N7  UNL     1      22.658  25.741  20.882  1.00  0.00    -0.199 N
ATOM     24  H62 UNL     1      19.462  25.817  21.168  1.00  0.00     0.174 HD
ATOM     25  H61 UNL     1      20.758  25.286  22.317  1.00  0.00     0.174 HD
HETATM   26  C11 UNL     1      23.273  25.897  21.944  1.00  0.00     0.011 C
ATOM     27  H7  UNL     1      23.234  25.388  20.118  1.00  0.00     0.183 HD
HETATM   28  C12 UNL     1      24.737  25.557  21.963  1.00  0.00     0.131 C
HETATM   29  C19 UNL     1      22.674  26.389  23.201  1.00  0.00     0.058 C
HETATM   30  C13 UNL     1      24.940  24.660  23.138  1.00  0.00     0.132 C
HETATM   31  O3  UNL     1      25.420  23.563  23.047  1.00  0.00    -0.298 OA
HETATM   32  C14 UNL     1      24.512  25.199  24.456  1.00  0.00     0.084 C
HETATM   33  C15 UNL     1      23.691  26.448  24.319  1.00  0.00     0.001 C
ATOM     34  H5  UNL     1      20.385  27.354  19.392  1.00  0.00     0.186 HD
BRANCH  33  35
HETATM   35  C16 UNL     1      23.071  26.779  25.628  1.00  0.00    -0.018 C
HETATM   36  C17 UNL     1      23.899  27.580  26.568  1.00  0.00     0.010 C
HETATM   37  C18 UNL     1      21.762  27.547  25.424  1.00  0.00     0.010 C
ENDBRANCH  33  35
ENDBRANCH   1  20
BRANCH   2  38
HETATM   38  C21 UNL     1      23.458  26.163  17.592  1.00  0.00    -0.009 C
BRANCH  38  39
HETATM   39  C22 UNL     1      24.403  27.149  18.100  1.00  0.00     0.001 C
HETATM   40  C23 UNL     1      25.678  26.371  18.554  1.00  0.00     0.013 C
HETATM   41  C24 UNL     1      25.003  28.069  17.019  1.00  0.00     0.013 C
ENDBRANCH  38  39
ENDBRANCH   2  38
BRANCH   2  42
HETATM   42  C25 UNL     1      21.741  26.519  15.769  1.00  0.00     0.109 A
HETATM   43  C26 UNL     1      21.373  27.929  15.264  1.00  0.00     0.054 C
HETATM   44  C27 UNL     1      21.966  25.499  14.835  1.00  0.00     0.212 A
HETATM   45  O4  UNL     1      23.077  26.242  15.111  1.00  0.00    -0.370 OA
ENDBRANCH   2  42
TORSDOF 15
ENDMDL