MODEL 2
REMARK VINA RESULT: -9.956947335      3.327      7.090
REMARK  12 active torsions:
REMARK  status: ('A' for Active; 'I' for Inactive)
REMARK    1  A    between atoms: C2_2  and  C3_3
REMARK    2  A    between atoms: C3_3  and  C4_4
REMARK    3  A    between atoms: C9_9  and  C10_10
REMARK    4  A    between atoms: C10_10  and  C11_11
REMARK    5  A    between atoms: N1_13  and  S1_14
REMARK    6  A    between atoms: S1_14  and  C13_17
REMARK    7  A    between atoms: C13_17  and  C14_18
REMARK    8  A    between atoms: C21_27  and  N3_28
REMARK    9  A    between atoms: N3_28  and  C22_30
REMARK   10  A    between atoms: C22_30  and  C23_31
REMARK   11  A    between atoms: C26_36  and  N5_37
REMARK   12  A    between atoms: N5_37  and  C27_39
ROOT
HETATM    1  C11 UNL     1      19.744  23.567  18.470  1.00  0.00     0.054 C
HETATM    2  C12 UNL     1      21.061  24.325  18.912  1.00  0.00     0.145 C
HETATM    3  N1  UNL     1      21.129  24.552  20.277  1.00  0.00    -0.310 N
HETATM    4  C19 UNL     1      19.952  24.891  20.990  1.00  0.00     0.140 C
HETATM    5  C20 UNL     1      18.805  23.903  20.798  1.00  0.00     0.073 C
HETATM    6  C21 UNL     1      19.275  22.939  19.726  1.00  0.00    -0.006 C
ENDROOT
BRANCH   6   7
HETATM    7  N3  UNL     1      18.701  21.663  19.738  1.00  0.00    -0.370 N
ATOM      8  H3  UNL     1      18.685  21.170  20.631  1.00  0.00     0.165 HD
BRANCH   7   9
HETATM    9  C22 UNL     1      18.154  21.011  18.653  1.00  0.00     0.117 C
BRANCH   9  10
HETATM   10  C23 UNL     1      16.658  20.973  18.642  1.00  0.00     0.065 A
HETATM   11  C24 UNL     1      15.948  22.151  18.837  1.00  0.00     0.049 A
HETATM   12  C25 UNL     1      14.573  22.182  18.836  1.00  0.00     0.108 A
HETATM   13  N4  UNL     1      13.908  21.035  18.640  1.00  0.00    -0.202 N
HETATM   14  C26 UNL     1      14.580  19.893  18.450  1.00  0.00     0.684 A
ATOM     15  H4  UNL     1      12.888  21.032  18.635  1.00  0.00     0.183 HD
HETATM   16  N8  UNL     1      15.926  19.872  18.452  1.00  0.00    -0.190 N
ATOM     17  H8  UNL     1      16.404  18.984  18.303  1.00  0.00     0.184 HD
BRANCH  14  18
HETATM   18  N5  UNL     1      13.892  18.791  18.266  1.00  0.00    -0.175 N
ATOM     19  H5  UNL     1      13.943  18.295  17.376  1.00  0.00     0.186 HD
BRANCH  18  20
HETATM   20  C27 UNL     1      13.068  18.292  19.325  1.00  0.00     0.136 A
HETATM   21  C28 UNL     1      13.466  17.948  20.605  1.00  0.00     0.069 A
HETATM   22  C29 UNL     1      12.365  17.495  21.323  1.00  0.00     0.111 A
HETATM   23  N6  UNL     1      11.329  17.572  20.475  1.00  0.00    -0.310 N
HETATM   24  N7  UNL     1      11.748  18.043  19.290  1.00  0.00    -0.285 N
ATOM     25  H6  UNL     1      10.368  17.312  20.697  1.00  0.00     0.186 HD
ATOM     26  H7  UNL     1      11.149  18.192  18.479  1.00  0.00     0.188 HD
ENDBRANCH  18  20
ENDBRANCH  14  18
ENDBRANCH   9  10
ENDBRANCH   7   9
ENDBRANCH   6   7
BRANCH   1  27
HETATM   27  C10 UNL     1      18.966  24.643  17.813  1.00  0.00     0.051 C
BRANCH  27  28
HETATM   28  C9  UNL     1      19.138  24.925  16.389  1.00  0.00    -0.051 A
HETATM   29  C4  UNL     1      18.126  24.666  15.501  1.00  0.00    -0.052 A
HETATM   30  C5  UNL     1      18.325  25.040  14.160  1.00  0.00     0.007 A
HETATM   31  C6  UNL     1      19.481  25.635  13.736  1.00  0.00     0.001 A
HETATM   32  C7  UNL     1      20.514  25.894  14.639  1.00  0.00     0.001 A
HETATM   33  C8  UNL     1      20.315  25.536  15.926  1.00  0.00     0.007 A
BRANCH  29  34
HETATM   34  C3  UNL     1      16.885  23.897  15.766  1.00  0.00     0.039 C
BRANCH  34  35
HETATM   35  C2  UNL     1      16.927  22.493  15.239  1.00  0.00     0.000 C
HETATM   36  C1  UNL     1      15.662  21.748  15.131  1.00  0.00     0.005 C
ENDBRANCH  34  35
ENDBRANCH  29  34
ENDBRANCH  27  28
ENDBRANCH   1  27
BRANCH   3  37
HETATM   37  S1  UNL     1      22.579  24.648  21.083  1.00  0.00     0.229 S
HETATM   38  O1  UNL     1      22.794  23.406  21.920  1.00  0.00    -0.206 OA
HETATM   39  O2  UNL     1      22.473  25.770  22.137  1.00  0.00    -0.206 OA
BRANCH  37  40
HETATM   40  C13 UNL     1      24.010  24.989  20.155  1.00  0.00     0.168 C
BRANCH  40  41
HETATM   41  C14 UNL     1      24.318  26.387  19.797  1.00  0.00     0.004 C
HETATM   42  C15 UNL     1      25.692  26.463  19.119  1.00  0.00     0.025 C
HETATM   43  C16 UNL     1      25.677  25.589  17.908  1.00  0.00     0.114 C
HETATM   44  N2  UNL     1      24.519  25.724  17.101  1.00  0.00    -0.421 N
HETATM   45  C17 UNL     1      23.672  26.815  17.392  1.00  0.00     0.114 C
ATOM     46  H2  UNL     1      24.309  25.067  16.349  1.00  0.00     0.153 HD
HETATM   47  C18 UNL     1      23.364  27.027  18.859  1.00  0.00     0.025 C
ENDBRANCH  40  41
ENDBRANCH  37  40
ENDBRANCH   3  37
TORSDOF 12
ENDMDL