MODEL 3
REMARK VINA RESULT: -9.386507459      4.568      8.182
REMARK  13 active torsions:
REMARK  status: ('A' for Active; 'I' for Inactive)
REMARK    1  A    between atoms: C1_2  and  C2_3
REMARK       I    between atoms: C1_2  and  N5_30
REMARK    2  A    between atoms: C2_3  and  C3_4
REMARK    3  A    between atoms: C3_4  and  C4_5
REMARK    4  A    between atoms: C4_5  and  N1_6
REMARK    5  A    between atoms: N1_6  and  C5_8
REMARK    6  A    between atoms: C5_8  and  C6_9
REMARK    7  A    between atoms: C6_9  and  N2_10
REMARK    8  A    between atoms: C6_9  and  C10_16
REMARK    9  A    between atoms: N2_10  and  C7_13
REMARK   10  A    between atoms: C13_19  and  N3_20
REMARK   11  A    between atoms: N6_33  and  C22_34
REMARK   12  A    between atoms: C22_34  and  O2_35
REMARK   13  A    between atoms: C22_34  and  C23_37
ROOT
HETATM    1  C4  UNL     1      12.588  19.435  16.973  1.00  0.00     0.114 C
ENDROOT
BRANCH   1   2
HETATM    2  C3  UNL     1      13.848  20.003  17.444  1.00  0.00     0.028 C
BRANCH   2   3
HETATM    3  C2  UNL     1      13.909  20.874  18.632  1.00  0.00     0.104 C
BRANCH   3   4
HETATM    4  C1  UNL     1      15.235  21.112  19.216  1.00  0.00     0.219 C
HETATM    5  O1  UNL     1      15.695  20.264  20.038  1.00  0.00    -0.273 OA
HETATM    6  N5  UNL     1      16.019  22.243  18.903  1.00  0.00    -0.349 N
HETATM    7  C20 UNL     1      15.639  23.278  17.977  1.00  0.00     0.145 C
HETATM    8  C34 UNL     1      17.345  22.438  19.518  1.00  0.00     0.145 C
HETATM    9  C21 UNL     1      16.770  23.256  16.920  1.00  0.00     0.139 C
HETATM   10  N6  UNL     1      17.966  23.679  17.460  1.00  0.00    -0.384 N
HETATM   11  C33 UNL     1      18.399  22.764  18.512  1.00  0.00     0.139 C
BRANCH  10  12
HETATM   12  C22 UNL     1      18.522  24.929  17.480  1.00  0.00     0.224 C
BRANCH  12  13
HETATM   13  O2  UNL     1      19.387  25.043  18.615  1.00  0.00    -0.376 OA
ATOM     14  H2  UNL     1      20.173  25.513  18.364  1.00  0.00     0.212 HD
ENDBRANCH  12  13
BRANCH  12  15
HETATM   15  C23 UNL     1      19.330  25.469  16.332  1.00  0.00     0.004 C
HETATM   16  C24 UNL     1      20.255  24.305  15.843  1.00  0.00     0.018 C
HETATM   17  C25 UNL     1      21.046  24.806  14.683  1.00  0.00    -0.013 C
HETATM   18  C26 UNL     1      21.997  25.913  15.110  1.00  0.00     0.009 C
HETATM   19  C30 UNL     1      20.200  25.292  13.547  1.00  0.00     0.009 C
HETATM   20  C27 UNL     1      21.130  27.050  15.613  1.00  0.00    -0.013 C
HETATM   21  C28 UNL     1      20.235  27.548  14.530  1.00  0.00     0.009 C
HETATM   22  C32 UNL     1      20.318  26.503  16.786  1.00  0.00     0.018 C
HETATM   23  C29 UNL     1      19.341  26.432  14.084  1.00  0.00    -0.013 C
HETATM   24  C31 UNL     1      18.488  25.856  15.168  1.00  0.00     0.018 C
ENDBRANCH  12  15
ENDBRANCH  10  12
ENDBRANCH   3   4
ENDBRANCH   2   3
ENDBRANCH   1   2
BRANCH   1  25
HETATM   25  N1  UNL     1      11.377  19.733  17.637  1.00  0.00    -0.419 N
ATOM     26  H1  UNL     1      11.129  20.683  17.913  1.00  0.00     0.153 HD
BRANCH  25  27
HETATM   27  C5  UNL     1      10.526  18.624  17.897  1.00  0.00     0.151 C
BRANCH  27  28
HETATM   28  C6  UNL     1      11.176  17.479  18.569  1.00  0.00     0.236 C
BRANCH  28  29
HETATM   29  N2  UNL     1      10.986  17.539  20.034  1.00  0.00    -0.061 N
ATOM     30  H22 UNL     1      10.638  18.451  20.329  1.00  0.00     0.278 HD
ATOM     31  H21 UNL     1      10.198  16.965  20.332  1.00  0.00     0.278 HD
BRANCH  29  32
HETATM   32  C7  UNL     1      12.200  17.181  20.739  1.00  0.00     0.187 A
HETATM   33  C8  UNL     1      12.987  18.304  21.427  1.00  0.00     0.035 A
HETATM   34  C9  UNL     1      13.527  17.546  20.251  1.00  0.00     0.035 A
ENDBRANCH  29  32
ENDBRANCH  28  29
BRANCH  28  35
HETATM   35  C10 UNL     1      10.620  16.135  18.148  1.00  0.00    -0.026 A
HETATM   36  C11 UNL     1      11.031  15.597  16.940  1.00  0.00     0.011 A
HETATM   37  C12 UNL     1      10.593  14.345  16.535  1.00  0.00     0.030 A
HETATM   38  C13 UNL     1       9.742  13.589  17.301  1.00  0.00     0.030 A
HETATM   39  C18 UNL     1       9.328  14.112  18.503  1.00  0.00     0.030 A
HETATM   40  C19 UNL     1       9.773  15.385  18.915  1.00  0.00     0.011 A
BRANCH  38  41
HETATM   41  N3  UNL     1       9.289  12.267  16.929  1.00  0.00    -0.378 N
HETATM   42  C14 UNL     1       8.273  11.577  17.654  1.00  0.00     0.150 C
HETATM   43  C15 UNL     1       8.483  10.108  17.815  1.00  0.00     0.252 C
HETATM   44  N4  UNL     1       9.358   9.543  16.812  1.00  0.00    -0.072 N
HETATM   45  C16 UNL     1       9.302  10.294  15.567  1.00  0.00     0.252 C
ATOM     46  H42 UNL     1      10.315   9.462  17.156  1.00  0.00     0.277 HD
ATOM     47  H41 UNL     1       9.161   8.553  16.660  1.00  0.00     0.277 HD
HETATM   48  C17 UNL     1       9.929  11.630  15.795  1.00  0.00     0.150 C
ENDBRANCH  38  41
ENDBRANCH  28  35
ENDBRANCH  27  28
ENDBRANCH  25  27
ENDBRANCH   1  25
TORSDOF 13
ENDMDL