MODEL 1
REMARK VINA RESULT: -9.688114272      0.000      0.000
REMARK  12 active torsions:
REMARK  status: ('A' for Active; 'I' for Inactive)
REMARK    1  A    between atoms: C2_2  and  N1_3
REMARK       I    between atoms: N1_3  and  C3_5
REMARK    2  A    between atoms: C3_5  and  C4_7
REMARK    3  A    between atoms: C4_7  and  C5_8
REMARK    4  A    between atoms: C5_8  and  C6_9
REMARK    5  A    between atoms: C6_9  and  N2_10
REMARK    6  A    between atoms: C6_9  and  C28_40
REMARK    7  A    between atoms: N2_10  and  S1_12
REMARK    8  A    between atoms: S1_12  and  O4_15
REMARK    9  A    between atoms: O4_15  and  C7_16
REMARK   10  A    between atoms: C20_29  and  C21_30
REMARK   11  A    between atoms: C21_30  and  C22_32
REMARK   12  A    between atoms: C22_32  and  O6_33
ROOT
HETATM    1  C7  UNL     1      15.407  19.931  18.541  1.00  0.00     0.145 C
HETATM    2  C8  UNL     1      15.450  20.980  19.636  1.00  0.00     0.034 C
HETATM    3  C9  UNL     1      16.703  21.800  19.608  1.00  0.00     0.013 C
HETATM    4  C10 UNL     1      16.865  22.604  18.297  1.00  0.00    -0.033 C
HETATM    5  C11 UNL     1      15.680  23.510  18.265  1.00  0.00     0.016 C
HETATM    6  C12 UNL     1      18.183  23.269  18.448  1.00  0.00    -0.001 C
HETATM    7  C13 UNL     1      18.091  24.150  19.711  1.00  0.00     0.006 C
HETATM    8  C14 UNL     1      18.923  23.638  20.832  1.00  0.00     0.000 C
HETATM    9  C15 UNL     1      20.048  24.552  21.226  1.00  0.00     0.000 C
HETATM   10  C16 UNL     1      20.792  25.128  20.062  1.00  0.00     0.000 C
HETATM   11  C17 UNL     1      20.826  24.162  18.868  1.00  0.00     0.000 C
HETATM   12  C18 UNL     1      20.062  24.704  17.730  1.00  0.00     0.006 C
HETATM   13  C19 UNL     1      18.707  24.143  17.402  1.00  0.00     0.002 C
HETATM   14  C20 UNL     1      18.731  23.692  15.983  1.00  0.00     0.062 C
HETATM   15  C23 UNL     1      17.293  23.425  15.575  1.00  0.00     0.013 C
HETATM   16  C24 UNL     1      16.817  22.055  15.826  1.00  0.00     0.011 C
HETATM   17  C25 UNL     1      16.828  21.556  17.214  1.00  0.00    -0.034 C
HETATM   18  C26 UNL     1      18.001  20.582  17.372  1.00  0.00     0.016 C
HETATM   19  C27 UNL     1      15.607  20.662  17.287  1.00  0.00     0.043 C
ENDROOT
BRANCH   1  20
HETATM   20  O4  UNL     1      14.061  19.491  18.547  1.00  0.00    -0.254 OA
BRANCH  20  21
HETATM   21  S1  UNL     1      13.883  17.938  19.077  1.00  0.00     0.358 S
HETATM   22  O2  UNL     1      15.163  17.162  18.830  1.00  0.00    -0.176 OA
HETATM   23  O3  UNL     1      13.710  17.978  20.572  1.00  0.00    -0.176 OA
BRANCH  21  24
HETATM   24  N2  UNL     1      12.615  17.152  18.274  1.00  0.00    -0.282 N
ATOM     25  H2  UNL     1      12.768  16.310  17.718  1.00  0.00     0.175 HD
BRANCH  24  26
HETATM   26  C6  UNL     1      11.324  17.735  18.422  1.00  0.00     0.196 C
BRANCH  26  27
HETATM   27  C5  UNL     1      10.557  17.865  17.138  1.00  0.00     0.046 C
BRANCH  27  28
HETATM   28  C4  UNL     1      10.146  19.260  16.803  1.00  0.00     0.105 C
BRANCH  28  29
HETATM   29  C3  UNL     1      10.997  19.784  15.721  1.00  0.00     0.217 C
HETATM   30  N1  UNL     1      12.209  20.500  15.983  1.00  0.00    -0.361 N
ATOM     31  H1  UNL     1      12.494  20.652  16.951  1.00  0.00     0.162 HD
HETATM   32  O1  UNL     1      10.669  19.612  14.535  1.00  0.00    -0.274 OA
BRANCH  30  33
HETATM   33  C2  UNL     1      13.036  21.012  14.921  1.00  0.00     0.118 C
HETATM   34  C1  UNL     1      13.199  22.513  15.068  1.00  0.00     0.026 C
ENDBRANCH  30  33
ENDBRANCH  28  29
ENDBRANCH  27  28
ENDBRANCH  26  27
BRANCH  26  35
HETATM   35  C28 UNL     1      10.467  17.033  19.410  1.00  0.00     0.197 C
HETATM   36  O7  UNL     1       9.722  16.079  19.163  1.00  0.00    -0.646 OA
HETATM   37  O8  UNL     1      10.516  17.501  20.726  1.00  0.00    -0.646 OA
ENDBRANCH  26  35
ENDBRANCH  24  26
ENDBRANCH  21  24
ENDBRANCH  20  21
ENDBRANCH   1  20
BRANCH  14  38
HETATM   38  C21 UNL     1      19.089  24.871  15.108  1.00  0.00     0.154 C
HETATM   39  O5  UNL     1      18.251  25.729  14.921  1.00  0.00    -0.295 OA
BRANCH  38  40
HETATM   40  C22 UNL     1      20.405  25.019  14.478  1.00  0.00     0.242 C
BRANCH  40  41
HETATM   41  O6  UNL     1      20.595  26.365  14.119  1.00  0.00    -0.394 OA
ATOM     42  H6  UNL     1      21.468  26.471  13.760  1.00  0.00     0.209 HD
ENDBRANCH  40  41
ENDBRANCH  38  40
ENDBRANCH  14  38
TORSDOF 12
ENDMDL