MODEL 1
REMARK VINA RESULT: -6.619682062      0.000      0.000
REMARK  13 active torsions:
REMARK  status: ('A' for Active; 'I' for Inactive)
REMARK    1  A    between atoms: C2_2  and  N1_3
REMARK    2  A    between atoms: N1_3  and  C3_6
REMARK    3  A    between atoms: C3_6  and  C4_7
REMARK    4  A    between atoms: C4_7  and  N2_8
REMARK       I    between atoms: N2_8  and  C5_10
REMARK    5  A    between atoms: C5_10  and  C6_12
REMARK    6  A    between atoms: C6_12  and  N3_13
REMARK       I    between atoms: N3_13  and  C7_15
REMARK    7  A    between atoms: C7_15  and  C8_17
REMARK    8  A    between atoms: N4_37  and  C26_38
REMARK    9  A    between atoms: C26_38  and  O5_39
REMARK   10  A    between atoms: C26_38  and  N5_41
REMARK   11  A    between atoms: N5_41  and  C27_43
REMARK   12  A    between atoms: C27_43  and  C28_44
REMARK   13  A    between atoms: C28_44  and  O6_45
ROOT
HETATM    1  C8  UNL     1      21.730  24.437  20.500  1.00  0.00     0.117 C
HETATM    2  C9  UNL     1      21.452  25.218  21.713  1.00  0.00     0.184 C
HETATM    3  C10 UNL     1      22.081  26.533  21.924  1.00  0.00     0.047 C
HETATM    4  O3  UNL     1      20.017  25.299  21.822  1.00  0.00    -0.306 OA
HETATM    5  C11 UNL     1      19.039  24.730  21.102  1.00  0.00     0.295 C
HETATM    6  O4  UNL     1      18.038  24.357  21.820  1.00  0.00    -0.259 OA
HETATM    7  C12 UNL     1      18.856  24.442  19.679  1.00  0.00     0.059 C
HETATM    8  C13 UNL     1      18.262  23.112  19.489  1.00  0.00    -0.007 C
HETATM    9  C14 UNL     1      19.031  21.871  19.433  1.00  0.00     0.028 C
HETATM   10  C15 UNL     1      18.409  20.774  18.639  1.00  0.00     0.004 C
HETATM   11  C16 UNL     1      16.935  20.685  18.618  1.00  0.00     0.000 C
HETATM   12  C17 UNL     1      16.360  20.567  17.208  1.00  0.00     0.000 C
HETATM   13  C18 UNL     1      15.334  21.605  16.911  1.00  0.00     0.000 C
HETATM   14  C19 UNL     1      15.497  22.297  15.574  1.00  0.00     0.000 C
HETATM   15  C20 UNL     1      16.921  22.665  15.322  1.00  0.00     0.000 C
HETATM   16  C21 UNL     1      17.143  24.128  14.966  1.00  0.00     0.000 C
HETATM   17  C22 UNL     1      17.466  24.952  16.224  1.00  0.00     0.000 C
HETATM   18  C23 UNL     1      18.871  25.288  16.413  1.00  0.00     0.006 C
HETATM   19  C24 UNL     1      19.749  24.478  17.335  1.00  0.00     0.059 C
HETATM   20  C25 UNL     1      19.873  24.982  18.726  1.00  0.00     0.036 C
HETATM   21  N4  UNL     1      21.217  25.073  19.282  1.00  0.00    -0.277 N
ENDROOT
BRANCH   1  22
HETATM   22  C7  UNL     1      22.993  23.710  20.380  1.00  0.00     0.267 C
HETATM   23  N3  UNL     1      24.173  24.120  21.050  1.00  0.00    -0.347 N
ATOM     24  H3  UNL     1      24.123  24.962  21.625  1.00  0.00     0.163 HD
HETATM   25  O2  UNL     1      23.134  22.660  19.671  1.00  0.00    -0.266 OA
BRANCH  23  26
HETATM   26  C6  UNL     1      25.432  23.438  20.977  1.00  0.00     0.225 C
BRANCH  26  27
HETATM   27  C5  UNL     1      26.336  24.061  19.967  1.00  0.00     0.235 C
HETATM   28  N2  UNL     1      25.963  24.001  18.601  1.00  0.00    -0.358 N
ATOM     29  H2  UNL     1      25.090  23.535  18.356  1.00  0.00     0.162 HD
HETATM   30  O1  UNL     1      27.393  24.612  20.369  1.00  0.00    -0.272 OA
BRANCH  28  31
HETATM   31  C4  UNL     1      26.762  24.568  17.542  1.00  0.00     0.150 C
BRANCH  31  32
HETATM   32  C3  UNL     1      26.113  25.715  16.826  1.00  0.00     0.251 C
BRANCH  32  33
HETATM   33  N1  UNL     1      26.093  26.921  17.633  1.00  0.00    -0.074 N
ATOM     34  H12 UNL     1      26.757  26.867  18.405  1.00  0.00     0.277 HD
ATOM     35  H11 UNL     1      25.231  26.995  18.174  1.00  0.00     0.277 HD
BRANCH  33  36
HETATM   36  C2  UNL     1      26.313  28.097  16.826  1.00  0.00     0.228 C
HETATM   37  C1  UNL     1      26.088  27.879  15.369  1.00  0.00     0.034 C
ENDBRANCH  33  36
ENDBRANCH  32  33
ENDBRANCH  31  32
ENDBRANCH  28  31
ENDBRANCH  26  27
ENDBRANCH  23  26
ENDBRANCH   1  22
BRANCH  21  38
HETATM   38  C26 UNL     1      22.225  25.879  18.717  1.00  0.00     0.224 C
BRANCH  38  39
HETATM   39  O5  UNL     1      23.415  25.391  18.521  1.00  0.00    -0.332 OA
ATOM     40  H5  UNL     1      24.159  25.748  18.993  1.00  0.00     0.221 HD
ENDBRANCH  38  39
BRANCH  38  41
HETATM   41  N5  UNL     1      22.092  27.226  18.322  1.00  0.00    -0.354 N
ATOM     42  H5  UNL     1      21.575  27.886  18.903  1.00  0.00     0.163 HD
BRANCH  41  43
HETATM   43  C27 UNL     1      22.706  27.665  17.068  1.00  0.00     0.149 C
BRANCH  43  44
HETATM   44  C28 UNL     1      21.918  27.203  15.866  1.00  0.00     0.186 C
BRANCH  44  45
HETATM   45  O6  UNL     1      20.991  28.104  15.425  1.00  0.00    -0.394 OA
HETATM   46  C29 UNL     1      20.332  27.743  14.272  1.00  0.00     0.201 C
ENDBRANCH  44  45
ENDBRANCH  43  44
ENDBRANCH  41  43
ENDBRANCH  38  41
ENDBRANCH  21  38
TORSDOF 13
ENDMDL