MODEL 1
REMARK VINA RESULT: -10.353750921      0.000      0.000
REMARK  14 active torsions:
REMARK  status: ('A' for Active; 'I' for Inactive)
REMARK    1  A    between atoms: O1_2  and  C2_3
REMARK    2  A    between atoms: C2_3  and  C3_5
REMARK    3  A    between atoms: C3_5  and  N1_6
REMARK    4  A    between atoms: C3_5  and  C8_14
REMARK    5  A    between atoms: N1_6  and  O3_7
REMARK    6  A    between atoms: O3_7  and  C4_8
REMARK    7  A    between atoms: C4_8  and  C7_11
REMARK       I    between atoms: C8_14  and  N2_16
REMARK    8  A    between atoms: N2_16  and  C9_18
REMARK    9  A    between atoms: C12_22  and  C13_23
REMARK   10  A    between atoms: C13_23  and  S2_24
REMARK   11  A    between atoms: S2_24  and  C14_25
REMARK   12  A    between atoms: C15_28  and  N4_29
REMARK   13  A    between atoms: N6_34  and  C16_35
REMARK   14  A    between atoms: C19_45  and  C20_46
ROOT
HETATM    1  C9  UNL     1       9.983   4.778  26.587  1.00  0.00     0.187 C
HETATM    2  C10 UNL     1       9.969   6.102  25.892  1.00  0.00     0.111 C
HETATM    3  S1  UNL     1       8.641   7.162  26.495  1.00  0.00    -0.136 SA
HETATM    4  C11 UNL     1       8.592   6.961  28.282  1.00  0.00     0.188 A
HETATM    5  C12 UNL     1       9.084   8.041  29.136  1.00  0.00    -0.003 A
HETATM    6  C19 UNL     1      10.113   7.266  29.520  1.00  0.00     0.121 A
HETATM    7  N10 UNL     1       9.784   6.209  28.648  1.00  0.00    -0.292 N
HETATM    8  C21 UNL     1      10.063   4.962  28.045  1.00  0.00     0.249 C
HETATM    9  O11 UNL     1      10.391   3.973  28.771  1.00  0.00    -0.271 OA
ENDROOT
BRANCH   5  10
HETATM   10  C13 UNL     1       8.646   9.432  29.420  1.00  0.00     0.122 C
BRANCH  10  11
HETATM   11  S2  UNL     1       9.292  10.616  28.244  1.00  0.00    -0.087 SA
BRANCH  11  12
HETATM   12  C14 UNL     1       8.002  11.570  27.447  1.00  0.00     0.180 A
HETATM   13  N3  UNL     1       7.240  11.288  26.384  1.00  0.00    -0.168 N
HETATM   14  C15 UNL     1       6.429  12.330  26.176  1.00  0.00     0.692 A
ATOM     15  H3  UNL     1       7.273  10.433  25.830  1.00  0.00     0.186 HD
HETATM   16  N5  UNL     1       6.706  13.253  27.132  1.00  0.00    -0.124 N
HETATM   17  N6  UNL     1       7.658  12.799  27.906  1.00  0.00    -0.207 N
ATOM     18  H5  UNL     1       6.244  14.158  27.231  1.00  0.00     0.206 HD
BRANCH  14  19
HETATM   19  N4  UNL     1       5.513  12.538  25.277  1.00  0.00    -0.233 N
ATOM     20  H42 UNL     1       5.673  13.168  24.491  1.00  0.00     0.174 HD
ATOM     21  H41 UNL     1       4.567  12.168  25.181  1.00  0.00     0.174 HD
ENDBRANCH  14  19
BRANCH  17  22
HETATM   22  C16 UNL     1       8.211  13.517  29.046  1.00  0.00     0.368 A
HETATM   23  N7  UNL     1       7.872  12.922  30.306  1.00  0.00    -0.319 N
HETATM   24  C17 UNL     1       8.688  12.519  31.208  1.00  0.00     0.196 A
ATOM     25  H7  UNL     1       6.878  12.807  30.504  1.00  0.00     0.166 HD
HETATM   26  N8  UNL     1       8.229  11.936  32.437  1.00  0.00    -0.063 NA
HETATM   27  N9  UNL     1      10.087  12.632  31.005  1.00  0.00    -0.276 N
HETATM   28  C18 UNL     1      10.533  13.204  29.782  1.00  0.00     0.370 A
ATOM     29  H9  UNL     1      10.750  12.315  31.713  1.00  0.00     0.173 HD
HETATM   30  O7  UNL     1      11.759  13.323  29.567  1.00  0.00    -0.238 OA
HETATM   31  O8  UNL     1       9.596  13.629  28.826  1.00  0.00    -0.258 OA
ENDBRANCH  17  22
ENDBRANCH  11  12
ENDBRANCH  10  11
ENDBRANCH   5  10
BRANCH   6  32
HETATM   32  C20 UNL     1      11.223   7.479  30.436  1.00  0.00     0.227 C
HETATM   33  O9  UNL     1      11.084   7.245  31.687  1.00  0.00    -0.643 OA
HETATM   34  O10 UNL     1      12.455   7.924  30.044  1.00  0.00    -0.643 OA
ENDBRANCH   6  32
BRANCH   1  35
HETATM   35  N2  UNL     1       8.831   3.926  26.282  1.00  0.00    -0.341 N
HETATM   36  C8  UNL     1       8.995   2.539  26.184  1.00  0.00     0.292 C
HETATM   37  O6  UNL     1      10.208   2.128  26.349  1.00  0.00    -0.264 OA
ATOM     38  H2  UNL     1       7.910   4.342  26.141  1.00  0.00     0.163 HD
BRANCH  36  39
HETATM   39  C3  UNL     1       7.973   1.507  25.920  1.00  0.00     0.281 C
BRANCH  39  40
HETATM   40  C2  UNL     1       7.151   1.513  24.724  1.00  0.00     0.332 C
HETATM   41  O2  UNL     1       6.213   0.666  24.631  1.00  0.00    -0.256 OA
BRANCH  40  42
HETATM   42  O1  UNL     1       7.283   2.358  23.653  1.00  0.00    -0.320 OA
HETATM   43  C1  UNL     1       6.300   3.342  23.318  1.00  0.00     0.213 C
ENDBRANCH  40  42
ENDBRANCH  39  40
BRANCH  39  44
HETATM   44  N1  UNL     1       7.834   0.678  26.820  1.00  0.00    -0.268 NA
BRANCH  44  45
HETATM   45  O3  UNL     1       7.699  -0.130  27.696  1.00  0.00    -0.186 OA
BRANCH  45  46
HETATM   46  C4  UNL     1       6.752  -0.845  28.374  1.00  0.00     0.183 C
HETATM   47  C5  UNL     1       6.440  -2.106  27.544  1.00  0.00     0.061 C
HETATM   48  C6  UNL     1       5.496   0.016  28.472  1.00  0.00     0.061 C
BRANCH  46  49
HETATM   49  C7  UNL     1       7.124  -1.236  29.733  1.00  0.00     0.212 C
HETATM   50  O4  UNL     1       8.087  -0.642  30.321  1.00  0.00    -0.646 OA
HETATM   51  O5  UNL     1       6.513  -2.222  30.480  1.00  0.00    -0.646 OA
ENDBRANCH  46  49
ENDBRANCH  45  46
ENDBRANCH  44  45
ENDBRANCH  39  44
ENDBRANCH  36  39
ENDBRANCH   1  35
TORSDOF 14
ENDMDL