MODEL 1
REMARK VINA RESULT: -9.193575342      0.000      0.000
REMARK  15 active torsions:
REMARK  status: ('A' for Active; 'I' for Inactive)
REMARK    1  A    between atoms: C2_2  and  O1_3
REMARK    2  A    between atoms: O1_3  and  C3_4
REMARK    3  A    between atoms: C3_4  and  C4_6
REMARK    4  A    between atoms: C8_15  and  C9_16
REMARK    5  A    between atoms: C13_25  and  N5_26
REMARK       I    between atoms: N5_26  and  C14_28
REMARK    6  A    between atoms: C14_28  and  C15_30
REMARK    7  A    between atoms: C15_30  and  S2_31
REMARK    8  A    between atoms: C15_30  and  C20_46
REMARK    9  A    between atoms: S2_31  and  C16_32
REMARK   10  A    between atoms: C16_32  and  C17_33
REMARK   11  A    between atoms: C17_33  and  C18_35
REMARK   12  A    between atoms: C18_35  and  O7_36
REMARK   13  A    between atoms: C18_35  and  N6_38
REMARK   14  A    between atoms: N6_38  and  C19_40
REMARK   15  A    between atoms: C19_40  and  O8_44
ROOT
HETATM    1  N5  UNL     1       9.285   5.075  27.232  1.00  0.00    -0.326 N
ATOM      2  H5  UNL     1       8.299   5.216  27.454  1.00  0.00     0.165 HD
HETATM    3  C14 UNL     1       9.729   3.818  26.812  1.00  0.00     0.238 C
HETATM    4  O5  UNL     1      10.942   3.630  26.537  1.00  0.00    -0.272 OA
ENDROOT
BRANCH   3   5
HETATM    5  C15 UNL     1       8.819   2.657  26.671  1.00  0.00     0.179 C
BRANCH   5   6
HETATM    6  S2  UNL     1       9.724   1.140  26.287  1.00  0.00    -0.142 SA
BRANCH   6   7
HETATM    7  C16 UNL     1       9.145  -0.202  27.338  1.00  0.00     0.158 C
BRANCH   7   8
HETATM    8  C17 UNL     1       9.272   0.217  28.763  1.00  0.00     0.184 C
HETATM    9  O6  UNL     1      10.403   0.558  29.125  1.00  0.00    -0.292 OA
BRANCH   8  10
HETATM   10  C18 UNL     1       8.125   0.230  29.703  1.00  0.00     0.292 C
BRANCH  10  11
HETATM   11  O7  UNL     1       8.469  -0.565  30.803  1.00  0.00    -0.370 OA
ATOM     12  H7  UNL     1       8.001  -0.229  31.559  1.00  0.00     0.212 HD
ENDBRANCH  10  11
BRANCH  10  13
HETATM   13  N6  UNL     1       6.979  -0.309  29.030  1.00  0.00    -0.324 N
ATOM     14  H6  UNL     1       6.557   0.202  28.254  1.00  0.00     0.166 HD
BRANCH  13  15
HETATM   15  C19 UNL     1       6.426  -1.561  29.443  1.00  0.00     0.212 C
HETATM   16  N7  UNL     1       6.848  -2.644  28.898  1.00  0.00    -0.366 N
ATOM     17  H72 UNL     1       7.569  -2.610  28.177  1.00  0.00     0.159 HD
ATOM     18  H71 UNL     1       6.453  -3.537  29.192  1.00  0.00     0.159 HD
BRANCH  15  19
HETATM   19  O8  UNL     1       5.449  -1.607  30.419  1.00  0.00    -0.333 OA
ATOM     20  H8  UNL     1       5.309  -2.400  30.922  1.00  0.00     0.220 HD
ENDBRANCH  15  19
ENDBRANCH  13  15
ENDBRANCH  10  13
ENDBRANCH   8  10
ENDBRANCH   7   8
ENDBRANCH   6   7
ENDBRANCH   5   6
BRANCH   5  21
HETATM   21  C20 UNL     1       7.863   2.924  25.585  1.00  0.00     0.049 A
HETATM   22  C21 UNL     1       8.173   3.820  24.591  1.00  0.00     0.109 A
HETATM   23  N8  UNL     1       7.287   4.049  23.611  1.00  0.00    -0.313 N
HETATM   24  C22 UNL     1       7.646   5.000  22.574  1.00  0.00     0.160 C
HETATM   25  C23 UNL     1       6.096   3.424  23.571  1.00  0.00     0.328 A
HETATM   26  O9  UNL     1       5.278   3.667  22.624  1.00  0.00    -0.246 OA
HETATM   27  N9  UNL     1       5.792   2.548  24.543  1.00  0.00    -0.275 N
HETATM   28  C24 UNL     1       6.648   2.286  25.546  1.00  0.00     0.258 A
ATOM     29  H9  UNL     1       4.891   2.070  24.519  1.00  0.00     0.173 HD
HETATM   30  O10 UNL     1       6.298   1.456  26.422  1.00  0.00    -0.267 OA
ENDBRANCH   5  21
ENDBRANCH   3   5
BRANCH   1  31
HETATM   31  C13 UNL     1      10.209   6.172  27.355  1.00  0.00     0.305 C
HETATM   32  C6  UNL     1      10.169   6.784  28.732  1.00  0.00     0.175 A
HETATM   33  O3  UNL     1      11.213   6.611  29.629  1.00  0.00    -0.278 OA
HETATM   34  N2  UNL     1       9.224   7.499  29.225  1.00  0.00    -0.336 N
HETATM   35  C5  UNL     1      10.887   7.280  30.790  1.00  0.00     0.152 A
HETATM   36  C4  UNL     1       9.574   7.884  30.559  1.00  0.00     0.261 A
HETATM   37  N1  UNL     1      11.643   7.331  31.856  1.00  0.00    -0.381 N
ATOM     38  H12 UNL     1      11.402   7.826  32.714  1.00  0.00     0.158 HD
ATOM     39  H11 UNL     1      12.558   6.910  32.017  1.00  0.00     0.158 HD
HETATM   40  C7  UNL     1       7.963   7.890  28.582  1.00  0.00     0.169 C
HETATM   41  C8  UNL     1       8.133   8.440  27.243  1.00  0.00     0.015 C
HETATM   42  C12 UNL     1       8.992   8.079  26.309  1.00  0.00     0.149 C
HETATM   43  O4  UNL     1       9.955   7.091  26.338  1.00  0.00    -0.329 OA
BRANCH  36  44
HETATM   44  C3  UNL     1       9.555   9.347  30.775  1.00  0.00     0.290 C
HETATM   45  O2  UNL     1       8.661   9.929  31.395  1.00  0.00    -0.262 OA
BRANCH  44  46
HETATM   46  O1  UNL     1      10.602  10.085  30.248  1.00  0.00    -0.320 OA
BRANCH  46  47
HETATM   47  C2  UNL     1      10.446  11.115  29.303  1.00  0.00     0.174 C
HETATM   48  C1  UNL     1      11.190  12.375  29.681  1.00  0.00     0.034 C
ENDBRANCH  46  47
ENDBRANCH  44  46
ENDBRANCH  36  44
BRANCH  41  49
HETATM   49  C9  UNL     1       7.244   9.559  26.833  1.00  0.00     0.085 A
HETATM   50  N3  UNL     1       6.347  10.207  27.542  1.00  0.00    -0.338 N
HETATM   51  C10 UNL     1       5.661  11.165  27.007  1.00  0.00     0.123 A
ATOM     52  H3  UNL     1       6.189   9.953  28.518  1.00  0.00     0.167 HD
HETATM   53  N4  UNL     1       4.659  11.918  27.732  1.00  0.00    -0.082 NA
HETATM   54  C11 UNL     1       5.910  11.466  25.690  1.00  0.00     0.097 A
HETATM   55  S1  UNL     1       7.137  10.327  25.312  1.00  0.00    -0.080 SA
ENDBRANCH  41  49
ENDBRANCH   1  31
TORSDOF 15
ENDMDL