MODEL 5
REMARK VINA RESULT: -11.120066798      2.275      3.309
REMARK  14 active torsions:
REMARK  status: ('A' for Active; 'I' for Inactive)
REMARK    1  A    between atoms: C4_4  and  N1_5
REMARK    2  A    between atoms: N2_9  and  C6_10
REMARK    3  A    between atoms: C6_10  and  C7_11
REMARK       I    between atoms: C7_11  and  N3_13
REMARK    4  A    between atoms: N3_13  and  C8_15
REMARK    5  A    between atoms: C8_15  and  C9_16
REMARK    6  A    between atoms: C9_16  and  C10_17
REMARK    7  A    between atoms: N4_19  and  C12_20
REMARK    8  A    between atoms: C15_28  and  N7_29
REMARK    9  A    between atoms: C17_37  and  O5_38
REMARK   10  A    between atoms: O5_38  and  N10_39
REMARK   11  A    between atoms: N10_39  and  C18_41
REMARK   12  A    between atoms: C19_44  and  C21_46
REMARK   13  A    between atoms: C21_46  and  O6_47
REMARK       I    between atoms: N12_51  and  C23_52
REMARK   14  A    between atoms: C25_56  and  O10_57
ROOT
HETATM    1  C12 UNL     1       9.014   6.816  26.873  1.00  0.00     0.167 A
HETATM    2  N5  UNL     1       9.635   6.237  27.912  1.00  0.00    -0.331 N
ATOM      3  H5  UNL     1       9.816   5.233  27.886  1.00  0.00     0.168 HD
HETATM    4  C13 UNL     1      10.024   6.943  28.986  1.00  0.00     0.148 A
HETATM    5  C14 UNL     1      10.665   6.352  30.063  1.00  0.00     0.290 A
HETATM    6  O4  UNL     1      10.885   5.122  30.026  1.00  0.00    -0.265 OA
HETATM    7  N6  UNL     1      11.051   7.069  31.141  1.00  0.00    -0.154 N
ATOM      8  H6  UNL     1      11.521   6.603  31.917  1.00  0.00     0.187 HD
HETATM    9  C15 UNL     1      10.822   8.391  31.195  1.00  0.00     0.680 A
HETATM   10  N8  UNL     1      10.200   8.958  30.148  1.00  0.00    -0.174 N
ATOM     11  H8  UNL     1      10.025   9.962  30.187  1.00  0.00     0.186 HD
HETATM   12  C16 UNL     1       9.793   8.294  29.049  1.00  0.00     0.155 A
HETATM   13  N9  UNL     1       9.175   8.894  28.024  1.00  0.00    -0.316 N
ATOM     14  H9  UNL     1       8.996   9.898  28.055  1.00  0.00     0.169 HD
HETATM   15  C17 UNL     1       8.782   8.168  26.935  1.00  0.00     0.217 A
ENDROOT
BRANCH   1  16
HETATM   16  N4  UNL     1       8.582   6.107  25.712  1.00  0.00    -0.312 N
HETATM   17  C11 UNL     1       7.380   5.477  25.558  1.00  0.00     0.108 A
HETATM   18  C10 UNL     1       7.274   4.891  24.330  1.00  0.00    -0.006 A
HETATM   19  C25 UNL     1       8.443   5.153  23.677  1.00  0.00     0.089 A
HETATM   20  C24 UNL     1       9.226   5.901  24.550  1.00  0.00     0.135 A
BRANCH  18  21
HETATM   21  C9  UNL     1       6.146   4.101  23.724  1.00  0.00     0.062 C
BRANCH  21  22
HETATM   22  C8  UNL     1       5.583   3.120  24.688  1.00  0.00     0.127 C
BRANCH  22  23
HETATM   23  N3  UNL     1       6.612   2.237  25.179  1.00  0.00    -0.359 N
HETATM   24  C7  UNL     1       6.965   1.088  24.447  1.00  0.00     0.235 C
HETATM   25  O3  UNL     1       6.434   0.765  23.353  1.00  0.00    -0.272 OA
ATOM     26  H3  UNL     1       7.084   2.445  26.058  1.00  0.00     0.162 HD
BRANCH  24  27
HETATM   27  C6  UNL     1       8.020   0.167  24.951  1.00  0.00     0.234 C
BRANCH  27  28
HETATM   28  N2  UNL     1       7.831  -0.009  26.368  1.00  0.00    -0.313 N
HETATM   29  C5  UNL     1       8.857   0.350  27.182  1.00  0.00     0.130 A
HETATM   30  C4  UNL     1       8.791   0.233  28.549  1.00  0.00     0.119 A
HETATM   31  C3  UNL     1       7.620  -0.275  29.098  1.00  0.00     0.049 A
HETATM   32  C2  UNL     1       6.589  -0.633  28.256  1.00  0.00     0.009 A
HETATM   33  C1  UNL     1       5.320  -1.179  28.798  1.00  0.00     0.054 C
HETATM   34  C26 UNL     1       6.678  -0.506  26.884  1.00  0.00     0.253 A
HETATM   35  O11 UNL     1       5.748  -0.828  26.104  1.00  0.00    -0.267 OA
BRANCH  30  36
HETATM   36  N1  UNL     1       9.874   0.610  29.400  1.00  0.00    -0.114 N
HETATM   37  O1  UNL     1       9.947   1.783  29.807  1.00  0.00    -0.532 OA
HETATM   38  O2  UNL     1      10.807  -0.316  29.749  1.00  0.00    -0.532 OA
ENDBRANCH  30  36
ENDBRANCH  27  28
ENDBRANCH  24  27
ENDBRANCH  22  23
ENDBRANCH  21  22
ENDBRANCH  18  21
BRANCH  19  39
HETATM   39  O10 UNL     1       8.814   4.767  22.394  1.00  0.00    -0.359 OA
ATOM     40  H10 UNL     1       9.689   4.697  22.032  1.00  0.00     0.217 HD
ENDBRANCH  19  39
ENDBRANCH   1  16
BRANCH  15  41
HETATM   41  O5  UNL     1       8.139   8.820  25.882  1.00  0.00    -0.201 OA
BRANCH  41  42
HETATM   42  N10 UNL     1       8.350  10.139  25.690  1.00  0.00    -0.088 N
ATOM     43  H10 UNL     1       9.191  10.463  25.213  1.00  0.00     0.213 HD
BRANCH  42  44
HETATM   44  C18 UNL     1       7.368  11.091  26.170  1.00  0.00     0.714 A
HETATM   45  N11 UNL     1       6.150  11.174  25.788  1.00  0.00    -0.204 N
HETATM   46  C19 UNL     1       5.400  12.212  26.434  1.00  0.00     0.147 A
ATOM     47  H11 UNL     1       5.747  10.556  25.085  1.00  0.00     0.179 HD
HETATM   48  C20 UNL     1       4.227  11.629  27.192  1.00  0.00     0.052 C
HETATM   49  C22 UNL     1       6.391  12.822  27.352  1.00  0.00     0.279 A
HETATM   50  O7  UNL     1       6.221  13.793  28.156  1.00  0.00    -0.269 OA
HETATM   51  N12 UNL     1       7.589  12.092  27.149  1.00  0.00    -0.051 N
HETATM   52  C23 UNL     1       8.833  12.299  27.802  1.00  0.00     0.312 C
HETATM   53  O8  UNL     1       8.938  13.216  28.661  1.00  0.00    -0.629 OA
HETATM   54  O9  UNL     1       9.945  11.530  27.531  1.00  0.00    -0.629 OA
BRANCH  46  55
HETATM   55  C21 UNL     1       4.948  13.284  25.463  1.00  0.00     0.205 C
BRANCH  55  56
HETATM   56  O6  UNL     1       6.105  13.988  25.081  1.00  0.00    -0.398 OA
ATOM     57  H6  UNL     1       5.840  14.890  24.952  1.00  0.00     0.209 HD
ENDBRANCH  55  56
ENDBRANCH  46  55
ENDBRANCH  42  44
ENDBRANCH  41  42
ENDBRANCH  15  41
BRANCH   9  58
HETATM   58  N7  UNL     1      11.198   9.080  32.240  1.00  0.00    -0.234 N
ATOM     59  H72 UNL     1      12.011   9.696  32.223  1.00  0.00     0.174 HD
ATOM     60  H71 UNL     1      10.674   9.015  33.114  1.00  0.00     0.174 HD
ENDBRANCH   9  58
TORSDOF 14
ENDMDL