MODEL 1
REMARK VINA RESULT: -7.526148665      0.000      0.000
REMARK  19 active torsions:
REMARK  status: ('A' for Active; 'I' for Inactive)
REMARK    1  A    between atoms: C2_2  and  C4_4
REMARK    2  A    between atoms: C6_6  and  O1_7
REMARK    3  A    between atoms: C8_10  and  O2_11
REMARK    4  A    between atoms: O2_11  and  C9_12
REMARK    5  A    between atoms: C13_17  and  O4_18
REMARK    6  A    between atoms: C13_17  and  C14_20
REMARK    7  A    between atoms: C15_24  and  C16_25
REMARK    8  A    between atoms: C16_25  and  O9_27
REMARK    9  A    between atoms: C18_29  and  O10_30
REMARK   10  A    between atoms: C20_35  and  O13_36
REMARK   11  A    between atoms: O13_36  and  C21_37
REMARK   12  A    between atoms: C21_37  and  C22_39
REMARK   13  A    between atoms: C22_39  and  C23_40
REMARK   14  A    between atoms: C22_39  and  N1_49
REMARK   15  A    between atoms: C23_40  and  O15_41
REMARK   16  A    between atoms: C23_40  and  C24_43
REMARK   17  A    between atoms: C24_43  and  O16_44
REMARK   18  A    between atoms: C24_43  and  C25_46
REMARK   19  A    between atoms: C25_46  and  O17_47
ROOT
HETATM    1  C4  UNL     1       9.344   7.001  29.244  1.00  0.00     0.075 C
HETATM    2  C5  UNL     1       8.072   7.738  28.843  1.00  0.00     0.061 C
HETATM    3  C6  UNL     1       8.181   9.116  28.388  1.00  0.00     0.155 C
HETATM    4  C7  UNL     1       8.387  10.278  29.233  1.00  0.00     0.033 C
HETATM    5  C8  UNL     1       7.562  11.479  28.940  1.00  0.00     0.095 C
HETATM    6  C11 UNL     1       7.864  12.568  29.633  1.00  0.00     0.023 C
HETATM    7  C12 UNL     1       7.121  13.862  29.446  1.00  0.00     0.053 C
HETATM    8  C13 UNL     1       8.926  12.570  30.643  1.00  0.00     0.283 C
HETATM    9  O7  UNL     1       9.361  11.372  31.047  1.00  0.00    -0.310 OA
HETATM   10  C15 UNL     1       8.624  10.216  30.683  1.00  0.00     0.239 C
HETATM   11  C18 UNL     1       9.592   9.111  31.114  1.00  0.00     0.243 C
HETATM   12  O11 UNL     1       8.840   7.908  31.377  1.00  0.00    -0.276 OA
HETATM   13  C19 UNL     1       9.249   6.737  30.662  1.00  0.00     0.275 C
HETATM   14  O12 UNL     1       9.457   5.720  31.279  1.00  0.00    -0.264 OA
HETATM   15  C20 UNL     1      10.738   8.884  30.219  1.00  0.00     0.200 C
HETATM   16  C26 UNL     1      10.571   7.905  29.108  1.00  0.00     0.062 C
ENDROOT
BRANCH  15  17
HETATM   17  O13 UNL     1      11.889   8.486  30.988  1.00  0.00    -0.308 OA
BRANCH  17  18
HETATM   18  C21 UNL     1      13.117   9.062  30.902  1.00  0.00     0.291 C
HETATM   19  O14 UNL     1      13.753   9.021  29.824  1.00  0.00    -0.263 OA
BRANCH  18  20
HETATM   20  C22 UNL     1      13.652   9.732  32.148  1.00  0.00     0.286 C
BRANCH  20  21
HETATM   21  C23 UNL     1      12.750  10.859  32.495  1.00  0.00     0.187 C
BRANCH  21  22
HETATM   22  O15 UNL     1      12.628  11.832  31.528  1.00  0.00    -0.390 OA
ATOM     23  H15 UNL     1      12.265  12.658  31.828  1.00  0.00     0.210 HD
ENDBRANCH  21  22
BRANCH  21  24
HETATM   24  C24 UNL     1      12.970  11.438  33.873  1.00  0.00     0.173 C
BRANCH  24  25
HETATM   25  O16 UNL     1      13.966  12.410  33.892  1.00  0.00    -0.391 OA
ATOM     26  H16 UNL     1      14.072  12.807  34.749  1.00  0.00     0.210 HD
ENDBRANCH  24  25
BRANCH  24  27
HETATM   27  C25 UNL     1      11.730  12.006  34.510  1.00  0.00     0.198 C
BRANCH  27  28
HETATM   28  O17 UNL     1      10.764  12.069  33.477  1.00  0.00    -0.398 OA
ATOM     29  H17 UNL     1      11.234  12.358  32.704  1.00  0.00     0.209 HD
ENDBRANCH  27  28
ENDBRANCH  24  27
ENDBRANCH  21  24
ENDBRANCH  20  21
BRANCH  20  30
HETATM   30  N1  UNL     1      15.038  10.025  32.024  1.00  0.00    -0.138 N
HETATM   31  O18 UNL     1      15.449  11.187  31.725  1.00  0.00    -0.536 OA
HETATM   32  O19 UNL     1      16.012   9.084  32.236  1.00  0.00    -0.536 OA
ENDBRANCH  20  30
ENDBRANCH  18  20
ENDBRANCH  17  18
ENDBRANCH  15  17
BRANCH  11  33
HETATM   33  O10 UNL     1      10.080   9.440  32.384  1.00  0.00    -0.360 OA
ATOM     34  H10 UNL     1      11.004   9.223  32.406  1.00  0.00     0.213 HD
ENDBRANCH  11  33
BRANCH  10  35
HETATM   35  C16 UNL     1       7.500  10.104  31.594  1.00  0.00     0.304 C
HETATM   36  O8  UNL     1       6.452   9.484  31.216  1.00  0.00    -0.261 OA
BRANCH  35  37
HETATM   37  O9  UNL     1       7.377  10.592  32.884  1.00  0.00    -0.324 OA
HETATM   38  C17 UNL     1       7.353   9.782  34.031  1.00  0.00     0.213 C
ENDBRANCH  35  37
ENDBRANCH  10  35
BRANCH   1  39
HETATM   39  C2  UNL     1       9.600   5.843  28.405  1.00  0.00    -0.075 C
HETATM   40  C1  UNL     1      10.225   4.756  28.755  1.00  0.00     0.015 C
HETATM   41  C3  UNL     1       9.064   5.890  26.979  1.00  0.00     0.044 C
ENDBRANCH   1  39
BRANCH   3  42
HETATM   42  O1  UNL     1       7.020   9.350  27.571  1.00  0.00    -0.391 OA
ATOM     43  H1  UNL     1       6.282   9.360  28.168  1.00  0.00     0.210 HD
ENDBRANCH   3  42
BRANCH   5  44
HETATM   44  O2  UNL     1       6.532  11.631  28.061  1.00  0.00    -0.278 OA
BRANCH  44  45
HETATM   45  C9  UNL     1       6.590  12.104  26.761  1.00  0.00     0.260 C
HETATM   46  C10 UNL     1       5.609  13.078  26.211  1.00  0.00     0.126 C
HETATM   47  O3  UNL     1       7.492  11.702  26.025  1.00  0.00    -0.265 OA
ENDBRANCH  44  45
ENDBRANCH   5  44
BRANCH   8  48
HETATM   48  O4  UNL     1       8.507  13.293  31.800  1.00  0.00    -0.353 OA
ATOM     49  H4  UNL     1       7.601  13.089  32.003  1.00  0.00     0.214 HD
ENDBRANCH   8  48
BRANCH   8  50
HETATM   50  C14 UNL     1      10.063  13.390  30.129  1.00  0.00     0.244 C
HETATM   51  O5  UNL     1      10.843  13.996  30.891  1.00  0.00    -0.644 OA
HETATM   52  O6  UNL     1      10.319  13.526  28.743  1.00  0.00    -0.644 OA
ENDBRANCH   8  50
TORSDOF 19
ENDMDL