MODEL 1
REMARK VINA RESULT: -10.258405348      0.000      0.000
REMARK  15 active torsions:
REMARK  status: ('A' for Active; 'I' for Inactive)
REMARK    1  A    between atoms: O1_2  and  C2_3
REMARK    2  A    between atoms: C2_3  and  C3_4
REMARK    3  A    between atoms: N1_11  and  C7_12
REMARK    4  A    between atoms: N4_19  and  C10_20
REMARK    5  A    between atoms: C10_20  and  C11_21
REMARK       I    between atoms: C11_21  and  N5_23
REMARK    6  A    between atoms: N5_23  and  C12_25
REMARK    7  A    between atoms: C12_25  and  C13_26
REMARK    8  A    between atoms: C12_25  and  C15_32
REMARK    9  A    between atoms: C13_26  and  C14_27
REMARK   10  A    between atoms: C14_27  and  N6_28
REMARK       I    between atoms: C15_32  and  N7_34
REMARK   11  A    between atoms: N7_34  and  N8_36
REMARK   12  A    between atoms: C20_48  and  C21_49
REMARK   13  A    between atoms: N11_50  and  O8_52
REMARK   14  A    between atoms: C24_57  and  C25_58
REMARK   15  A    between atoms: C25_58  and  O10_59
ROOT
HETATM    1  C7  UNL     1       8.893   8.252  28.917  1.00  0.00     0.688 A
HETATM    2  N2  UNL     1       9.439   7.452  29.848  1.00  0.00    -0.172 N
ATOM      3  H2  UNL     1       9.596   7.712  30.822  1.00  0.00     0.186 HD
HETATM    4  C8  UNL     1       9.753   6.248  29.305  1.00  0.00     0.168 A
HETATM    5  N3  UNL     1      10.293   5.094  29.696  1.00  0.00    -0.334 N
ATOM      6  H3  UNL     1      10.585   5.000  30.669  1.00  0.00     0.168 HD
HETATM    7  C9  UNL     1      10.471   4.049  28.872  1.00  0.00     0.202 A
HETATM    8  N4  UNL     1      10.100   4.120  27.555  1.00  0.00    -0.277 N
HETATM    9  N9  UNL     1       9.565   5.257  27.157  1.00  0.00    -0.279 N
ATOM     10  H9  UNL     1       9.286   5.313  26.178  1.00  0.00     0.189 HD
HETATM   11  C16 UNL     1       9.353   6.342  27.904  1.00  0.00     0.180 A
HETATM   12  N10 UNL     1       8.851   7.554  27.746  1.00  0.00    -0.171 N
ATOM     13  H10 UNL     1       8.482   7.918  26.868  1.00  0.00     0.186 HD
ENDROOT
BRANCH   1  14
HETATM   14  N1  UNL     1       8.425   9.569  29.126  1.00  0.00    -0.149 N
HETATM   15  C2  UNL     1       7.079   9.883  29.640  1.00  0.00     0.360 C
HETATM   16  O4  UNL     1       6.507  10.879  28.873  1.00  0.00    -0.289 OA
HETATM   17  C4  UNL     1       7.118  11.197  27.694  1.00  0.00     0.203 C
HETATM   18  C5  UNL     1       8.592  11.498  27.777  1.00  0.00     0.092 C
HETATM   19  O7  UNL     1       6.511  12.405  27.249  1.00  0.00    -0.316 OA
HETATM   20  C24 UNL     1       6.727  10.209  26.639  1.00  0.00     0.211 C
HETATM   21  C6  UNL     1       9.285  10.682  28.827  1.00  0.00     0.153 C
HETATM   22  C17 UNL     1       5.425  12.047  26.497  1.00  0.00     0.168 C
HETATM   23  C18 UNL     1       5.454  12.792  25.193  1.00  0.00     0.069 C
HETATM   24  C23 UNL     1       4.195  12.225  27.308  1.00  0.00     0.069 C
HETATM   25  O9  UNL     1       5.526  10.697  26.169  1.00  0.00    -0.342 OA
HETATM   26  C19 UNL     1       4.778  14.114  25.223  1.00  0.00     0.015 C
HETATM   27  C20 UNL     1       3.345  13.859  25.704  1.00  0.00     0.026 C
HETATM   28  C22 UNL     1       3.498  13.546  27.184  1.00  0.00     0.015 C
BRANCH  15  29
HETATM   29  O1  UNL     1       6.382   8.705  29.514  1.00  0.00    -0.334 OA
HETATM   30  C1  UNL     1       5.153   8.615  30.077  1.00  0.00     0.208 C
ENDBRANCH  15  29
BRANCH  15  31
HETATM   31  C3  UNL     1       7.164  10.318  31.040  1.00  0.00     0.264 C
HETATM   32  O2  UNL     1       6.627  11.395  31.455  1.00  0.00    -0.642 OA
HETATM   33  O3  UNL     1       7.838   9.588  31.991  1.00  0.00    -0.642 OA
ENDBRANCH  15  31
BRANCH  27  34
HETATM   34  C21 UNL     1       2.464  14.981  25.412  1.00  0.00     0.091 C
HETATM   35  N11 UNL     1       2.553  15.609  24.300  1.00  0.00    -0.284 N
ATOM     36  H11 UNL     1       1.922  16.391  24.122  1.00  0.00     0.192 HD
BRANCH  35  37
HETATM   37  O8  UNL     1       3.470  15.263  23.340  1.00  0.00    -0.291 OA
ATOM     38  H8  UNL     1       3.213  15.044  22.452  1.00  0.00     0.244 HD
ENDBRANCH  35  37
ENDBRANCH  27  34
BRANCH  20  39
HETATM   39  C25 UNL     1       7.706  10.070  25.525  1.00  0.00     0.201 C
BRANCH  39  40
HETATM   40  O10 UNL     1       7.554   8.777  24.994  1.00  0.00    -0.398 OA
ATOM     41  H10 UNL     1       8.388   8.333  25.090  1.00  0.00     0.209 HD
ENDBRANCH  39  40
ENDBRANCH  20  39
ENDBRANCH   1  14
BRANCH   8  42
HETATM   42  C10 UNL     1      10.258   3.033  26.622  1.00  0.00     0.252 C
BRANCH  42  43
HETATM   43  C11 UNL     1       8.941   2.586  26.004  1.00  0.00     0.238 C
HETATM   44  O5  UNL     1       8.338   3.551  25.460  1.00  0.00    -0.272 OA
HETATM   45  N5  UNL     1       8.505   1.279  26.052  1.00  0.00    -0.346 N
ATOM     46  H5  UNL     1       9.151   0.685  26.572  1.00  0.00     0.163 HD
BRANCH  45  47
HETATM   47  C12 UNL     1       7.399   0.551  25.571  1.00  0.00     0.179 C
BRANCH  47  48
HETATM   48  C13 UNL     1       7.356   0.342  24.095  1.00  0.00     0.062 C
BRANCH  48  49
HETATM   49  C14 UNL     1       6.534   1.321  23.327  1.00  0.00     0.232 C
BRANCH  49  50
HETATM   50  N6  UNL     1       5.115   1.107  23.365  1.00  0.00    -0.079 N
ATOM     51  H63 UNL     1       4.914   0.108  23.391  1.00  0.00     0.274 HD
ATOM     52  H62 UNL     1       4.745   1.391  24.272  1.00  0.00     0.274 HD
ATOM     53  H61 UNL     1       4.580   1.550  22.618  1.00  0.00     0.274 HD
ENDBRANCH  49  50
ENDBRANCH  48  49
ENDBRANCH  47  48
BRANCH  47  54
HETATM   54  C15 UNL     1       7.105  -0.733  26.287  1.00  0.00     0.258 C
HETATM   55  O6  UNL     1       7.254  -0.775  27.532  1.00  0.00    -0.269 OA
HETATM   56  N7  UNL     1       6.656  -1.921  25.592  1.00  0.00    -0.275 N
ATOM     57  H7  UNL     1       6.532  -1.927  24.579  1.00  0.00     0.189 HD
BRANCH  56  58
HETATM   58  N8  UNL     1       6.402  -3.047  26.349  1.00  0.00    -0.343 N
ATOM     59  H82 UNL     1       7.100  -3.788  26.420  1.00  0.00     0.176 HD
ATOM     60  H81 UNL     1       5.501  -3.102  26.825  1.00  0.00     0.176 HD
ENDBRANCH  56  58
ENDBRANCH  47  54
ENDBRANCH  45  47
ENDBRANCH  42  43
ENDBRANCH   8  42
TORSDOF 15
ENDMDL