MODEL 5
REMARK VINA RESULT: -9.159606484      3.570      5.149
REMARK  16 active torsions:
REMARK  status: ('A' for Active; 'I' for Inactive)
REMARK       I    between atoms: C2_2  and  N1_4
REMARK       I    between atoms: N1_4  and  C3_5
REMARK    1  A    between atoms: N1_4  and  C16_41
REMARK    2  A    between atoms: C3_5  and  O3_7
REMARK    3  A    between atoms: O3_7  and  C4_8
REMARK    4  A    between atoms: C4_8  and  C5_9
REMARK    5  A    between atoms: C6_10  and  C7_11
REMARK    6  A    between atoms: C9_17  and  N3_18
REMARK    7  A    between atoms: C10_22  and  N4_23
REMARK    8  A    between atoms: C12_25  and  S1_26
REMARK    9  A    between atoms: S1_26  and  N5_27
REMARK   10  A    between atoms: C14_37  and  C15_38
REMARK   11  A    between atoms: C16_41  and  C17_42
REMARK   12  A    between atoms: C16_41  and  C20_54
REMARK   13  A    between atoms: C17_42  and  S2_43
REMARK   14  A    between atoms: S2_43  and  C18_44
REMARK   15  A    between atoms: C20_54  and  O10_55
REMARK   16  A    between atoms: C20_54  and  O11_57
ROOT
HETATM    1  C5  UNL     1       8.572   7.308  29.585  1.00  0.00     0.011 A
HETATM    2  C6  UNL     1       9.332   6.513  28.826  1.00  0.00     0.127 A
HETATM    3  N2  UNL     1       9.128   6.383  27.389  1.00  0.00    -0.261 N
HETATM    4  C8  UNL     1       9.704   5.604  26.355  1.00  0.00     0.263 C
HETATM    5  O6  UNL     1      10.309   4.544  26.436  1.00  0.00    -0.270 OA
HETATM    6  C9  UNL     1       9.426   6.340  25.070  1.00  0.00     0.307 C
HETATM    7  C10 UNL     1       8.064   6.885  25.323  1.00  0.00     0.213 C
HETATM    8  C13 UNL     1       8.084   7.155  26.808  1.00  0.00     0.115 A
HETATM    9  N8  UNL     1       7.408   7.907  27.541  1.00  0.00    -0.359 N
ATOM     10  H8  UNL     1       6.669   8.429  27.071  1.00  0.00     0.162 HD
HETATM   11  C14 UNL     1       7.523   8.135  28.936  1.00  0.00     0.218 A
ENDROOT
BRANCH   1  12
HETATM   12  C4  UNL     1       8.788   7.473  31.024  1.00  0.00     0.220 C
BRANCH  12  13
HETATM   13  O3  UNL     1       8.929   8.844  31.458  1.00  0.00    -0.299 OA
BRANCH  13  14
HETATM   14  C3  UNL     1       9.679   9.710  30.688  1.00  0.00     0.374 C
HETATM   15  N1  UNL     1       9.378  11.029  30.294  1.00  0.00    -0.226 N
HETATM   16  C2  UNL     1       8.220  11.636  30.803  1.00  0.00     0.229 C
HETATM   17  C1  UNL     1       7.317  10.964  31.741  1.00  0.00     0.118 C
HETATM   18  O1  UNL     1       7.911  12.796  30.472  1.00  0.00    -0.273 OA
HETATM   19  O2  UNL     1      10.796   9.217  30.291  1.00  0.00    -0.237 OA
BRANCH  15  20
HETATM   20  C16 UNL     1      10.307  11.702  29.388  1.00  0.00     0.085 C
BRANCH  20  21
HETATM   21  C17 UNL     1       9.766  12.143  28.091  1.00  0.00     0.083 C
BRANCH  21  22
HETATM   22  S2  UNL     1       8.802  11.167  27.040  1.00  0.00    -0.073 SA
BRANCH  22  23
HETATM   23  C18 UNL     1       7.065  11.501  26.891  1.00  0.00     0.134 A
HETATM   24  N9  UNL     1       6.022  11.102  27.585  1.00  0.00    -0.286 N
HETATM   25  N10 UNL     1       4.841  11.476  27.288  1.00  0.00    -0.279 N
ATOM     26  H9  UNL     1       6.161  10.477  28.380  1.00  0.00     0.188 HD
HETATM   27  C19 UNL     1       4.679  12.294  26.244  1.00  0.00     0.159 A
ATOM     28  H10 UNL     1       4.039  11.159  27.833  1.00  0.00     0.189 HD
HETATM   29  N11 UNL     1       3.547  12.786  25.787  1.00  0.00    -0.379 N
HETATM   30  S3  UNL     1       6.278  12.506  25.705  1.00  0.00    -0.026 SA
ATOM     31 2H11 UNL     1       2.589  12.659  26.110  1.00  0.00     0.158 HD
ATOM     32 1H11 UNL     1       3.424  13.411  24.990  1.00  0.00     0.158 HD
ENDBRANCH  22  23
ENDBRANCH  21  22
ENDBRANCH  20  21
BRANCH  20  33
HETATM   33  C20 UNL     1      11.345  12.530  30.044  1.00  0.00     0.306 C
BRANCH  33  34
HETATM   34  O10 UNL     1      11.715  13.701  29.456  1.00  0.00    -0.366 OA
ATOM     35  H10 UNL     1      12.472  14.162  29.796  1.00  0.00     0.213 HD
ENDBRANCH  33  34
BRANCH  33  36
HETATM   36  O11 UNL     1      12.503  11.720  30.157  1.00  0.00    -0.366 OA
ATOM     37  H11 UNL     1      12.312  10.904  29.711  1.00  0.00     0.213 HD
ENDBRANCH  33  36
ENDBRANCH  20  33
ENDBRANCH  15  20
ENDBRANCH  13  14
ENDBRANCH  12  13
ENDBRANCH   1  12
BRANCH   2  38
HETATM   38  C7  UNL     1      10.423   5.751  29.373  1.00  0.00     0.227 C
HETATM   39  O4  UNL     1      11.546   6.261  29.687  1.00  0.00    -0.643 OA
HETATM   40  O5  UNL     1      10.399   4.384  29.621  1.00  0.00    -0.643 OA
ENDBRANCH   2  38
BRANCH  11  41
HETATM   41  C15 UNL     1       6.213   8.177  29.575  1.00  0.00     0.201 C
HETATM   42  O8  UNL     1       5.685   7.105  29.971  1.00  0.00    -0.646 OA
HETATM   43  O9  UNL     1       5.507   9.350  29.761  1.00  0.00    -0.646 OA
ENDBRANCH  11  41
BRANCH   6  44
HETATM   44  N3  UNL     1      10.353   7.444  24.926  1.00  0.00    -0.064 N
ATOM     45  H33 UNL     1      11.167   7.343  25.531  1.00  0.00     0.275 HD
ATOM     46  H32 UNL     1      10.833   7.426  24.027  1.00  0.00     0.275 HD
ATOM     47  H31 UNL     1       9.866   8.327  25.083  1.00  0.00     0.275 HD
ENDBRANCH   6  44
BRANCH   7  48
HETATM   48  N4  UNL     1       7.042   5.980  24.950  1.00  0.00    -0.269 N
HETATM   49  C11 UNL     1       7.169   4.656  24.640  1.00  0.00     0.151 A
HETATM   50  C12 UNL     1       5.932   4.224  24.361  1.00  0.00     0.151 A
HETATM   51  N6  UNL     1       5.082   5.153  24.469  1.00  0.00    -0.273 N
HETATM   52  N7  UNL     1       5.743   6.278  24.841  1.00  0.00    -0.019 NA
ATOM     53  H6  UNL     1       4.078   5.073  24.306  1.00  0.00     0.185 HD
BRANCH  50  54
HETATM   54  S1  UNL     1       5.599   2.538  24.064  1.00  0.00     0.163 S
HETATM   55  O7  UNL     1       6.358   2.444  25.482  1.00  0.00    -0.229 OA
BRANCH  54  56
HETATM   56  N5  UNL     1       5.079   1.824  23.238  1.00  0.00    -0.344 N
ATOM     57  H52 UNL     1       4.230   1.276  23.098  1.00  0.00     0.166 HD
ATOM     58  H51 UNL     1       5.254   1.445  22.307  1.00  0.00     0.166 HD
ENDBRANCH  54  56
ENDBRANCH  50  54
ENDBRANCH   7  48
TORSDOF 16
ENDMDL