MODEL 1
REMARK VINA RESULT: -7.547582568      0.000      0.000
REMARK  13 active torsions:
REMARK  status: ('A' for Active; 'I' for Inactive)
REMARK    1  A    between atoms: O1_2  and  C2_3
REMARK    2  A    between atoms: C2_3  and  C3_4
REMARK    3  A    between atoms: C3_4  and  O2_5
REMARK    4  A    between atoms: O2_5  and  N1_6
REMARK    5  A    between atoms: N1_6  and  S1_8
REMARK    6  A    between atoms: S1_8  and  C4_10
REMARK    7  A    between atoms: C4_10  and  C5_11
REMARK    8  A    between atoms: C6_16  and  N4_17
REMARK    9  A    between atoms: C9_23  and  C10_24
REMARK   10  A    between atoms: C14_31  and  O7_32
REMARK   11  A    between atoms: C16_38  and  C17_39
REMARK   12  A    between atoms: C17_39  and  C18_40
REMARK   13  A    between atoms: C18_40  and  O9_41
ROOT
HETATM    1  C5  UNL     1       8.150   8.363  27.529  1.00  0.00     0.213 C
HETATM    2  N2  UNL     1       8.348   9.632  26.869  1.00  0.00    -0.298 N
ATOM      3  H2  UNL     1       9.306   9.952  26.729  1.00  0.00     0.183 HD
HETATM    4  N3  UNL     1       7.328  10.439  26.417  1.00  0.00    -0.133 N
ATOM      5  H3  UNL     1       7.273  10.565  25.407  1.00  0.00     0.205 HD
HETATM    6  C6  UNL     1       6.429  11.060  27.117  1.00  0.00     0.713 C
HETATM    7  N5  UNL     1       6.342  11.009  28.536  1.00  0.00    -0.094 N
ATOM      8  H5  UNL     1       5.422  10.830  28.936  1.00  0.00     0.213 HD
HETATM    9  O4  UNL     1       7.348  11.172  29.389  1.00  0.00    -0.242 OA
HETATM   10  C9  UNL     1       7.184  12.201  30.316  1.00  0.00     0.192 C
HETATM   11  C11 UNL     1       5.730  12.140  30.768  1.00  0.00     0.064 C
HETATM   12  C12 UNL     1       5.543  13.120  31.899  1.00  0.00     0.078 C
HETATM   13  S2  UNL     1       7.139  13.009  32.750  1.00  0.00    -0.157 SA
HETATM   14  C13 UNL     1       7.983  11.931  31.557  1.00  0.00     0.130 C
HETATM   15  C14 UNL     1       9.417  12.259  31.545  1.00  0.00     0.190 C
HETATM   16  C15 UNL     1      10.019  11.737  32.822  1.00  0.00     0.101 A
HETATM   17  N6  UNL     1       9.448  11.766  34.039  1.00  0.00    -0.260 N
ATOM     18  H6  UNL     1       8.524  12.147  34.239  1.00  0.00     0.194 HD
HETATM   19  O8  UNL     1      10.237  11.246  34.917  1.00  0.00    -0.239 OA
HETATM   20  C16 UNL     1      11.336  10.860  34.328  1.00  0.00     0.116 A
HETATM   21  C19 UNL     1      11.237  11.157  32.977  1.00  0.00     0.157 A
HETATM   22  O10 UNL     1      12.140  10.940  31.954  1.00  0.00    -0.231 OA
HETATM   23  N7  UNL     1      11.996  10.328  30.740  1.00  0.00    -0.229 N
ATOM     24  H7  UNL     1      12.088  10.909  29.908  1.00  0.00     0.198 HD
HETATM   25  C20 UNL     1      11.727   8.946  30.546  1.00  0.00     0.241 C
HETATM   26  O11 UNL     1      12.392   8.248  29.712  1.00  0.00    -0.271 OA
HETATM   27  C21 UNL     1      10.679   8.157  31.254  1.00  0.00     0.114 C
HETATM   28  C22 UNL     1       9.471   7.953  30.355  1.00  0.00     0.112 C
HETATM   29  C23 UNL     1       9.833   7.264  29.088  1.00  0.00     0.219 C
HETATM   30  O12 UNL     1      10.481   6.185  29.069  1.00  0.00    -0.274 OA
HETATM   31  N8  UNL     1       9.455   7.814  27.836  1.00  0.00    -0.338 N
ATOM     32  H8  UNL     1      10.156   7.823  27.095  1.00  0.00     0.164 HD
ENDROOT
BRANCH   1  33
HETATM   33  C4  UNL     1       7.554   7.361  26.527  1.00  0.00     0.181 C
BRANCH  33  34
HETATM   34  S1  UNL     1       8.763   6.610  25.501  1.00  0.00     0.137 S
HETATM   35  O3  UNL     1       9.728   7.869  24.877  1.00  0.00    -0.234 OA
BRANCH  34  36
HETATM   36  N1  UNL     1       7.907   5.982  24.110  1.00  0.00    -0.214 N
ATOM     37  H1  UNL     1       7.076   6.406  23.698  1.00  0.00     0.205 HD
BRANCH  36  38
HETATM   38  O2  UNL     1       8.497   4.866  23.665  1.00  0.00    -0.270 OA
BRANCH  38  39
HETATM   39  C3  UNL     1       7.524   3.966  23.235  1.00  0.00     0.228 C
BRANCH  39  40
HETATM   40  C2  UNL     1       6.317   3.995  24.109  1.00  0.00     0.195 C
BRANCH  40  41
HETATM   41  O1  UNL     1       5.185   4.492  23.521  1.00  0.00    -0.394 OA
HETATM   42  C1  UNL     1       4.421   5.195  24.433  1.00  0.00     0.201 C
ENDBRANCH  40  41
ENDBRANCH  39  40
ENDBRANCH  38  39
ENDBRANCH  36  38
ENDBRANCH  34  36
ENDBRANCH  33  34
ENDBRANCH   1  33
BRANCH   6  43
HETATM   43  N4  UNL     1       5.426  11.871  26.455  1.00  0.00    -0.224 N
HETATM   44  C7  UNL     1       5.859  12.670  25.317  1.00  0.00     0.168 C
HETATM   45  C8  UNL     1       4.054  11.913  26.871  1.00  0.00     0.168 C
ENDBRANCH   6  43
BRANCH  10  46
HETATM   46  C10 UNL     1       7.484  13.463  29.631  1.00  0.00     0.213 C
HETATM   47  O5  UNL     1       6.915  14.561  29.947  1.00  0.00    -0.646 OA
HETATM   48  O6  UNL     1       8.407  13.594  28.585  1.00  0.00    -0.646 OA
ENDBRANCH  10  46
BRANCH  15  49
HETATM   49  O7  UNL     1       9.705  13.624  31.403  1.00  0.00    -0.388 OA
ATOM     50  H7  UNL     1      10.187  13.850  30.616  1.00  0.00     0.210 HD
ENDBRANCH  15  49
BRANCH  20  51
HETATM   51  C17 UNL     1      12.476  10.208  35.077  1.00  0.00     0.096 C
BRANCH  51  52
HETATM   52  C18 UNL     1      13.792  10.480  34.414  1.00  0.00     0.170 C
BRANCH  52  53
HETATM   53  O9  UNL     1      14.111   9.367  33.634  1.00  0.00    -0.400 OA
ATOM     54  H9  UNL     1      14.476   8.705  34.211  1.00  0.00     0.209 HD
ENDBRANCH  52  53
ENDBRANCH  51  52
ENDBRANCH  20  51
TORSDOF 13
ENDMDL