MODEL 1
REMARK VINA RESULT: -9.377706183      0.000      0.000
REMARK  18 active torsions:
REMARK  status: ('A' for Active; 'I' for Inactive)
REMARK    1  A    between atoms: O1_2  and  C2_3
REMARK    2  A    between atoms: C2_3  and  C3_5
REMARK    3  A    between atoms: C4_7  and  C5_8
REMARK    4  A    between atoms: C5_8  and  C6_9
REMARK    5  A    between atoms: C5_8  and  C10_17
REMARK    6  A    between atoms: C6_9  and  C7_10
REMARK    7  A    between atoms: C7_10  and  C8_11
REMARK    8  A    between atoms: C8_11  and  N1_12
REMARK       I    between atoms: N1_12  and  C9_14
REMARK    9  A    between atoms: C10_17  and  O5_19
REMARK   10  A    between atoms: O5_19  and  C11_20
REMARK   11  A    between atoms: N4_26  and  C14_27
REMARK   12  A    between atoms: C14_27  and  O7_28
REMARK   13  A    between atoms: C14_27  and  C15_30
REMARK   14  A    between atoms: C15_30  and  C17_32
REMARK   15  A    between atoms: C15_30  and  N5_35
REMARK   16  A    between atoms: C17_32  and  O8_33
REMARK       I    between atoms: N5_35  and  C18_37
REMARK   17  A    between atoms: C21_43  and  C22_44
REMARK   18  A    between atoms: C24_48  and  O12_49
ROOT
HETATM    1  C11 UNL     1       7.919   6.804  26.345  1.00  0.00     0.176 C
HETATM    2  C12 UNL     1       7.085   7.347  25.200  1.00  0.00     0.134 C
HETATM    3  S2  UNL     1       5.948   5.969  24.780  1.00  0.00    -0.022 SA
HETATM    4  N3  UNL     1       6.888   4.470  25.060  1.00  0.00    -0.169 N
HETATM    5  C13 UNL     1       6.507   3.207  24.822  1.00  0.00     0.364 A
HETATM    6  O6  UNL     1       5.380   2.880  24.357  1.00  0.00    -0.243 OA
HETATM    7  N4  UNL     1       7.552   2.383  25.178  1.00  0.00    -0.192 N
HETATM    8  C20 UNL     1       8.517   3.197  25.613  1.00  0.00     0.355 A
HETATM    9  O10 UNL     1       9.655   2.894  26.038  1.00  0.00    -0.244 OA
HETATM   10  N6  UNL     1       8.098   4.513  25.539  1.00  0.00    -0.209 N
HETATM   11  C21 UNL     1       8.837   5.710  25.913  1.00  0.00     0.233 C
ENDROOT
BRANCH   1  12
HETATM   12  O5  UNL     1       8.536   7.815  27.089  1.00  0.00    -0.312 OA
BRANCH  12  13
HETATM   13  C10 UNL     1       7.877   8.683  27.929  1.00  0.00     0.268 C
HETATM   14  O4  UNL     1       7.153   8.195  28.812  1.00  0.00    -0.264 OA
BRANCH  13  15
HETATM   15  C5  UNL     1       8.044  10.189  27.763  1.00  0.00     0.125 C
BRANCH  15  16
HETATM   16  C4  UNL     1       9.230  10.482  28.700  1.00  0.00    -0.000 A
HETATM   17  S1  UNL     1       9.803   9.592  30.030  1.00  0.00    -0.085 SA
HETATM   18  C3  UNL     1      11.108  10.587  30.487  1.00  0.00     0.113 A
HETATM   19  C24 UNL     1      11.054  11.603  29.569  1.00  0.00     0.089 A
HETATM   20  C23 UNL     1      10.085  11.549  28.647  1.00  0.00     0.053 A
BRANCH  18  21
HETATM   21  C2  UNL     1      12.042  10.391  31.593  1.00  0.00     0.302 C
HETATM   22  O2  UNL     1      11.848   9.462  32.410  1.00  0.00    -0.259 OA
BRANCH  21  23
HETATM   23  O1  UNL     1      13.148  11.201  31.775  1.00  0.00    -0.322 OA
HETATM   24  C1  UNL     1      14.211  10.847  32.658  1.00  0.00     0.213 C
ENDBRANCH  21  23
ENDBRANCH  18  21
BRANCH  19  25
HETATM   25  O12 UNL     1      12.016  12.650  29.638  1.00  0.00    -0.359 OA
ATOM     26  H12 UNL     1      11.761  13.488  30.006  1.00  0.00     0.217 HD
ENDBRANCH  19  25
ENDBRANCH  15  16
BRANCH  15  27
HETATM   27  C6  UNL     1       6.839  10.808  28.384  1.00  0.00     0.021 C
BRANCH  27  28
HETATM   28  C7  UNL     1       6.150  11.919  27.713  1.00  0.00     0.021 C
BRANCH  28  29
HETATM   29  C8  UNL     1       5.842  11.801  26.267  1.00  0.00     0.124 C
BRANCH  29  30
HETATM   30  N1  UNL     1       6.215  12.912  25.478  1.00  0.00    -0.345 N
HETATM   31  C9  UNL     1       5.304  13.778  24.803  1.00  0.00     0.328 C
HETATM   32  N2  UNL     1       5.767  14.878  24.025  1.00  0.00    -0.040 NA
HETATM   33  O3  UNL     1       4.066  13.608  24.867  1.00  0.00    -0.251 OA
ATOM     34  H1  UNL     1       7.211  13.110  25.384  1.00  0.00     0.163 HD
ENDBRANCH  29  30
ENDBRANCH  28  29
ENDBRANCH  27  28
ENDBRANCH  15  27
ENDBRANCH  13  15
ENDBRANCH  12  13
ENDBRANCH   1  12
BRANCH  11  35
HETATM   35  C22 UNL     1       9.740   6.055  24.825  1.00  0.00     0.258 C
HETATM   36  N7  UNL     1       9.391   5.728  23.497  1.00  0.00    -0.060 NA
HETATM   37  O11 UNL     1      10.819   6.635  25.036  1.00  0.00    -0.274 OA
ENDBRANCH  11  35
BRANCH   7  38
HETATM   38  C14 UNL     1       7.480   0.995  25.028  1.00  0.00     0.161 C
BRANCH  38  39
HETATM   39  O7  UNL     1       7.454   0.585  23.790  1.00  0.00    -0.347 OA
ATOM     40  H7  UNL     1       7.187  -0.320  23.680  1.00  0.00     0.219 HD
ENDBRANCH  38  39
BRANCH  38  41
HETATM   41  C15 UNL     1       7.427  -0.072  26.018  1.00  0.00     0.116 C
HETATM   42  C16 UNL     1       6.946  -1.383  25.380  1.00  0.00     0.050 C
BRANCH  41  43
HETATM   43  C17 UNL     1       8.734  -0.294  26.723  1.00  0.00     0.203 C
BRANCH  43  44
HETATM   44  O8  UNL     1       9.008  -1.674  26.627  1.00  0.00    -0.398 OA
ATOM     45  H8  UNL     1       8.464  -2.100  27.279  1.00  0.00     0.209 HD
ENDBRANCH  43  44
ENDBRANCH  41  43
BRANCH  41  46
HETATM   46  N5  UNL     1       6.485   0.274  27.107  1.00  0.00    -0.343 N
HETATM   47  C18 UNL     1       6.165  -0.503  28.209  1.00  0.00     0.214 C
HETATM   48  C19 UNL     1       5.160   0.087  29.190  1.00  0.00     0.117 C
HETATM   49  O9  UNL     1       6.608  -1.635  28.491  1.00  0.00    -0.274 OA
ATOM     50  H5  UNL     1       6.022   1.180  27.038  1.00  0.00     0.163 HD
ENDBRANCH  41  46
ENDBRANCH  38  41
ENDBRANCH   7  38
TORSDOF 18
ENDMDL