MODEL 3
REMARK VINA RESULT: -10.806005808      2.844      4.988
REMARK  13 active torsions:
REMARK  status: ('A' for Active; 'I' for Inactive)
REMARK    1  A    between atoms: N5_13  and  C5_14
REMARK    2  A    between atoms: C5_14  and  C6_15
REMARK    3  A    between atoms: C6_15  and  C7_16
REMARK    4  A    between atoms: C7_16  and  N6_17
REMARK    5  A    between atoms: C7_16  and  C8_21
REMARK       I    between atoms: C8_21  and  N7_23
REMARK    6  A    between atoms: N7_23  and  C9_25
REMARK    7  A    between atoms: C9_25  and  C10_26
REMARK    8  A    between atoms: C10_26  and  N8_27
REMARK    9  A    between atoms: N9_30  and  C13_31
REMARK   10  A    between atoms: C15_37  and  C16_38
REMARK   11  A    between atoms: N14_51  and  C22_52
REMARK   12  A    between atoms: C22_52  and  C23_53
REMARK   13  A    between atoms: C23_53  and  O4_54
ROOT
HETATM    1  N8  UNL     1      10.038   3.510  29.321  1.00  0.00    -0.299 N
HETATM    2  C11 UNL     1      10.409   4.091  28.031  1.00  0.00     0.157 C
HETATM    3  C12 UNL     1       9.710   5.347  27.707  1.00  0.00     0.196 C
HETATM    4  N9  UNL     1       9.302   6.186  28.806  1.00  0.00    -0.076 N
HETATM    5  O5  UNL     1       9.210   5.681  30.057  1.00  0.00    -0.163 OA
HETATM    6  C24 UNL     1       9.552   4.392  30.361  1.00  0.00     0.389 C
HETATM    7  O6  UNL     1       9.464   3.927  31.525  1.00  0.00    -0.236 OA
ENDROOT
BRANCH   1   8
HETATM    8  C10 UNL     1      10.245   2.139  29.576  1.00  0.00     0.113 C
BRANCH   8   9
HETATM    9  C9  UNL     1       9.165   1.189  29.789  1.00  0.00     0.108 C
BRANCH   9  10
HETATM   10  N7  UNL     1       8.858   0.120  28.934  1.00  0.00    -0.334 N
HETATM   11  C8  UNL     1       7.640  -0.525  28.665  1.00  0.00     0.252 C
HETATM   12  O2  UNL     1       6.576  -0.175  29.227  1.00  0.00    -0.271 OA
ATOM     13  H7  UNL     1       9.656  -0.253  28.420  1.00  0.00     0.168 HD
BRANCH  11  14
HETATM   14  C7  UNL     1       7.575  -1.642  27.713  1.00  0.00     0.276 C
BRANCH  14  15
HETATM   15  C6  UNL     1       6.734  -1.367  26.522  1.00  0.00     0.064 C
BRANCH  15  16
HETATM   16  C5  UNL     1       7.480  -1.039  25.270  1.00  0.00     0.153 C
BRANCH  16  17
HETATM   17  N5  UNL     1       6.790   0.083  24.632  1.00  0.00    -0.270 N
HETATM   18  C3  UNL     1       7.075   1.372  24.774  1.00  0.00     0.155 A
HETATM   19  C2  UNL     1       8.005   2.115  25.486  1.00  0.00     0.291 A
HETATM   20  C4  UNL     1       6.195   2.094  23.997  1.00  0.00     0.153 A
HETATM   21  N2  UNL     1       8.025   3.445  25.405  1.00  0.00    -0.260 N
HETATM   22  O1  UNL     1       8.823   1.509  26.204  1.00  0.00    -0.264 OA
HETATM   23  N1  UNL     1       7.177   4.106  24.659  1.00  0.00    -0.257 N
ATOM     24  H2  UNL     1       8.722   3.963  25.940  1.00  0.00     0.190 HD
HETATM   25  C1  UNL     1       7.264   5.557  24.626  1.00  0.00     0.181 C
HETATM   26  C25 UNL     1       6.262   3.459  23.953  1.00  0.00     0.292 A
HETATM   27  O7  UNL     1       5.446   4.096  23.235  1.00  0.00    -0.264 OA
HETATM   28  N3  UNL     1       5.399   1.179  23.408  1.00  0.00    -0.279 N
HETATM   29  N4  UNL     1       5.765  -0.007  23.795  1.00  0.00    -0.239 N
ATOM     30  H3  UNL     1       4.635   1.384  22.765  1.00  0.00     0.189 HD
ATOM     31  H4  UNL     1       5.328  -0.879  23.497  1.00  0.00     0.208 HD
ENDBRANCH  16  17
ENDBRANCH  15  16
ENDBRANCH  14  15
BRANCH  14  32
HETATM   32  N6  UNL     1       7.097  -2.850  28.397  1.00  0.00    -0.066 N
ATOM     33  H63 UNL     1       6.209  -3.178  28.018  1.00  0.00     0.275 HD
ATOM     34  H62 UNL     1       7.665  -3.667  28.173  1.00  0.00     0.275 HD
ATOM     35  H61 UNL     1       7.045  -2.684  29.402  1.00  0.00     0.275 HD
ENDBRANCH  14  32
ENDBRANCH  11  14
ENDBRANCH   9  10
ENDBRANCH   8   9
ENDBRANCH   1   8
BRANCH   4  36
HETATM   36  C13 UNL     1       8.970   7.556  28.508  1.00  0.00     0.709 A
HETATM   37  N10 UNL     1       7.906   7.897  27.732  1.00  0.00    -0.172 N
HETATM   38  C14 UNL     1       7.804   9.218  27.620  1.00  0.00     0.153 A
ATOM     39  H10 UNL     1       7.270   7.229  27.294  1.00  0.00     0.186 HD
HETATM   40  N11 UNL     1       6.947  10.047  26.983  1.00  0.00    -0.338 N
HETATM   41  C21 UNL     1       8.864   9.725  28.367  1.00  0.00     0.146 A
HETATM   42  C15 UNL     1       7.101  11.376  27.058  1.00  0.00     0.065 A
ATOM     43  H11 UNL     1       6.177   9.657  26.440  1.00  0.00     0.167 HD
HETATM   44  C19 UNL     1       8.131  11.911  27.783  1.00  0.00     0.089 A
HETATM   45  C20 UNL     1       9.005  11.087  28.432  1.00  0.00     0.205 A
HETATM   46  O3  UNL     1       9.929  11.616  29.080  1.00  0.00    -0.286 OA
HETATM   47  N14 UNL     1       9.576   8.683  28.909  1.00  0.00    -0.172 N
BRANCH  42  48
HETATM   48  C16 UNL     1       6.119  12.257  26.349  1.00  0.00     0.068 A
HETATM   49  C17 UNL     1       4.793  12.208  26.709  1.00  0.00     0.085 A
HETATM   50  S1  UNL     1       4.086  13.341  25.647  1.00  0.00    -0.064 SA
HETATM   51  C18 UNL     1       5.488  13.811  24.814  1.00  0.00     0.142 A
HETATM   52  N12 UNL     1       5.635  14.684  23.835  1.00  0.00    -0.380 N
HETATM   53  N13 UNL     1       6.445  13.077  25.387  1.00  0.00    -0.335 N
ATOM     54 2H12 UNL     1       4.904  15.244  23.398  1.00  0.00     0.158 HD
ATOM     55 1H12 UNL     1       6.478  14.967  23.334  1.00  0.00     0.158 HD
ATOM     56  H13 UNL     1       7.415  13.156  25.079  1.00  0.00     0.168 HD
ENDBRANCH  42  48
BRANCH  47  57
HETATM   57  C22 UNL     1      10.741   8.839  29.711  1.00  0.00     0.174 C
BRANCH  57  58
HETATM   58  C23 UNL     1      10.571   8.554  31.171  1.00  0.00     0.185 C
BRANCH  58  59
HETATM   59  O4  UNL     1      11.161   7.390  31.624  1.00  0.00    -0.399 OA
ATOM     60  H4  UNL     1      11.986   7.499  32.083  1.00  0.00     0.209 HD
ENDBRANCH  58  59
ENDBRANCH  57  58
ENDBRANCH  47  57
ENDBRANCH   4  36
TORSDOF 13
ENDMDL