MODEL 2
REMARK VINA RESULT: -8.203344423      3.696      6.450
REMARK  20 active torsions:
REMARK  status: ('A' for Active; 'I' for Inactive)
REMARK    1  A    between atoms: O1_2  and  C2_3
REMARK    2  A    between atoms: C3_5  and  C4_6
REMARK    3  A    between atoms: C5_7  and  C6_8
REMARK    4  A    between atoms: C6_8  and  O3_9
REMARK    5  A    between atoms: C7_12  and  S1_13
REMARK    6  A    between atoms: S1_13  and  C8_16
REMARK    7  A    between atoms: C10_23  and  C11_24
REMARK    8  A    between atoms: C12_27  and  C13_28
REMARK    9  A    between atoms: C13_28  and  N3_29
REMARK   10  A    between atoms: N3_29  and  C14_32
REMARK   11  A    between atoms: C14_32  and  O10_35
REMARK   12  A    between atoms: C17_38  and  O12_39
REMARK   13  A    between atoms: O12_39  and  C18_40
REMARK   14  A    between atoms: C18_40  and  N8_51
REMARK   15  A    between atoms: N4_41  and  C19_43
REMARK   16  A    between atoms: C19_43  and  C20_44
REMARK   17  A    between atoms: C20_44  and  N5_45
REMARK   18  A    between atoms: N5_45  and  N6_47
REMARK   19  A    between atoms: N6_47  and  N7_48
REMARK   20  A    between atoms: C22_55  and  N10_56
ROOT
HETATM    1  C8  UNL     1      10.555  14.407  33.875  1.00  0.00     0.348 C
HETATM    2  O7  UNL     1      11.582  14.991  34.292  1.00  0.00    -0.263 OA
HETATM    3  C9  UNL     1       9.358  15.172  33.719  1.00  0.00     0.155 C
HETATM    4  N1  UNL     1       8.402  15.809  33.588  1.00  0.00    -0.187 NA
ENDROOT
BRANCH   1   5
HETATM    5  S1  UNL     1      10.627  12.705  33.507  1.00  0.00     0.276 S
HETATM    6  O5  UNL     1      12.052  12.210  33.458  1.00  0.00    -0.214 OA
HETATM    7  O6  UNL     1       9.976  11.981  34.658  1.00  0.00    -0.214 OA
BRANCH   5   8
HETATM    8  C7  UNL     1       9.784  12.315  31.968  1.00  0.00     0.455 C
HETATM    9  O4  UNL     1       8.435  12.245  32.101  1.00  0.00    -0.340 OA
HETATM   10  C5  UNL     1       7.794  11.240  31.427  1.00  0.00     0.158 C
HETATM   11  C4  UNL     1       8.363  10.963  30.051  1.00  0.00     0.090 C
HETATM   12  C10 UNL     1       9.834  10.931  30.030  1.00  0.00     0.299 C
HETATM   13  N2  UNL     1      10.345  11.121  31.395  1.00  0.00    -0.020 N
ATOM     14  H22 UNL     1      11.364  11.125  31.425  1.00  0.00     0.282 HD
ATOM     15  H21 UNL     1      10.182  10.303  31.982  1.00  0.00     0.282 HD
BRANCH  10  16
HETATM   16  C6  UNL     1       7.607  10.093  32.331  1.00  0.00     0.196 C
BRANCH  16  17
HETATM   17  O3  UNL     1       7.420  10.658  33.631  1.00  0.00    -0.398 OA
ATOM     18  H3  UNL     1       7.118   9.942  34.178  1.00  0.00     0.209 HD
ENDBRANCH  16  17
ENDBRANCH  10  16
BRANCH  11  19
HETATM   19  C3  UNL     1       7.608   9.840  29.397  1.00  0.00     0.164 C
HETATM   20  O2  UNL     1       6.549  10.269  28.619  1.00  0.00    -0.351 OA
HETATM   21  C2  UNL     1       6.732  11.129  27.613  1.00  0.00     0.294 C
HETATM   22  C22 UNL     1       7.264  10.479  26.347  1.00  0.00     0.293 C
HETATM   23  C17 UNL     1       7.347   8.977  26.680  1.00  0.00     0.305 C
HETATM   24  O11 UNL     1       8.468   8.704  27.419  1.00  0.00    -0.349 OA
HETATM   25  C12 UNL     1       8.400   8.741  28.775  1.00  0.00     0.180 C
BRANCH  21  26
HETATM   26  O1  UNL     1       5.443  11.599  27.243  1.00  0.00    -0.364 OA
HETATM   27  C1  UNL     1       5.283  12.939  27.505  1.00  0.00     0.204 C
ENDBRANCH  21  26
BRANCH  22  28
HETATM   28  N10 UNL     1       8.553  10.982  25.952  1.00  0.00    -0.066 N
ATOM     29 3H10 UNL     1       8.782  11.835  26.462  1.00  0.00     0.275 HD
ATOM     30 2H10 UNL     1       9.299  10.377  26.294  1.00  0.00     0.275 HD
ATOM     31 1H10 UNL     1       8.635  11.127  24.946  1.00  0.00     0.275 HD
ENDBRANCH  22  28
BRANCH  23  32
HETATM   32  O12 UNL     1       7.531   8.334  25.432  1.00  0.00    -0.288 OA
BRANCH  32  33
HETATM   33  C18 UNL     1       7.652   6.988  25.240  1.00  0.00     0.230 C
HETATM   34  N4  UNL     1       6.583   6.346  24.906  1.00  0.00    -0.354 N
ATOM     35  H4  UNL     1       5.685   6.816  24.789  1.00  0.00     0.163 HD
BRANCH  34  36
HETATM   36  C19 UNL     1       6.732   4.920  24.709  1.00  0.00     0.145 C
BRANCH  36  37
HETATM   37  C20 UNL     1       5.479   4.288  24.147  1.00  0.00     0.175 C
BRANCH  37  38
HETATM   38  N5  UNL     1       5.434   2.914  24.607  1.00  0.00    -0.251 N
ATOM     39  H5  UNL     1       5.729   2.683  25.556  1.00  0.00     0.197 HD
BRANCH  38  40
HETATM   40  N6  UNL     1       5.037   2.018  23.845  1.00  0.00    -0.249 NA
BRANCH  40  41
HETATM   41  N7  UNL     1       4.769   0.972  23.249  1.00  0.00    -0.261 N
ATOM     42  H72 UNL     1       3.830   0.971  23.648  1.00  0.00     0.193 HD
ATOM     43  H71 UNL     1       4.748   0.124  22.683  1.00  0.00     0.193 HD
ENDBRANCH  40  41
ENDBRANCH  38  40
ENDBRANCH  37  38
ENDBRANCH  36  37
ENDBRANCH  34  36
BRANCH  33  44
HETATM   44  N8  UNL     1       8.920   6.377  25.414  1.00  0.00    -0.259 N
HETATM   45  C21 UNL     1      10.017   6.867  24.691  1.00  0.00     0.185 C
HETATM   46  N9  UNL     1      10.930   7.273  24.065  1.00  0.00    -0.172 NA
ATOM     47  H8  UNL     1       9.031   5.592  26.057  1.00  0.00     0.181 HD
ENDBRANCH  33  44
ENDBRANCH  32  33
ENDBRANCH  23  32
BRANCH  25  48
HETATM   48  C13 UNL     1       8.059   7.363  29.374  1.00  0.00     0.270 C
BRANCH  48  49
HETATM   49  N3  UNL     1       9.051   6.915  30.296  1.00  0.00    -0.041 N
ATOM     50  H32 UNL     1       9.293   7.652  30.959  1.00  0.00     0.280 HD
ATOM     51  H31 UNL     1       8.664   6.229  30.944  1.00  0.00     0.280 HD
BRANCH  49  52
HETATM   52  C14 UNL     1      10.240   6.396  29.641  1.00  0.00     0.216 C
HETATM   53  C15 UNL     1      10.355   4.921  30.055  1.00  0.00     0.078 C
HETATM   54  C16 UNL     1      11.488   7.062  30.185  1.00  0.00     0.078 C
BRANCH  52  55
HETATM   55  O10 UNL     1      10.156   6.494  28.264  1.00  0.00    -0.365 OA
ATOM     56  H10 UNL     1       9.475   5.933  27.910  1.00  0.00     0.212 HD
ENDBRANCH  52  55
ENDBRANCH  49  52
ENDBRANCH  48  49
ENDBRANCH  25  48
ENDBRANCH  11  19
BRANCH  12  57
HETATM   57  C11 UNL     1      10.522  11.952  29.211  1.00  0.00     0.205 C
HETATM   58  O8  UNL     1      10.005  12.336  28.129  1.00  0.00    -0.646 OA
HETATM   59  O9  UNL     1      11.753  12.515  29.601  1.00  0.00    -0.646 OA
ENDBRANCH  12  57
ENDBRANCH   5   8
ENDBRANCH   1   5
TORSDOF 20
ENDMDL