MODEL 4
REMARK VINA RESULT: -8.529797801      1.224      1.405
REMARK  12 active torsions:
REMARK  status: ('A' for Active; 'I' for Inactive)
REMARK    1  A    between atoms: C2_2  and  C3_3
REMARK    2  A    between atoms: C2_2  and  S1_38
REMARK       I    between atoms: C3_3  and  N1_5
REMARK    3  A    between atoms: N1_5  and  C4_7
REMARK    4  A    between atoms: C4_7  and  O2_8
REMARK    5  A    between atoms: C4_7  and  C5_10
REMARK    6  A    between atoms: C5_10  and  N2_11
REMARK       I    between atoms: N2_11  and  C6_13
REMARK    7  A    between atoms: C6_13  and  C7_15
REMARK    8  A    between atoms: C7_15  and  N3_16
REMARK    9  A    between atoms: C7_15  and  C8_20
REMARK   10  A    between atoms: N3_16  and  O4_18
REMARK   11  A    between atoms: C11_26  and  C12_27
REMARK   12  A    between atoms: C12_27  and  C13_29
REMARK       I    between atoms: C13_29  and  N4_31
ROOT
HETATM    1  C13 UNL     1       2.597   0.373  -7.345  1.00  0.00     0.302 C
HETATM    2  O9  UNL     1       1.804  -0.428  -7.885  1.00  0.00    -0.263 OA
HETATM    3  N4  UNL     1       3.778   0.700  -8.086  1.00  0.00    -0.257 N
ATOM      4  H4  UNL     1       4.458   1.348  -7.688  1.00  0.00     0.181 HD
HETATM    5  C14 UNL     1       4.013   0.145  -9.344  1.00  0.00     0.184 C
HETATM    6  N5  UNL     1       4.229  -0.314 -10.382  1.00  0.00    -0.172 NA
ENDROOT
BRANCH   1   7
HETATM    7  C12 UNL     1       2.332   0.935  -6.039  1.00  0.00     0.255 C
HETATM    8  O8  UNL     1       2.679   2.142  -5.876  1.00  0.00    -0.284 OA
BRANCH   7   9
HETATM    9  C11 UNL     1       1.691   0.142  -4.978  1.00  0.00     0.337 C
HETATM   10  C10 UNL     1       1.889   0.823  -3.677  1.00  0.00     0.169 C
HETATM   11  C9  UNL     1       0.573   1.338  -3.240  1.00  0.00     0.147 C
HETATM   12  O7  UNL     1       2.961   0.949  -3.047  1.00  0.00    -0.295 OA
HETATM   13  C5  UNL     1      -0.416   0.513  -4.022  1.00  0.00     0.251 C
HETATM   14  N6  UNL     1       0.277   0.011  -5.161  1.00  0.00    -0.025 N
ATOM     15  H62 UNL     1       0.008  -0.948  -5.378  1.00  0.00     0.281 HD
ATOM     16  H61 UNL     1      -0.038   0.454  -6.023  1.00  0.00     0.281 HD
BRANCH  13  17
HETATM   17  C4  UNL     1      -1.560   1.436  -4.501  1.00  0.00     0.278 C
BRANCH  17  18
HETATM   18  N1  UNL     1      -1.115   2.052  -5.732  1.00  0.00    -0.330 N
HETATM   19  C3  UNL     1      -1.959   2.836  -6.553  1.00  0.00     0.235 C
HETATM   20  O1  UNL     1      -3.152   3.026  -6.219  1.00  0.00    -0.272 OA
ATOM     21  H1  UNL     1      -0.147   1.913  -6.022  1.00  0.00     0.165 HD
BRANCH  19  22
HETATM   22  C2  UNL     1      -1.437   3.425  -7.786  1.00  0.00     0.166 C
HETATM   23  C1  UNL     1      -2.560   3.780  -8.724  1.00  0.00     0.034 C
BRANCH  22  24
HETATM   24  S1  UNL     1      -0.241   2.375  -8.577  1.00  0.00     0.024 S
HETATM   25  C15 UNL     1      -0.846   1.828 -10.152  1.00  0.00     0.128 C
HETATM   26  O10 UNL     1       1.165   3.260  -8.838  1.00  0.00    -0.258 OA
ENDBRANCH  22  24
ENDBRANCH  19  22
ENDBRANCH  17  18
BRANCH  17  27
HETATM   27  O2  UNL     1      -1.810   2.453  -3.593  1.00  0.00    -0.372 OA
ATOM     28  H2  UNL     1      -1.492   2.164  -2.745  1.00  0.00     0.212 HD
ENDBRANCH  17  27
ENDBRANCH  13  17
BRANCH  13  29
HETATM   29  N2  UNL     1      -1.030  -0.502  -3.217  1.00  0.00    -0.322 N
HETATM   30  C6  UNL     1      -2.042  -1.396  -3.559  1.00  0.00     0.255 C
HETATM   31  O3  UNL     1      -2.551  -1.396  -4.696  1.00  0.00    -0.270 OA
ATOM     32  H2  UNL     1      -0.678  -0.581  -2.263  1.00  0.00     0.165 HD
BRANCH  30  33
HETATM   33  C7  UNL     1      -2.572  -2.397  -2.600  1.00  0.00     0.297 C
BRANCH  33  34
HETATM   34  N3  UNL     1      -2.025  -2.157  -1.277  1.00  0.00    -0.281 N
ATOM     35  H3  UNL     1      -1.351  -2.810  -0.877  1.00  0.00     0.189 HD
BRANCH  34  36
HETATM   36  O4  UNL     1      -2.363  -1.195  -0.656  1.00  0.00    -0.293 OA
ATOM     37  H4  UNL     1      -3.260  -1.118  -0.351  1.00  0.00     0.244 HD
ENDBRANCH  34  36
ENDBRANCH  33  34
BRANCH  33  38
HETATM   38  C8  UNL     1      -4.052  -2.351  -2.484  1.00  0.00     0.208 C
HETATM   39  O5  UNL     1      -4.779  -3.389  -2.652  1.00  0.00    -0.646 OA
HETATM   40  O6  UNL     1      -4.728  -1.176  -2.186  1.00  0.00    -0.646 OA
ENDBRANCH  33  38
ENDBRANCH  30  33
ENDBRANCH  13  29
ENDBRANCH   7   9
ENDBRANCH   1   7
TORSDOF 12
ENDMDL