MODEL 1
REMARK VINA RESULT: -7.209360938      0.000      0.000
REMARK  15 active torsions:
REMARK  status: ('A' for Active; 'I' for Inactive)
REMARK    1  A    between atoms: O1_2  and  C2_3
REMARK    2  A    between atoms: C2_3  and  C3_4
REMARK    3  A    between atoms: C2_3  and  C17_34
REMARK    4  A    between atoms: C6_8  and  O2_9
REMARK    5  A    between atoms: C7_11  and  O3_12
REMARK    6  A    between atoms: C8_14  and  C9_15
REMARK    7  A    between atoms: C9_15  and  O4_16
REMARK    8  A    between atoms: C9_15  and  C10_18
REMARK    9  A    between atoms: C10_18  and  O5_19
REMARK   10  A    between atoms: C10_18  and  O6_21
REMARK   11  A    between atoms: O6_21  and  C12_22
REMARK   12  A    between atoms: C14_25  and  O8_26
REMARK   13  A    between atoms: C15_28  and  O9_29
REMARK   14  A    between atoms: C16_31  and  O10_32
REMARK   15  A    between atoms: C17_34  and  S1_35
ROOT
HETATM    1  C9  UNL     1      -3.438   2.352  -4.899  1.00  0.00     0.198 C
ENDROOT
BRANCH   1   2
HETATM    2  C8  UNL     1      -3.789   2.420  -6.321  1.00  0.00     0.148 C
HETATM    3  N1  UNL     1      -4.576   3.553  -6.732  1.00  0.00    -0.381 N
HETATM    4  C3  UNL     1      -5.004   4.495  -5.853  1.00  0.00     0.091 C
HETATM    5  C4  UNL     1      -5.301   3.165  -7.891  1.00  0.00     0.125 C
HETATM    6  C5  UNL     1      -4.437   2.537  -8.959  1.00  0.00     0.054 C
HETATM    7  C6  UNL     1      -2.975   2.485  -8.682  1.00  0.00     0.150 C
HETATM    8  C7  UNL     1      -2.569   2.408  -7.242  1.00  0.00     0.172 C
BRANCH   4   9
HETATM    9  C2  UNL     1      -5.084   5.931  -6.333  1.00  0.00     0.170 C
BRANCH   9  10
HETATM   10  O1  UNL     1      -4.096   6.669  -5.696  1.00  0.00    -0.385 OA
HETATM   11  C1  UNL     1      -3.553   7.696  -6.409  1.00  0.00     0.202 C
ENDBRANCH   9  10
BRANCH   9  12
HETATM   12  C17 UNL     1      -6.457   6.508  -6.071  1.00  0.00     0.145 C
BRANCH  12  13
HETATM   13  S1  UNL     1      -6.614   7.244  -4.484  1.00  0.00     0.013 S
HETATM   14  C18 UNL     1      -7.158   8.935  -4.638  1.00  0.00     0.127 C
HETATM   15  O11 UNL     1      -7.805   6.423  -3.632  1.00  0.00    -0.258 OA
ENDBRANCH  12  13
ENDBRANCH   9  12
ENDBRANCH   4   9
BRANCH   7  16
HETATM   16  O2  UNL     1      -2.267   3.527  -9.281  1.00  0.00    -0.393 OA
ATOM     17  H2  UNL     1      -1.724   4.009  -8.668  1.00  0.00     0.210 HD
ENDBRANCH   7  16
BRANCH   8  18
HETATM   18  O3  UNL     1      -1.791   3.500  -6.857  1.00  0.00    -0.391 OA
ATOM     19  H3  UNL     1      -0.869   3.365  -7.041  1.00  0.00     0.210 HD
ENDBRANCH   8  18
ENDBRANCH   1   2
BRANCH   1  20
HETATM   20  O4  UNL     1      -4.625   2.070  -4.161  1.00  0.00    -0.388 OA
ATOM     21  H4  UNL     1      -5.087   2.888  -4.020  1.00  0.00     0.210 HD
ENDBRANCH   1  20
BRANCH   1  22
HETATM   22  C10 UNL     1      -2.547   1.155  -4.571  1.00  0.00     0.293 C
BRANCH  22  23
HETATM   23  O5  UNL     1      -3.308   0.136  -4.041  1.00  0.00    -0.363 OA
HETATM   24  C11 UNL     1      -3.320  -1.044  -4.729  1.00  0.00     0.204 C
ENDBRANCH  22  23
BRANCH  22  25
HETATM   25  O6  UNL     1      -1.552   1.546  -3.653  1.00  0.00    -0.326 OA
BRANCH  25  26
HETATM   26  C12 UNL     1      -0.342   0.973  -4.028  1.00  0.00     0.294 C
HETATM   27  O7  UNL     1       0.029   1.507  -5.253  1.00  0.00    -0.356 OA
HETATM   28  C13 UNL     1       1.353   1.247  -5.582  1.00  0.00     0.205 C
HETATM   29  C14 UNL     1       1.935   0.107  -4.776  1.00  0.00     0.173 C
HETATM   30  C15 UNL     1       1.935   0.406  -3.300  1.00  0.00     0.182 C
HETATM   31  C16 UNL     1       0.706   1.185  -2.960  1.00  0.00     0.204 C
BRANCH  29  32
HETATM   32  O8  UNL     1       3.255  -0.063  -5.192  1.00  0.00    -0.391 OA
ATOM     33  H8  UNL     1       3.360  -0.976  -5.433  1.00  0.00     0.210 HD
ENDBRANCH  29  32
BRANCH  30  34
HETATM   34  O9  UNL     1       3.052   1.170  -2.918  1.00  0.00    -0.390 OA
ATOM     35  H9  UNL     1       2.963   1.514  -2.037  1.00  0.00     0.210 HD
ENDBRANCH  30  34
BRANCH  31  36
HETATM   36  O10 UNL     1       0.973   2.535  -2.754  1.00  0.00    -0.388 OA
ATOM     37  H10 UNL     1       1.655   2.855  -3.333  1.00  0.00     0.210 HD
ENDBRANCH  31  36
ENDBRANCH  25  26
ENDBRANCH  22  25
ENDBRANCH   1  22
TORSDOF 15
ENDMDL