MODEL 2
REMARK VINA RESULT: -8.158385602      1.113      2.144
REMARK  14 active torsions:
REMARK  status: ('A' for Active; 'I' for Inactive)
REMARK    1  A    between atoms: C2_2  and  C3_3
REMARK    2  A    between atoms: C2_2  and  C9_16
REMARK    3  A    between atoms: C3_3  and  C4_5
REMARK       I    between atoms: C4_5  and  N1_7
REMARK    4  A    between atoms: N1_7  and  C5_9
REMARK    5  A    between atoms: C5_9  and  C6_10
REMARK    6  A    between atoms: C5_9  and  C7_12
REMARK    7  A    between atoms: C7_12  and  O5_14
REMARK    8  A    between atoms: C9_16  and  O6_17
REMARK    9  A    between atoms: C9_16  and  C10_19
REMARK   10  A    between atoms: C10_19  and  C11_20
REMARK   11  A    between atoms: C11_20  and  O7_21
REMARK   12  A    between atoms: C11_20  and  C12_23
REMARK       I    between atoms: C12_23  and  N2_25
REMARK   13  A    between atoms: N2_25  and  C13_27
REMARK   14  A    between atoms: C17_34  and  O11_35
ROOT
HETATM    1  C11 UNL     1       2.291   1.882  -3.455  1.00  0.00     0.212 C
ENDROOT
BRANCH   1   2
HETATM    2  C10 UNL     1       2.630   2.194  -4.896  1.00  0.00     0.078 C
BRANCH   2   3
HETATM    3  C9  UNL     1       3.749   1.327  -5.419  1.00  0.00     0.157 C
BRANCH   3   4
HETATM    4  C2  UNL     1       3.373   0.739  -6.707  1.00  0.00     0.017 C
HETATM    5  C1  UNL     1       4.323   0.538  -7.624  1.00  0.00     0.025 C
BRANCH   4   6
HETATM    6  C3  UNL     1       2.010   0.350  -6.988  1.00  0.00     0.247 C
HETATM    7  O1  UNL     1       1.517  -0.525  -6.167  1.00  0.00    -0.282 OA
BRANCH   6   8
HETATM    8  C4  UNL     1       1.222   0.846  -8.059  1.00  0.00     0.293 C
HETATM    9  O2  UNL     1       1.038   0.264  -9.129  1.00  0.00    -0.264 OA
HETATM   10  N1  UNL     1       0.585   2.129  -7.890  1.00  0.00    -0.335 N
ATOM     11  H1  UNL     1       0.703   2.653  -7.023  1.00  0.00     0.164 HD
BRANCH  10  12
HETATM   12  C5  UNL     1      -0.218   2.661  -8.953  1.00  0.00     0.246 C
BRANCH  12  13
HETATM   13  C6  UNL     1      -0.101   4.140  -9.005  1.00  0.00     0.266 C
HETATM   14  O3  UNL     1       1.007   4.644  -8.986  1.00  0.00    -0.304 OA
ENDBRANCH  12  13
BRANCH  12  15
HETATM   15  C7  UNL     1      -1.651   2.323  -8.679  1.00  0.00     0.288 C
HETATM   16  O4  UNL     1      -2.453   3.147  -8.169  1.00  0.00    -0.262 OA
BRANCH  15  17
HETATM   17  O5  UNL     1      -2.076   1.028  -9.023  1.00  0.00    -0.325 OA
HETATM   18  C8  UNL     1      -2.320   0.796 -10.397  1.00  0.00     0.213 C
ENDBRANCH  15  17
ENDBRANCH  12  15
ENDBRANCH  10  12
ENDBRANCH   6   8
ENDBRANCH   4   6
ENDBRANCH   3   4
BRANCH   3  19
HETATM   19  O6  UNL     1       4.895   2.109  -5.644  1.00  0.00    -0.391 OA
ATOM     20  H6  UNL     1       4.717   2.649  -6.405  1.00  0.00     0.210 HD
ENDBRANCH   3  19
ENDBRANCH   2   3
ENDBRANCH   1   2
BRANCH   1  21
HETATM   21  O7  UNL     1       3.116   0.960  -2.869  1.00  0.00    -0.386 OA
ATOM     22  H7  UNL     1       3.095   0.964  -1.920  1.00  0.00     0.210 HD
ENDBRANCH   1  21
BRANCH   1  23
HETATM   23  C12 UNL     1       0.856   1.570  -3.318  1.00  0.00     0.248 C
HETATM   24  O8  UNL     1       0.387   1.150  -2.211  1.00  0.00    -0.271 OA
HETATM   25  N2  UNL     1      -0.068   1.709  -4.381  1.00  0.00    -0.330 N
ATOM     26  H2  UNL     1       0.276   2.040  -5.282  1.00  0.00     0.164 HD
BRANCH  25  27
HETATM   27  C13 UNL     1      -1.474   1.407  -4.254  1.00  0.00     0.303 C
HETATM   28  C14 UNL     1      -1.660  -0.072  -4.434  1.00  0.00     0.195 C
HETATM   29  S1  UNL     1      -3.387  -0.444  -4.605  1.00  0.00     0.155 S
HETATM   30  O9  UNL     1      -3.506  -1.633  -5.534  1.00  0.00    -0.227 OA
HETATM   31  O10 UNL     1      -3.966  -0.873  -3.284  1.00  0.00    -0.227 OA
HETATM   32  C15 UNL     1      -4.301   0.926  -5.261  1.00  0.00     0.160 C
HETATM   33  C16 UNL     1      -4.539   0.698  -6.729  1.00  0.00     0.031 C
HETATM   34  C17 UNL     1      -3.615   2.242  -4.986  1.00  0.00     0.339 C
HETATM   35  N3  UNL     1      -2.198   2.187  -5.245  1.00  0.00    -0.026 N
ATOM     36  H32 UNL     1      -1.804   3.125  -5.329  1.00  0.00     0.282 HD
ATOM     37  H31 UNL     1      -2.012   1.845  -6.187  1.00  0.00     0.282 HD
BRANCH  34  38
HETATM   38  O11 UNL     1      -3.881   2.719  -3.701  1.00  0.00    -0.369 OA
ATOM     39  H11 UNL     1      -3.382   2.260  -3.036  1.00  0.00     0.212 HD
ENDBRANCH  34  38
ENDBRANCH  25  27
ENDBRANCH   1  23
TORSDOF 14
ENDMDL