MODEL 5
REMARK VINA RESULT: -8.572865843      2.094      3.173
REMARK  15 active torsions:
REMARK  status: ('A' for Active; 'I' for Inactive)
REMARK       I    between atoms: N1_2  and  C2_3
REMARK    1  A    between atoms: N1_2  and  C9_18
REMARK    2  A    between atoms: C2_3  and  C3_5
REMARK    3  A    between atoms: C3_5  and  O2_6
REMARK    4  A    between atoms: C3_5  and  N2_8
REMARK    5  A    between atoms: N2_8  and  C4_10
REMARK    6  A    between atoms: C6_13  and  C7_14
REMARK    7  A    between atoms: C11_21  and  O7_22
REMARK    8  A    between atoms: C11_21  and  O8_24
REMARK    9  A    between atoms: O8_24  and  C12_25
REMARK   10  A    between atoms: C13_27  and  O10_28
REMARK   11  A    between atoms: O10_28  and  C14_29
REMARK   12  A    between atoms: C14_29  and  C15_31
REMARK   13  A    between atoms: C15_31  and  N3_32
REMARK   14  A    between atoms: C15_31  and  C16_36
REMARK   15  A    between atoms: C16_36  and  C17_37
ROOT
HETATM    1  C9  UNL     1      -4.953  -1.664  -2.713  1.00  0.00     0.260 C
HETATM    2  O6  UNL     1      -5.990  -2.347  -2.157  1.00  0.00    -0.358 OA
HETATM    3  C10 UNL     1      -5.860  -3.697  -2.371  1.00  0.00     0.242 C
HETATM    4  C11 UNL     1      -4.592  -3.964  -3.098  1.00  0.00     0.223 C
HETATM    5  C13 UNL     1      -3.907  -2.629  -3.201  1.00  0.00     0.245 C
ENDROOT
BRANCH   1   6
HETATM    6  N1  UNL     1      -5.480  -0.863  -3.839  1.00  0.00    -0.324 N
HETATM    7  C1  UNL     1      -5.204  -1.280  -5.180  1.00  0.00     0.155 C
HETATM    8  C2  UNL     1      -6.245   0.260  -3.527  1.00  0.00     0.270 C
HETATM    9  O1  UNL     1      -6.453   0.516  -2.278  1.00  0.00    -0.268 OA
BRANCH   8  10
HETATM   10  C3  UNL     1      -6.850   1.187  -4.501  1.00  0.00     0.308 C
BRANCH  10  11
HETATM   11  O2  UNL     1      -7.806   1.945  -3.716  1.00  0.00    -0.368 OA
ATOM     12  H2  UNL     1      -7.868   2.776  -4.172  1.00  0.00     0.212 HD
ENDBRANCH  10  11
BRANCH  10  13
HETATM   13  N2  UNL     1      -5.963   2.166  -5.011  1.00  0.00    -0.383 N
ATOM     14  H2  UNL     1      -5.209   2.476  -4.399  1.00  0.00     0.156 HD
BRANCH  13  15
HETATM   15  C4  UNL     1      -6.033   2.735  -6.266  1.00  0.00     0.106 C
HETATM   16  C5  UNL     1      -5.029   3.878  -6.504  1.00  0.00     0.193 C
HETATM   17  O3  UNL     1      -3.902   3.245  -7.020  1.00  0.00    -0.373 OA
HETATM   18  C6  UNL     1      -4.478   2.456  -8.025  1.00  0.00     0.224 C
HETATM   19  C8  UNL     1      -5.575   1.735  -7.315  1.00  0.00     0.070 C
BRANCH  18  20
HETATM   20  C7  UNL     1      -3.474   1.526  -8.570  1.00  0.00     0.203 C
HETATM   21  O4  UNL     1      -3.009   0.644  -7.814  1.00  0.00    -0.646 OA
HETATM   22  O5  UNL     1      -3.074   1.642  -9.879  1.00  0.00    -0.646 OA
ENDBRANCH  18  20
ENDBRANCH  13  15
ENDBRANCH  10  13
ENDBRANCH   8  10
ENDBRANCH   1   6
BRANCH   5  23
HETATM   23  O10 UNL     1      -2.714  -2.574  -2.457  1.00  0.00    -0.304 OA
BRANCH  23  24
HETATM   24  C14 UNL     1      -2.567  -2.174  -1.164  1.00  0.00     0.290 C
HETATM   25  O11 UNL     1      -2.000  -1.041  -0.987  1.00  0.00    -0.263 OA
BRANCH  24  26
HETATM   26  C15 UNL     1      -2.994  -2.915   0.025  1.00  0.00     0.292 C
BRANCH  26  27
HETATM   27  N3  UNL     1      -2.313  -4.214   0.003  1.00  0.00    -0.065 N
ATOM     28  H33 UNL     1      -2.582  -4.791  -0.793  1.00  0.00     0.275 HD
ATOM     29  H32 UNL     1      -1.319  -4.139  -0.216  1.00  0.00     0.275 HD
ATOM     30  H31 UNL     1      -2.489  -4.668   0.900  1.00  0.00     0.275 HD
ENDBRANCH  26  27
BRANCH  26  31
HETATM   31  C16 UNL     1      -2.641  -2.255   1.313  1.00  0.00     0.156 C
BRANCH  31  32
HETATM   32  C17 UNL     1      -2.399  -3.222   2.411  1.00  0.00     0.175 C
HETATM   33  O12 UNL     1      -3.405  -3.649   3.035  1.00  0.00    -0.648 OA
HETATM   34  O13 UNL     1      -1.156  -3.684   2.795  1.00  0.00    -0.648 OA
ENDBRANCH  31  32
ENDBRANCH  26  31
ENDBRANCH  24  26
ENDBRANCH  23  24
ENDBRANCH   5  23
BRANCH   4  35
HETATM   35  O7  UNL     1      -3.837  -4.865  -2.321  1.00  0.00    -0.361 OA
ATOM     36  H7  UNL     1      -2.920  -4.718  -2.520  1.00  0.00     0.213 HD
ENDBRANCH   4  35
BRANCH   4  37
HETATM   37  O8  UNL     1      -4.769  -4.476  -4.408  1.00  0.00    -0.285 OA
BRANCH  37  38
HETATM   38  C12 UNL     1      -5.089  -5.788  -4.666  1.00  0.00     0.401 C
HETATM   39  O9  UNL     1      -4.304  -6.685  -4.284  1.00  0.00    -0.276 OA
ENDBRANCH  37  38
ENDBRANCH   4  37
TORSDOF 15
ENDMDL