MODEL 3
REMARK VINA RESULT: -8.310308104      0.504      1.990
REMARK  12 active torsions:
REMARK  status: ('A' for Active; 'I' for Inactive)
REMARK    1  A    between atoms: O1_2  and  C2_3
REMARK    2  A    between atoms: C2_3  and  O2_4
REMARK    3  A    between atoms: O2_4  and  C3_5
REMARK    4  A    between atoms: C3_5  and  C4_6
REMARK    5  A    between atoms: C4_6  and  O3_7
REMARK    6  A    between atoms: O3_7  and  C5_8
REMARK    7  A    between atoms: C5_8  and  C6_9
REMARK    8  A    between atoms: C6_9  and  N1_10
REMARK    9  A    between atoms: C8_15  and  N3_16
REMARK   10  A    between atoms: N5_24  and  C11_25
REMARK   11  A    between atoms: C11_25  and  C12_26
REMARK   12  A    between atoms: C17_39  and  O8_40
ROOT
HETATM    1  C2  UNL     1      -3.010   2.359  -6.049  1.00  0.00     0.206 C
HETATM    2  C10 UNL     1      -4.173   2.202  -5.084  1.00  0.00     0.188 C
HETATM    3  N5  UNL     1      -5.066   1.166  -5.503  1.00  0.00    -0.400 N
HETATM    4  C15 UNL     1      -5.591   1.281  -6.820  1.00  0.00     0.120 C
HETATM    5  C16 UNL     1      -4.442   1.448  -7.811  1.00  0.00     0.057 C
HETATM    6  C17 UNL     1      -3.155   1.232  -7.084  1.00  0.00     0.183 C
ENDROOT
BRANCH   1   7
HETATM    7  O1  UNL     1      -3.118   3.610  -6.617  1.00  0.00    -0.356 OA
HETATM    8  C1  UNL     1      -3.735   4.569  -5.861  1.00  0.00     0.205 C
ENDBRANCH   1   7
BRANCH   1   9
HETATM    9  O2  UNL     1      -1.797   2.145  -5.432  1.00  0.00    -0.349 OA
BRANCH   9  10
HETATM   10  C3  UNL     1      -1.821   1.425  -4.271  1.00  0.00     0.197 C
BRANCH  10  11
HETATM   11  C4  UNL     1      -0.530   0.608  -4.223  1.00  0.00     0.194 C
BRANCH  11  12
HETATM   12  O3  UNL     1      -0.275   0.009  -5.452  1.00  0.00    -0.387 OA
BRANCH  12  13
HETATM   13  C5  UNL     1       1.074  -0.023  -5.711  1.00  0.00     0.188 C
BRANCH  13  14
HETATM   14  C6  UNL     1       1.563   1.113  -6.543  1.00  0.00     0.164 C
BRANCH  14  15
HETATM   15  N1  UNL     1       2.301   0.688  -7.711  1.00  0.00    -0.248 N
HETATM   16  C7  UNL     1       3.640   0.678  -7.645  1.00  0.00     0.344 A
HETATM   17  O4  UNL     1       4.246   1.028  -6.597  1.00  0.00    -0.246 OA
HETATM   18  N2  UNL     1       4.344   0.284  -8.727  1.00  0.00    -0.141 N
HETATM   19  C8  UNL     1       3.725  -0.093  -9.858  1.00  0.00     0.683 A
ATOM     20  H2  UNL     1       5.363   0.273  -8.686  1.00  0.00     0.189 HD
HETATM   21  N4  UNL     1       2.384  -0.087  -9.935  1.00  0.00    -0.141 N
HETATM   22  C9  UNL     1       1.692   0.310  -8.844  1.00  0.00     0.344 A
ATOM     23  H4  UNL     1       1.904  -0.373 -10.789  1.00  0.00     0.189 HD
HETATM   24  O5  UNL     1       0.430   0.306  -8.943  1.00  0.00    -0.246 OA
BRANCH  19  25
HETATM   25  N3  UNL     1       4.439  -0.467 -10.879  1.00  0.00    -0.234 N
ATOM     26  H32 UNL     1       5.392  -0.124 -10.992  1.00  0.00     0.174 HD
ATOM     27  H31 UNL     1       4.033  -1.105 -11.564  1.00  0.00     0.174 HD
ENDBRANCH  19  25
ENDBRANCH  14  15
ENDBRANCH  13  14
ENDBRANCH  12  13
ENDBRANCH  11  12
ENDBRANCH  10  11
ENDBRANCH   9  10
ENDBRANCH   1   9
BRANCH   6  28
HETATM   28  O8  UNL     1      -2.046   1.058  -7.860  1.00  0.00    -0.390 OA
ATOM     29  H8  UNL     1      -2.143   0.374  -8.513  1.00  0.00     0.210 HD
ENDBRANCH   6  28
BRANCH   3  30
HETATM   30  C11 UNL     1      -5.955   0.710  -4.494  1.00  0.00     0.193 C
BRANCH  30  31
HETATM   31  C12 UNL     1      -5.509  -0.603  -3.971  1.00  0.00     0.106 A
HETATM   32  N6  UNL     1      -6.319  -1.401  -3.243  1.00  0.00    -0.296 N
HETATM   33  C13 UNL     1      -5.898  -2.589  -2.777  1.00  0.00     0.329 A
ATOM     34  H6  UNL     1      -7.270  -1.095  -3.041  1.00  0.00     0.172 HD
HETATM   35  O6  UNL     1      -6.679  -3.321  -2.095  1.00  0.00    -0.246 OA
HETATM   36  N7  UNL     1      -4.654  -3.034  -3.018  1.00  0.00    -0.260 N
HETATM   37  C14 UNL     1      -3.837  -2.252  -3.741  1.00  0.00     0.329 A
ATOM     38  H7  UNL     1      -4.341  -3.937  -2.662  1.00  0.00     0.175 HD
HETATM   39  O7  UNL     1      -2.651  -2.619  -4.000  1.00  0.00    -0.246 OA
HETATM   40  N8  UNL     1      -4.268  -1.066  -4.201  1.00  0.00    -0.296 N
ATOM     41  H8  UNL     1      -3.625  -0.492  -4.748  1.00  0.00     0.172 HD
ENDBRANCH  30  31
ENDBRANCH   3  30
TORSDOF 12
ENDMDL