MODEL 4
REMARK VINA RESULT: -7.852204136      1.276      2.004
REMARK  18 active torsions:
REMARK  status: ('A' for Active; 'I' for Inactive)
REMARK    1  A    between atoms: C5_5  and  O1_6
REMARK    2  A    between atoms: O1_6  and  C6_7
REMARK    3  A    between atoms: C6_7  and  C7_8
REMARK    4  A    between atoms: C6_7  and  C12_18
REMARK       I    between atoms: C7_8  and  N1_10
REMARK    5  A    between atoms: N1_10  and  C8_12
REMARK    6  A    between atoms: C8_12  and  C9_13
REMARK    7  A    between atoms: C9_13  and  C10_14
REMARK    8  A    between atoms: C10_14  and  O4_16
REMARK    9  A    between atoms: C12_18  and  O5_19
REMARK   10  A    between atoms: C12_18  and  O6_21
REMARK   11  A    between atoms: N2_25  and  O8_26
REMARK   12  A    between atoms: C14_28  and  C15_29
REMARK   13  A    between atoms: C15_29  and  O9_30
REMARK   14  A    between atoms: C15_29  and  N3_32
REMARK   15  A    between atoms: N3_32  and  N4_34
REMARK   16  A    between atoms: C16_37  and  C17_38
REMARK   17  A    between atoms: C17_38  and  O12_39
REMARK   18  A    between atoms: C17_38  and  O13_41
ROOT
HETATM    1  C1  UNL     1      -3.736   2.116  -5.355  1.00  0.00     0.036 C
HETATM    2  C2  UNL     1      -2.271   2.037  -5.605  1.00  0.00    -0.023 C
HETATM    3  C3  UNL     1      -1.518   1.063  -5.143  1.00  0.00    -0.046 C
HETATM    4  C4  UNL     1      -2.281   0.082  -4.363  1.00  0.00     0.080 C
HETATM    5  C5  UNL     1      -1.510  -0.917  -3.573  1.00  0.00     0.221 C
HETATM    6  C13 UNL     1      -0.369  -0.319  -2.856  1.00  0.00     0.277 C
HETATM    7  O7  UNL     1      -0.389  -0.293  -1.574  1.00  0.00    -0.268 OA
HETATM    8  N2  UNL     1       0.790   0.258  -3.394  1.00  0.00    -0.184 N
HETATM    9  C14 UNL     1       0.932   0.812  -4.761  1.00  0.00     0.130 C
HETATM   10  C16 UNL     1      -0.076   1.161  -5.527  1.00  0.00     0.036 C
ENDROOT
BRANCH   5  11
HETATM   11  O1  UNL     1      -2.388  -1.421  -2.598  1.00  0.00    -0.356 OA
BRANCH  11  12
HETATM   12  C6  UNL     1      -2.224  -2.736  -2.293  1.00  0.00     0.268 C
BRANCH  12  13
HETATM   13  C7  UNL     1      -3.193  -3.550  -3.085  1.00  0.00     0.251 C
HETATM   14  O2  UNL     1      -3.181  -3.381  -4.367  1.00  0.00    -0.270 OA
HETATM   15  N1  UNL     1      -4.099  -4.464  -2.563  1.00  0.00    -0.358 N
ATOM     16  H1  UNL     1      -4.127  -4.607  -1.553  1.00  0.00     0.162 HD
BRANCH  15  17
HETATM   17  C8  UNL     1      -4.993  -5.211  -3.395  1.00  0.00     0.132 C
BRANCH  17  18
HETATM   18  C9  UNL     1      -6.454  -4.820  -3.249  1.00  0.00     0.130 C
BRANCH  18  19
HETATM   19  C10 UNL     1      -6.514  -3.479  -2.631  1.00  0.00     0.259 C
HETATM   20  O3  UNL     1      -6.650  -3.393  -1.390  1.00  0.00    -0.265 OA
BRANCH  19  21
HETATM   21  O4  UNL     1      -6.430  -2.309  -3.364  1.00  0.00    -0.326 OA
HETATM   22  C11 UNL     1      -5.905  -1.106  -2.844  1.00  0.00     0.213 C
ENDBRANCH  19  21
ENDBRANCH  18  19
ENDBRANCH  17  18
ENDBRANCH  15  17
ENDBRANCH  12  13
BRANCH  12  23
HETATM   23  C12 UNL     1      -2.499  -3.108  -0.844  1.00  0.00     0.292 C
BRANCH  23  24
HETATM   24  O5  UNL     1      -3.803  -2.939  -0.454  1.00  0.00    -0.368 OA
ATOM     25  H5  UNL     1      -3.975  -3.175   0.450  1.00  0.00     0.212 HD
ENDBRANCH  23  24
BRANCH  23  26
HETATM   26  O6  UNL     1      -2.108  -4.453  -0.619  1.00  0.00    -0.368 OA
ATOM     27  H6  UNL     1      -2.072  -4.914  -1.449  1.00  0.00     0.212 HD
ENDBRANCH  23  26
ENDBRANCH  12  23
ENDBRANCH  11  12
ENDBRANCH   5  11
BRANCH   8  28
HETATM   28  O8  UNL     1       1.891   0.332  -2.604  1.00  0.00    -0.280 OA
ATOM     29  H8  UNL     1       1.901   0.982  -1.912  1.00  0.00     0.245 HD
ENDBRANCH   8  28
BRANCH  10  30
HETATM   30  C17 UNL     1       0.158   1.638  -6.884  1.00  0.00     0.291 C
BRANCH  30  31
HETATM   31  O12 UNL     1       0.933   2.866  -6.832  1.00  0.00    -0.367 OA
ATOM     32  H12 UNL     1       1.200   3.104  -7.712  1.00  0.00     0.213 HD
ENDBRANCH  30  31
BRANCH  30  33
HETATM   33  O13 UNL     1       0.839   0.825  -7.729  1.00  0.00    -0.367 OA
ATOM     34  H13 UNL     1       0.335   0.223  -8.265  1.00  0.00     0.213 HD
ENDBRANCH  30  33
ENDBRANCH  10  30
BRANCH   9  35
HETATM   35  C15 UNL     1       2.283   1.008  -5.103  1.00  0.00     0.190 C
BRANCH  35  36
HETATM   36  O9  UNL     1       2.766   2.224  -4.773  1.00  0.00    -0.343 OA
ATOM     37  H9  UNL     1       3.373   2.587  -5.407  1.00  0.00     0.219 HD
ENDBRANCH  35  36
BRANCH  35  38
HETATM   38  N3  UNL     1       3.287   0.282  -5.710  1.00  0.00    -0.218 N
ATOM     39  H3  UNL     1       3.444  -0.688  -5.436  1.00  0.00     0.195 HD
BRANCH  38  40
HETATM   40  N4  UNL     1       4.126   0.887  -6.739  1.00  0.00    -0.037 N
HETATM   41  O10 UNL     1       3.570   1.526  -7.618  1.00  0.00    -0.516 OA
HETATM   42  O11 UNL     1       5.481   0.743  -6.716  1.00  0.00    -0.516 OA
ENDBRANCH  38  40
ENDBRANCH  35  38
ENDBRANCH   9  35
TORSDOF 18
ENDMDL