MODEL 3
REMARK VINA RESULT: -7.709321649      3.368      5.067
REMARK  16 active torsions:
REMARK  status: ('A' for Active; 'I' for Inactive)
REMARK    1  A    between atoms: C2_2  and  C3_3
REMARK    2  A    between atoms: C2_2  and  C4_5
REMARK    3  A    between atoms: C4_5  and  O2_6
REMARK    4  A    between atoms: C4_5  and  C6_10
REMARK    5  A    between atoms: O2_6  and  C5_7
REMARK    6  A    between atoms: C6_10  and  C8_12
REMARK    7  A    between atoms: C8_12  and  O5_14
REMARK    8  A    between atoms: O5_14  and  C9_15
REMARK    9  A    between atoms: C9_15  and  O6_16
REMARK   10  A    between atoms: C9_15  and  C10_18
REMARK   11  A    between atoms: C10_18  and  O7_19
REMARK   12  A    between atoms: C10_18  and  C11_21
REMARK   13  A    between atoms: C11_21  and  C12_22
REMARK   14  A    between atoms: C11_21  and  C13_25
REMARK   15  A    between atoms: C13_25  and  C14_26
REMARK   16  A    between atoms: C15_29  and  O12_30
ROOT
HETATM    1  C10 UNL     1      -2.497  -0.882  -3.728  1.00  0.00     0.191 C
ENDROOT
BRANCH   1   2
HETATM    2  C9  UNL     1      -1.992   0.074  -4.768  1.00  0.00     0.296 C
BRANCH   2   3
HETATM    3  O5  UNL     1      -0.673  -0.051  -5.138  1.00  0.00    -0.287 OA
BRANCH   3   4
HETATM    4  C8  UNL     1       0.404   0.619  -4.615  1.00  0.00     0.267 C
HETATM    5  O4  UNL     1       0.224   0.971  -3.429  1.00  0.00    -0.265 OA
BRANCH   4   6
HETATM    6  C6  UNL     1       1.664   0.923  -5.318  1.00  0.00     0.112 C
HETATM    7  C7  UNL     1       2.351   2.081  -4.658  1.00  0.00     0.023 C
BRANCH   6   8
HETATM    8  C4  UNL     1       1.476   1.107  -6.806  1.00  0.00     0.156 C
BRANCH   8   9
HETATM    9  C2  UNL     1       2.325   0.130  -7.542  1.00  0.00     0.073 C
HETATM   10  C1  UNL     1       3.756   0.632  -7.666  1.00  0.00     0.020 C
BRANCH   9  11
HETATM   11  C3  UNL     1       1.791   0.036  -8.937  1.00  0.00     0.237 C
HETATM   12  O1  UNL     1       0.611  -0.043  -9.197  1.00  0.00    -0.306 OA
ENDBRANCH   9  11
ENDBRANCH   8   9
BRANCH   8  13
HETATM   13  O2  UNL     1       1.568   2.425  -7.228  1.00  0.00    -0.299 OA
BRANCH  13  14
HETATM   14  C5  UNL     1       0.557   3.206  -7.714  1.00  0.00     0.373 C
HETATM   15  N1  UNL     1       0.832   4.181  -8.696  1.00  0.00    -0.032 NA
HETATM   16  O3  UNL     1      -0.599   3.021  -7.257  1.00  0.00    -0.242 OA
ENDBRANCH  13  14
ENDBRANCH   8  13
ENDBRANCH   6   8
ENDBRANCH   4   6
ENDBRANCH   3   4
ENDBRANCH   2   3
BRANCH   2  17
HETATM   17  O6  UNL     1      -2.757  -0.099  -5.930  1.00  0.00    -0.368 OA
ATOM     18  H6  UNL     1      -3.213  -0.928  -5.838  1.00  0.00     0.212 HD
ENDBRANCH   2  17
ENDBRANCH   1   2
BRANCH   1  19
HETATM   19  O7  UNL     1      -1.473  -1.794  -3.494  1.00  0.00    -0.390 OA
ATOM     20  H7  UNL     1      -0.823  -1.345  -2.967  1.00  0.00     0.210 HD
ENDBRANCH   1  19
BRANCH   1  21
HETATM   21  C11 UNL     1      -3.717  -1.623  -4.150  1.00  0.00     0.173 C
BRANCH  21  22
HETATM   22  C12 UNL     1      -4.886  -0.713  -4.394  1.00  0.00     0.183 C
HETATM   23  O8  UNL     1      -5.311   0.114  -3.550  1.00  0.00    -0.648 OA
HETATM   24  O9  UNL     1      -5.580  -0.746  -5.615  1.00  0.00    -0.648 OA
ENDBRANCH  21  22
BRANCH  21  25
HETATM   25  C13 UNL     1      -4.210  -2.713  -3.275  1.00  0.00     0.287 C
HETATM   26  C15 UNL     1      -3.435  -3.962  -3.197  1.00  0.00     0.171 C
HETATM   27  C16 UNL     1      -4.098  -4.973  -4.129  1.00  0.00     0.071 C
HETATM   28  C17 UNL     1      -5.197  -4.201  -4.787  1.00  0.00     0.229 C
HETATM   29  C18 UNL     1      -6.588  -4.751  -4.434  1.00  0.00     0.066 C
HETATM   30  N2  UNL     1      -5.503  -3.106  -3.891  1.00  0.00     0.117 N
HETATM   31  C19 UNL     1      -6.311  -3.999  -3.141  1.00  0.00     0.277 C
BRANCH  25  32
HETATM   32  C14 UNL     1      -4.593  -2.272  -1.912  1.00  0.00     0.217 C
HETATM   33  O10 UNL     1      -5.743  -2.298  -1.430  1.00  0.00    -0.646 OA
HETATM   34  O11 UNL     1      -3.598  -1.781  -1.065  1.00  0.00    -0.646 OA
ENDBRANCH  25  32
BRANCH  26  35
HETATM   35  O12 UNL     1      -3.468  -4.542  -1.903  1.00  0.00    -0.392 OA
ATOM     36  H12 UNL     1      -3.590  -5.484  -1.929  1.00  0.00     0.210 HD
ENDBRANCH  26  35
ENDBRANCH  21  25
ENDBRANCH   1  21
TORSDOF 16
ENDMDL