MODEL 3
REMARK VINA RESULT: -7.517843864      2.851      8.703
REMARK  11 active torsions:
REMARK  status: ('A' for Active; 'I' for Inactive)
REMARK    1  A    between atoms: C2_2  and  O1_3
REMARK    2  A    between atoms: O1_3  and  N1_4
REMARK    3  A    between atoms: C3_6  and  C4_7
REMARK    4  A    between atoms: C3_6  and  C15_37
REMARK       I    between atoms: C4_7  and  N2_9
REMARK    5  A    between atoms: C6_12  and  C7_13
REMARK    6  A    between atoms: N3_14  and  N4_16
REMARK       I    between atoms: N4_16  and  C8_18
REMARK    7  A    between atoms: C10_23  and  C11_24
REMARK       I    between atoms: C11_24  and  N5_26
REMARK    8  A    between atoms: N5_26  and  C12_28
REMARK    9  A    between atoms: C12_28  and  O7_29
REMARK   10  A    between atoms: C13_32  and  N6_33
REMARK   11  A    between atoms: C15_37  and  C16_39
ROOT
HETATM    1  C4  UNL     1      -3.010   1.409  -6.898  1.00  0.00     0.278 C
HETATM    2  O2  UNL     1      -3.414   0.249  -7.277  1.00  0.00    -0.265 OA
HETATM    3  N2  UNL     1      -3.483   2.531  -7.610  1.00  0.00    -0.325 N
ATOM      4  H2  UNL     1      -2.954   2.893  -8.403  1.00  0.00     0.169 HD
HETATM    5  C5  UNL     1      -4.594   3.104  -7.254  1.00  0.00     0.039 C
HETATM    6  C6  UNL     1      -5.454   2.678  -6.122  1.00  0.00     0.098 C
HETATM    7  C9  UNL     1      -6.186   3.972  -5.833  1.00  0.00     0.185 C
HETATM    8  O5  UNL     1      -6.456   4.454  -7.114  1.00  0.00    -0.369 OA
HETATM    9  C10 UNL     1      -5.281   4.274  -7.841  1.00  0.00     0.259 C
ENDROOT
BRANCH   6  10
HETATM   10  C7  UNL     1      -6.368   1.650  -6.631  1.00  0.00     0.093 C
HETATM   11  N3  UNL     1      -6.743   0.665  -5.905  1.00  0.00    -0.310 N
ATOM     12  H3  UNL     1      -7.379  -0.033  -6.290  1.00  0.00     0.185 HD
BRANCH  11  13
HETATM   13  N4  UNL     1      -6.294   0.535  -4.603  1.00  0.00    -0.244 N
HETATM   14  C8  UNL     1      -7.038   0.991  -3.507  1.00  0.00     0.303 C
HETATM   15  O3  UNL     1      -8.156   1.544  -3.633  1.00  0.00    -0.628 OA
HETATM   16  O4  UNL     1      -6.561   0.847  -2.200  1.00  0.00    -0.628 OA
ATOM     17  H4  UNL     1      -5.391   0.091  -4.435  1.00  0.00     0.193 HD
ENDBRANCH  11  13
ENDBRANCH   6  10
BRANCH   9  18
HETATM   18  C11 UNL     1      -4.459   5.502  -7.852  1.00  0.00     0.256 C
HETATM   19  O6  UNL     1      -3.196   5.350  -7.752  1.00  0.00    -0.270 OA
HETATM   20  N5  UNL     1      -5.047   6.782  -7.967  1.00  0.00    -0.300 N
ATOM     21  H5  UNL     1      -6.060   6.869  -8.042  1.00  0.00     0.168 HD
BRANCH  20  22
HETATM   22  C12 UNL     1      -4.206   7.990  -7.979  1.00  0.00     0.305 A
HETATM   23  O8  UNL     1      -4.994   9.118  -8.552  1.00  0.00    -0.294 OA
HETATM   24  C13 UNL     1      -3.825   8.563  -9.241  1.00  0.00     0.411 A
BRANCH  22  25
HETATM   25  O7  UNL     1      -3.637   8.279  -6.766  1.00  0.00    -0.345 OA
ATOM     26  H7  UNL     1      -3.133   9.085  -6.762  1.00  0.00     0.215 HD
ENDBRANCH  22  25
BRANCH  24  27
HETATM   27  N6  UNL     1      -2.739   9.478  -9.346  1.00  0.00    -0.045 N
HETATM   28  C14 UNL     1      -1.465   8.831  -9.565  1.00  0.00     0.270 C
ATOM     29  H62 UNL     1      -2.920  10.174 -10.070  1.00  0.00     0.280 HD
ATOM     30  H61 UNL     1      -2.700  10.089  -8.531  1.00  0.00     0.280 HD
ENDBRANCH  24  27
ENDBRANCH  20  22
ENDBRANCH   9  18
BRANCH   1  31
HETATM   31  C3  UNL     1      -2.110   1.434  -5.777  1.00  0.00     0.179 C
HETATM   32  N1  UNL     1      -0.976   2.081  -5.815  1.00  0.00    -0.258 N
ATOM     33  H1  UNL     1      -0.360   2.079  -5.001  1.00  0.00     0.194 HD
BRANCH  32  34
HETATM   34  O1  UNL     1      -0.614   2.762  -6.946  1.00  0.00    -0.280 OA
BRANCH  34  35
HETATM   35  C2  UNL     1       0.687   2.668  -7.478  1.00  0.00     0.196 C
HETATM   36  C1  UNL     1       1.568   1.854  -6.575  1.00  0.00     0.036 C
ENDBRANCH  34  35
ENDBRANCH  32  34
BRANCH  31  37
HETATM   37  C15 UNL     1      -2.432   0.736  -4.547  1.00  0.00     0.281 C
HETATM   38  O9  UNL     1      -3.552   0.929  -4.025  1.00  0.00    -0.278 OA
BRANCH  37  39
HETATM   39  C16 UNL     1      -1.448  -0.183  -3.933  1.00  0.00     0.254 C
HETATM   40  O10 UNL     1      -1.589  -0.549  -2.755  1.00  0.00    -0.642 OA
HETATM   41  O11 UNL     1      -0.394  -0.596  -4.726  1.00  0.00    -0.642 OA
ENDBRANCH  37  39
ENDBRANCH  31  37
ENDBRANCH   1  31
TORSDOF 11
ENDMDL