MODEL 1
REMARK VINA RESULT: -8.348025442      0.000      0.000
REMARK  12 active torsions:
REMARK  status: ('A' for Active; 'I' for Inactive)
REMARK    1  A    between atoms: O1_1  and  N1_3
REMARK    2  A    between atoms: C1_5  and  N3_6
REMARK    3  A    between atoms: N3_6  and  O2_7
REMARK    4  A    between atoms: O2_7  and  C2_8
REMARK    5  A    between atoms: C2_8  and  C3_9
REMARK    6  A    between atoms: C3_9  and  O3_10
REMARK    7  A    between atoms: O3_10  and  C4_11
REMARK    8  A    between atoms: C4_11  and  C5_12
REMARK    9  A    between atoms: C5_12  and  N4_13
REMARK       I    between atoms: N4_13  and  C6_15
REMARK   10  A    between atoms: C6_15  and  C7_17
REMARK   11  A    between atoms: C7_17  and  C8_18
REMARK   12  A    between atoms: C8_18  and  N5_19
ROOT
HETATM    1  N4  UNL     1       3.723   0.560  -6.080  1.00  0.00    -0.359 N
ATOM      2  H4  UNL     1       3.331  -0.027  -6.816  1.00  0.00     0.162 HD
HETATM    3  C6  UNL     1       2.978   0.743  -4.831  1.00  0.00     0.222 C
HETATM    4  O4  UNL     1       3.571   1.489  -4.024  1.00  0.00    -0.273 OA
ENDROOT
BRANCH   3   5
HETATM    5  C7  UNL     1       1.702   0.073  -4.682  1.00  0.00     0.147 C
BRANCH   5   6
HETATM    6  C8  UNL     1       0.630   0.685  -3.885  1.00  0.00     0.067 C
BRANCH   6   7
HETATM    7  N5  UNL     1      -0.543  -0.032  -3.717  1.00  0.00    -0.391 N
HETATM    8  C9  UNL     1      -0.654  -1.339  -3.285  1.00  0.00     0.123 C
HETATM    9  C10 UNL     1      -2.058  -1.571  -2.706  1.00  0.00     0.047 C
HETATM   10  C11 UNL     1      -2.179  -3.013  -2.224  1.00  0.00     0.234 C
HETATM   11  N6  UNL     1      -3.459  -3.237  -1.584  1.00  0.00    -0.074 N
HETATM   12  C12 UNL     1      -4.462  -3.517  -2.565  1.00  0.00     0.251 C
ATOM     13  H62 UNL     1      -3.406  -3.967  -0.874  1.00  0.00     0.277 HD
ATOM     14  H61 UNL     1      -3.724  -2.458  -0.981  1.00  0.00     0.277 HD
HETATM   15  C13 UNL     1      -5.647  -2.579  -2.479  1.00  0.00     0.141 C
HETATM   16  N7  UNL     1      -5.967  -1.979  -3.744  1.00  0.00    -0.420 N
HETATM   17  C14 UNL     1      -5.920  -0.549  -3.764  1.00  0.00     0.115 C
ATOM     18  H7  UNL     1      -6.209  -2.531  -4.567  1.00  0.00     0.153 HD
HETATM   19  C15 UNL     1      -5.200  -0.082  -5.029  1.00  0.00     0.038 C
HETATM   20  C16 UNL     1      -4.534   1.259  -4.821  1.00  0.00     0.115 C
HETATM   21  N8  UNL     1      -3.364   1.459  -5.601  1.00  0.00    -0.420 N
HETATM   22  C17 UNL     1      -2.226   0.665  -5.269  1.00  0.00     0.133 C
ATOM     23  H8  UNL     1      -3.338   2.137  -6.361  1.00  0.00     0.153 HD
HETATM   24  C18 UNL     1      -1.756   0.745  -3.858  1.00  0.00     0.141 C
ENDBRANCH   6   7
ENDBRANCH   5   6
ENDBRANCH   3   5
BRANCH   1  25
HETATM   25  C5  UNL     1       4.995   1.192  -6.286  1.00  0.00     0.148 C
BRANCH  25  26
HETATM   26  C4  UNL     1       5.759   0.392  -7.353  1.00  0.00     0.187 C
BRANCH  26  27
HETATM   27  O3  UNL     1       5.583   1.049  -8.529  1.00  0.00    -0.387 OA
BRANCH  27  28
HETATM   28  C3  UNL     1       5.198   0.355  -9.631  1.00  0.00     0.195 C
BRANCH  28  29
HETATM   29  C2  UNL     1       3.753   0.089  -9.822  1.00  0.00     0.222 C
BRANCH  29  30
HETATM   30  O2  UNL     1       2.890   0.946  -9.161  1.00  0.00    -0.281 OA
BRANCH  30  31
HETATM   31  N3  UNL     1       1.919   0.295  -8.514  1.00  0.00    -0.049 NA
BRANCH  31  32
HETATM   32  C1  UNL     1       0.856   1.152  -8.043  1.00  0.00     0.360 C
HETATM   33  N2  UNL     1       1.424   2.453  -7.749  1.00  0.00    -0.057 NA
HETATM   34  N1  UNL     1       0.514   3.483  -8.032  1.00  0.00    -0.126 N
HETATM   35  C20 UNL     1      -0.851   3.243  -8.309  1.00  0.00     0.283 C
HETATM   36  C19 UNL     1      -1.276   1.857  -8.622  1.00  0.00     0.278 C
HETATM   37  O6  UNL     1      -1.690   4.167  -8.296  1.00  0.00    -0.267 OA
HETATM   38  O5  UNL     1      -0.108   1.188  -9.037  1.00  0.00    -0.343 OA
BRANCH  34  39
HETATM   39  O1  UNL     1       0.977   4.744  -8.037  1.00  0.00    -0.268 OA
ATOM     40  H1  UNL     1       0.394   5.428  -8.343  1.00  0.00     0.246 HD
ENDBRANCH  34  39
ENDBRANCH  31  32
ENDBRANCH  30  31
ENDBRANCH  29  30
ENDBRANCH  28  29
ENDBRANCH  27  28
ENDBRANCH  26  27
ENDBRANCH  25  26
ENDBRANCH   1  25
TORSDOF 12
ENDMDL