MODEL 2
REMARK VINA RESULT: -7.253363459      1.225      1.589
REMARK  20 active torsions:
REMARK  status: ('A' for Active; 'I' for Inactive)
REMARK    1  A    between atoms: O1_2  and  C2_3
REMARK    2  A    between atoms: C2_3  and  C3_5
REMARK    3  A    between atoms: C3_5  and  N1_6
REMARK    4  A    between atoms: N1_6  and  C4_8
REMARK    5  A    between atoms: C4_8  and  C5_9
REMARK    6  A    between atoms: C4_8  and  C7_15
REMARK    7  A    between atoms: C5_9  and  O3_10
REMARK    8  A    between atoms: C5_9  and  C6_12
REMARK    9  A    between atoms: C6_12  and  O4_13
REMARK   10  A    between atoms: C7_15  and  O5_16
REMARK   11  A    between atoms: C7_15  and  C13_23
REMARK   12  A    between atoms: O5_16  and  C8_17
REMARK   13  A    between atoms: C8_17  and  C9_19
REMARK   14  A    between atoms: C9_19  and  C10_20
REMARK   15  A    between atoms: C13_23  and  N2_24
REMARK   16  A    between atoms: C13_23  and  O7_28
REMARK   17  A    between atoms: C15_31  and  C16_32
REMARK   18  A    between atoms: C18_35  and  O9_36
REMARK   19  A    between atoms: C18_35  and  O10_38
REMARK   20  A    between atoms: C20_41  and  O11_42
ROOT
HETATM    1  C4  UNL     1       0.031   2.279  -7.217  1.00  0.00     0.142 C
ENDROOT
BRANCH   1   2
HETATM    2  N1  UNL     1      -0.876   2.553  -6.199  1.00  0.00    -0.393 N
ATOM      3  H1  UNL     1      -0.646   3.352  -5.608  1.00  0.00     0.155 HD
BRANCH   2   4
HETATM    4  C3  UNL     1      -2.073   1.876  -5.870  1.00  0.00     0.142 C
HETATM    5  C14 UNL     1      -1.734   0.842  -4.790  1.00  0.00     0.061 C
HETATM    6  C15 UNL     1      -2.866   0.134  -4.214  1.00  0.00     0.120 C
HETATM    7  C18 UNL     1      -3.820  -0.456  -5.216  1.00  0.00     0.172 C
HETATM    8  C19 UNL     1      -4.023   0.391  -6.401  1.00  0.00     0.103 C
HETATM    9  C20 UNL     1      -2.872   1.204  -6.908  1.00  0.00     0.161 C
BRANCH   4  10
HETATM   10  C2  UNL     1      -2.928   2.902  -5.215  1.00  0.00     0.289 C
HETATM   11  O2  UNL     1      -3.459   2.724  -4.099  1.00  0.00    -0.262 OA
BRANCH  10  12
HETATM   12  O1  UNL     1      -3.158   4.093  -5.832  1.00  0.00    -0.324 OA
HETATM   13  C1  UNL     1      -4.353   4.841  -5.766  1.00  0.00     0.213 C
ENDBRANCH  10  12
ENDBRANCH   4  10
BRANCH   6  14
HETATM   14  C16 UNL     1      -2.303  -1.039  -3.432  1.00  0.00     0.132 C
HETATM   15  C17 UNL     1      -0.877  -1.289  -3.228  1.00  0.00     0.091 C
HETATM   16  O8  UNL     1      -3.078  -1.846  -2.926  1.00  0.00    -0.298 OA
ENDBRANCH   6  14
BRANCH   7  17
HETATM   17  O9  UNL     1      -3.415  -1.749  -5.604  1.00  0.00    -0.365 OA
ATOM     18  H9  UNL     1      -4.164  -2.316  -5.742  1.00  0.00     0.213 HD
ENDBRANCH   7  17
BRANCH   7  19
HETATM   19  O10 UNL     1      -5.042  -0.651  -4.576  1.00  0.00    -0.365 OA
ATOM     20  H10 UNL     1      -5.371   0.201  -4.314  1.00  0.00     0.213 HD
ENDBRANCH   7  19
BRANCH   9  21
HETATM   21  O11 UNL     1      -3.529   2.206  -7.700  1.00  0.00    -0.392 OA
ATOM     22  H11 UNL     1      -2.951   2.455  -8.411  1.00  0.00     0.210 HD
ENDBRANCH   9  21
ENDBRANCH   2   4
ENDBRANCH   1   2
BRANCH   1  23
HETATM   23  C5  UNL     1       0.197   3.318  -8.220  1.00  0.00     0.166 C
BRANCH  23  24
HETATM   24  O3  UNL     1       0.960   4.454  -7.792  1.00  0.00    -0.391 OA
ATOM     25  H3  UNL     1       1.607   4.759  -8.417  1.00  0.00     0.210 HD
ENDBRANCH  23  24
BRANCH  23  26
HETATM   26  C6  UNL     1      -1.095   3.873  -8.797  1.00  0.00     0.197 C
BRANCH  26  27
HETATM   27  O4  UNL     1      -1.737   4.809  -8.065  1.00  0.00    -0.398 OA
ATOM     28  H4  UNL     1      -1.939   5.630  -8.499  1.00  0.00     0.209 HD
ENDBRANCH  26  27
ENDBRANCH  23  26
ENDBRANCH   1  23
BRANCH   1  29
HETATM   29  C7  UNL     1       1.270   1.711  -6.535  1.00  0.00     0.212 C
BRANCH  29  30
HETATM   30  O5  UNL     1       2.372   1.908  -7.463  1.00  0.00    -0.309 OA
BRANCH  30  31
HETATM   31  C8  UNL     1       3.499   1.109  -7.448  1.00  0.00     0.259 C
HETATM   32  O6  UNL     1       4.369   1.419  -6.605  1.00  0.00    -0.265 OA
BRANCH  31  33
HETATM   33  C9  UNL     1       3.665  -0.051  -8.379  1.00  0.00     0.115 C
BRANCH  33  34
HETATM   34  C10 UNL     1       4.365   0.449  -9.624  1.00  0.00    -0.013 C
HETATM   35  C11 UNL     1       3.959  -0.323 -10.847  1.00  0.00     0.010 C
HETATM   36  C12 UNL     1       5.860   0.359  -9.475  1.00  0.00     0.010 C
ENDBRANCH  33  34
ENDBRANCH  31  33
ENDBRANCH  30  31
ENDBRANCH  29  30
BRANCH  29  37
HETATM   37  C13 UNL     1       1.662   2.237  -5.236  1.00  0.00     0.348 C
BRANCH  37  38
HETATM   38  N2  UNL     1       1.473   1.724  -3.940  1.00  0.00    -0.050 N
ATOM     39  H23 UNL     1       0.466   1.582  -3.861  1.00  0.00     0.277 HD
ATOM     40  H22 UNL     1       1.859   0.781  -3.975  1.00  0.00     0.277 HD
ATOM     41  H21 UNL     1       1.757   2.088  -3.030  1.00  0.00     0.277 HD
ENDBRANCH  37  38
BRANCH  37  42
HETATM   42  O7  UNL     1       2.312   3.367  -5.165  1.00  0.00    -0.368 OA
ATOM     43  H7  UNL     1       3.249   3.362  -5.012  1.00  0.00     0.212 HD
ENDBRANCH  37  42
ENDBRANCH  29  37
ENDBRANCH   1  29
TORSDOF 20
ENDMDL