MODEL 1
REMARK VINA RESULT: -5.750158475      0.000      0.000
REMARK  10 active torsions:
REMARK  status: ('A' for Active; 'I' for Inactive)
REMARK    1  A    between atoms: C2_2  and  N1_3
REMARK    2  A    between atoms: C2_2  and  C3_7
REMARK    3  A    between atoms: C4_10  and  N3_11
REMARK    4  A    between atoms: N3_11  and  C5_13
REMARK    5  A    between atoms: C5_13  and  N4_15
REMARK       I    between atoms: N4_15  and  C6_17
REMARK    6  A    between atoms: C6_17  and  C7_19
REMARK    7  A    between atoms: C7_19  and  N5_20
REMARK    8  A    between atoms: C7_19  and  C8_24
REMARK    9  A    between atoms: C8_24  and  N6_25
REMARK   10  A    between atoms: C11_33  and  N7_34
ROOT
HETATM    1  C3  UNL     1      -5.015   0.443  25.467  1.00  0.00     0.139 C
HETATM    2  N2  UNL     1      -6.218  -0.066  25.090  1.00  0.00    -0.393 N
ATOM      3  H2  UNL     1      -6.285  -0.353  24.113  1.00  0.00     0.155 HD
HETATM    4  C4  UNL     1      -7.363  -0.251  25.838  1.00  0.00     0.189 C
HETATM    5  C9  UNL     1      -7.302  -1.315  26.908  1.00  0.00     0.132 C
HETATM    6  S2  UNL     1      -7.149  -0.615  28.576  1.00  0.00    -0.094 SA
HETATM    7  S3  UNL     1      -5.093  -0.651  29.126  1.00  0.00    -0.095 SA
HETATM    8  C10 UNL     1      -4.132  -0.373  27.603  1.00  0.00     0.121 C
HETATM    9  C11 UNL     1      -4.688   0.835  26.838  1.00  0.00     0.217 C
ENDROOT
BRANCH   4  10
HETATM   10  N3  UNL     1      -8.436  -0.636  24.932  1.00  0.00    -0.345 N
ATOM     11  H3  UNL     1      -8.359  -1.486  24.373  1.00  0.00     0.164 HD
BRANCH  10  12
HETATM   12  C5  UNL     1      -9.581   0.176  24.835  1.00  0.00     0.175 C
HETATM   13  S1  UNL     1     -10.929  -0.250  25.729  1.00  0.00    -0.041 SA
BRANCH  12  14
HETATM   14  N4  UNL     1      -9.701   1.344  24.059  1.00  0.00    -0.302 N
HETATM   15  C6  UNL     1      -8.904   1.726  22.974  1.00  0.00     0.256 C
HETATM   16  O1  UNL     1      -7.937   1.097  22.495  1.00  0.00    -0.271 OA
ATOM     17  H4  UNL     1     -10.453   1.983  24.317  1.00  0.00     0.171 HD
BRANCH  15  18
HETATM   18  C7  UNL     1      -9.192   3.035  22.257  1.00  0.00     0.300 C
BRANCH  18  19
HETATM   19  N5  UNL     1      -7.982   3.750  21.984  1.00  0.00    -0.065 N
ATOM     20  H53 UNL     1      -7.543   4.086  22.841  1.00  0.00     0.275 HD
ATOM     21  H52 UNL     1      -7.242   3.125  21.664  1.00  0.00     0.275 HD
ATOM     22  H51 UNL     1      -8.146   4.508  21.322  1.00  0.00     0.275 HD
ENDBRANCH  18  19
BRANCH  18  23
HETATM   23  C8  UNL     1      -9.840   2.651  20.947  1.00  0.00     0.272 C
BRANCH  23  24
HETATM   24  N6  UNL     1      -8.880   2.692  19.863  1.00  0.00    -0.077 N
ATOM     25  H63 UNL     1      -8.394   3.588  19.824  1.00  0.00     0.274 HD
ATOM     26  H62 UNL     1      -8.077   2.089  20.047  1.00  0.00     0.274 HD
ATOM     27  H61 UNL     1      -9.324   2.465  18.973  1.00  0.00     0.274 HD
ENDBRANCH  23  24
ENDBRANCH  18  23
ENDBRANCH  15  18
ENDBRANCH  12  14
ENDBRANCH  10  12
ENDBRANCH   4  10
BRANCH   1  28
HETATM   28  C2  UNL     1      -4.702   1.648  24.550  1.00  0.00     0.203 C
HETATM   29  C1  UNL     1      -4.802   1.278  23.101  1.00  0.00     0.042 C
BRANCH  28  30
HETATM   30  N1  UNL     1      -3.358   2.127  24.801  1.00  0.00    -0.073 N
ATOM     31  H13 UNL     1      -2.702   1.372  24.997  1.00  0.00     0.274 HD
ATOM     32  H12 UNL     1      -2.905   2.488  23.961  1.00  0.00     0.274 HD
ATOM     33  H11 UNL     1      -3.402   2.816  25.551  1.00  0.00     0.274 HD
ENDBRANCH  28  30
ENDBRANCH   1  28
BRANCH   9  34
HETATM   34  N7  UNL     1      -5.681   1.434  27.638  1.00  0.00    -0.072 N
ATOM     35  H73 UNL     1      -5.275   1.664  28.545  1.00  0.00     0.274 HD
ATOM     36  H72 UNL     1      -5.883   2.363  27.268  1.00  0.00     0.274 HD
ATOM     37  H71 UNL     1      -6.562   0.944  27.789  1.00  0.00     0.274 HD
ENDBRANCH   9  34
TORSDOF 10
ENDMDL