MODEL 5
REMARK VINA RESULT: -6.561488243      2.551      6.408
REMARK  11 active torsions:
REMARK  status: ('A' for Active; 'I' for Inactive)
REMARK    1  A    between atoms: C2_2  and  C3_3
REMARK    2  A    between atoms: C3_3  and  N1_4
REMARK       I    between atoms: N1_4  and  C4_6
REMARK       I    between atoms: C4_6  and  N3_11
REMARK    3  A    between atoms: N2_7  and  O1_9
REMARK    4  A    between atoms: N3_11  and  C5_13
REMARK    5  A    between atoms: C6_16  and  N5_17
REMARK    6  A    between atoms: C11_27  and  N8_28
REMARK    7  A    between atoms: N8_28  and  C12_30
REMARK    8  A    between atoms: C12_30  and  O2_31
REMARK    9  A    between atoms: C12_30  and  C13_33
REMARK   10  A    between atoms: C13_33  and  N9_34
REMARK   11  A    between atoms: C13_33  and  O3_38
ROOT
HETATM    1  C5  UNL     1      -9.968   4.693  20.719  1.00  0.00     0.734 A
HETATM    2  N4  UNL     1      -9.941   3.940  19.605  1.00  0.00    -0.020 N
ATOM      3  H4  UNL     1      -9.421   3.062  19.612  1.00  0.00     0.203 HD
HETATM    4  C6  UNL     1     -10.581   4.312  18.483  1.00  0.00     0.706 A
HETATM    5  N6  UNL     1     -11.264   5.466  18.482  1.00  0.00    -0.021 N
ATOM      6  H6  UNL     1     -11.752   5.756  17.634  1.00  0.00     0.203 HD
HETATM    7  C8  UNL     1     -11.319   6.253  19.573  1.00  0.00     0.719 A
HETATM    8  N7  UNL     1     -12.025   7.421  19.531  1.00  0.00    -0.200 N
ATOM      9  H7  UNL     1     -12.501   7.681  18.667  1.00  0.00     0.183 HD
HETATM   10  C9  UNL     1     -12.108   8.237  20.593  1.00  0.00     0.110 A
HETATM   11  C10 UNL     1     -11.447   7.846  21.740  1.00  0.00     0.067 A
HETATM   12  C11 UNL     1     -10.741   6.663  21.762  1.00  0.00     0.146 A
HETATM   13  N10 UNL     1     -10.665   5.844  20.671  1.00  0.00     0.039 N
ENDROOT
BRANCH   1  14
HETATM   14  N3  UNL     1      -9.382   4.379  21.786  1.00  0.00    -0.019 N
HETATM   15  C4  UNL     1      -8.764   3.190  22.144  1.00  0.00     0.712 C
HETATM   16  N1  UNL     1      -9.417   1.950  22.379  1.00  0.00    -0.224 N
HETATM   17  N2  UNL     1      -7.472   3.195  22.279  1.00  0.00    -0.098 N
ATOM     18  H1  UNL     1      -9.958   1.520  21.629  1.00  0.00     0.177 HD
ATOM     19  H2  UNL     1      -7.016   2.321  22.541  1.00  0.00     0.213 HD
ATOM     20  H3  UNL     1      -9.357   5.110  22.498  1.00  0.00     0.203 HD
BRANCH  16  21
HETATM   21  C3  UNL     1      -9.330   1.282  23.664  1.00  0.00     0.138 C
BRANCH  21  22
HETATM   22  C2  UNL     1      -8.591  -0.033  23.557  1.00  0.00     0.016 C
HETATM   23  C1  UNL     1      -7.299   0.100  24.349  1.00  0.00     0.006 C
ENDBRANCH  21  22
ENDBRANCH  16  21
BRANCH  17  24
HETATM   24  O1  UNL     1      -6.690   4.287  22.094  1.00  0.00    -0.276 OA
ATOM     25  H1  UNL     1      -6.345   4.560  21.252  1.00  0.00     0.245 HD
ENDBRANCH  17  24
ENDBRANCH   1  14
BRANCH   4  26
HETATM   26  N5  UNL     1     -10.556   3.582  17.404  1.00  0.00    -0.229 N
HETATM   27  C7  UNL     1     -10.596   2.154  17.438  1.00  0.00     0.165 C
ATOM     28  H5  UNL     1     -10.504   4.049  16.498  1.00  0.00     0.177 HD
ENDBRANCH   4  26
BRANCH  12  29
HETATM   29  N8  UNL     1     -10.131   6.298  22.809  1.00  0.00    -0.345 N
ATOM     30  H8  UNL     1     -10.373   5.365  23.145  1.00  0.00     0.163 HD
BRANCH  29  31
HETATM   31  C12 UNL     1      -9.163   6.983  23.588  1.00  0.00     0.275 C
BRANCH  31  32
HETATM   32  O2  UNL     1      -9.697   7.715  24.657  1.00  0.00    -0.372 OA
ATOM     33  H2  UNL     1      -9.682   8.656  24.533  1.00  0.00     0.212 HD
ENDBRANCH  31  32
BRANCH  31  34
HETATM   34  C13 UNL     1      -8.207   7.808  22.751  1.00  0.00     0.365 C
BRANCH  34  35
HETATM   35  N9  UNL     1      -7.265   8.469  23.633  1.00  0.00    -0.049 N
ATOM     36  H93 UNL     1      -6.374   7.975  23.693  1.00  0.00     0.277 HD
ATOM     37  H92 UNL     1      -6.915   9.345  23.244  1.00  0.00     0.277 HD
ATOM     38  H91 UNL     1      -7.703   8.594  24.546  1.00  0.00     0.277 HD
ENDBRANCH  34  35
BRANCH  34  39
HETATM   39  O3  UNL     1      -7.461   6.872  21.998  1.00  0.00    -0.367 OA
ATOM     40  H3  UNL     1      -7.788   6.943  21.109  1.00  0.00     0.212 HD
ENDBRANCH  34  39
ENDBRANCH  31  34
ENDBRANCH  29  31
ENDBRANCH  12  29
TORSDOF 11
ENDMDL