MODEL 2
REMARK VINA RESULT: -7.750177012      0.926      1.275
REMARK  10 active torsions:
REMARK  status: ('A' for Active; 'I' for Inactive)
REMARK    1  A    between atoms: N1_1  and  N2_4
REMARK    2  A    between atoms: N2_4  and  C1_5
REMARK    3  A    between atoms: C1_5  and  N3_6
REMARK    4  A    between atoms: C1_5  and  C2_10
REMARK    5  A    between atoms: C2_10  and  C3_12
REMARK       I    between atoms: C3_12  and  N4_14
REMARK    6  A    between atoms: N4_14  and  N5_16
REMARK    7  A    between atoms: N5_16  and  C4_18
REMARK    8  A    between atoms: C4_18  and  N6_20
REMARK    9  A    between atoms: N6_20  and  N7_22
REMARK   10  A    between atoms: C5_24  and  C6_25
ROOT
HETATM    1  N5  UNL     1     -10.023  -0.593  23.593  1.00  0.00    -0.272 N
ATOM      2  H5  UNL     1      -9.615  -1.163  22.853  1.00  0.00     0.189 HD
ENDROOT
BRANCH   1   3
HETATM    3  N4  UNL     1     -10.427   0.712  23.344  1.00  0.00    -0.261 N
HETATM    4  C3  UNL     1      -9.480   1.758  23.450  1.00  0.00     0.309 C
HETATM    5  O2  UNL     1      -8.297   1.466  23.768  1.00  0.00    -0.263 OA
ATOM      6  H4  UNL     1     -11.394   0.914  23.088  1.00  0.00     0.190 HD
BRANCH   4   7
HETATM    7  C2  UNL     1      -9.866   3.150  23.196  1.00  0.00     0.265 C
HETATM    8  O1  UNL     1     -10.819   3.622  23.853  1.00  0.00    -0.283 OA
BRANCH   7   9
HETATM    9  C1  UNL     1      -9.085   3.891  22.168  1.00  0.00     0.373 C
BRANCH   9  10
HETATM   10  N2  UNL     1      -7.947   4.573  22.702  1.00  0.00    -0.106 NA
BRANCH  10  11
HETATM   11  N1  UNL     1      -6.765   3.964  22.311  1.00  0.00    -0.346 N
ATOM     12  H12 UNL     1      -6.609   3.586  21.377  1.00  0.00     0.172 HD
ATOM     13  H11 UNL     1      -6.087   3.947  23.073  1.00  0.00     0.172 HD
ENDBRANCH  10  11
ENDBRANCH   9  10
BRANCH   9  14
HETATM   14  N3  UNL     1      -8.667   2.865  21.196  1.00  0.00    -0.052 N
ATOM     15  H33 UNL     1      -8.071   2.158  21.625  1.00  0.00     0.276 HD
ATOM     16  H32 UNL     1      -9.445   2.264  20.923  1.00  0.00     0.276 HD
ATOM     17  H31 UNL     1      -8.221   3.296  20.387  1.00  0.00     0.276 HD
ENDBRANCH   9  14
ENDBRANCH   7   9
ENDBRANCH   4   7
ENDBRANCH   1   3
BRANCH   1  18
HETATM   18  C4  UNL     1     -10.191  -1.116  24.901  1.00  0.00     0.205 C
HETATM   19  S1  UNL     1     -11.583  -0.887  25.726  1.00  0.00    -0.038 SA
BRANCH  18  20
HETATM   20  N6  UNL     1      -9.146  -1.848  25.504  1.00  0.00    -0.275 N
ATOM     21  H6  UNL     1      -9.290  -2.818  25.784  1.00  0.00     0.189 HD
BRANCH  20  22
HETATM   22  N7  UNL     1      -7.919  -1.233  25.711  1.00  0.00    -0.309 N
HETATM   23  C5  UNL     1      -7.156  -1.566  26.726  1.00  0.00     0.118 C
ATOM     24  H7  UNL     1      -7.605  -0.511  25.064  1.00  0.00     0.186 HD
BRANCH  23  25
HETATM   25  C6  UNL     1      -5.894  -0.851  26.838  1.00  0.00    -0.017 A
HETATM   26  C7  UNL     1      -5.229  -0.878  28.041  1.00  0.00     0.016 A
HETATM   27  C8  UNL     1      -4.023  -0.215  28.200  1.00  0.00     0.040 A
HETATM   28  C9  UNL     1      -3.454   0.493  27.154  1.00  0.00     0.105 A
HETATM   29  C10 UNL     1      -4.118   0.521  25.947  1.00  0.00     0.105 A
HETATM   30  O4  UNL     1      -2.285   1.229  27.043  1.00  0.00    -0.323 OA
HETATM   31  C11 UNL     1      -5.315  -0.142  25.802  1.00  0.00     0.052 A
HETATM   32  O3  UNL     1      -3.343   1.285  25.090  1.00  0.00    -0.323 OA
HETATM   33  C12 UNL     1      -2.159   1.704  25.739  1.00  0.00     0.352 A
ENDBRANCH  23  25
ENDBRANCH  20  22
ENDBRANCH  18  20
ENDBRANCH   1  18
TORSDOF 10
ENDMDL