MODEL 5
REMARK VINA RESULT: -8.590656149      1.522      2.184
REMARK  8 active torsions:
REMARK  status: ('A' for Active; 'I' for Inactive)
REMARK    1  A    between atoms: C2_2  and  N1_3
REMARK    2  A    between atoms: C2_2  and  C3_7
REMARK    3  A    between atoms: C3_7  and  N2_8
REMARK    4  A    between atoms: C3_7  and  C4_12
REMARK    5  A    between atoms: C7_18  and  C8_19
REMARK    6  A    between atoms: C9_24  and  C10_25
REMARK    7  A    between atoms: C10_25  and  N8_30
REMARK    8  A    between atoms: N8_30  and  C12_32
ROOT
HETATM    1  C10 UNL     1     -10.404   1.033  22.302  1.00  0.00     0.175 C
HETATM    2  N6  UNL     1     -11.193   2.018  22.378  1.00  0.00    -0.276 N
ATOM      3  H6  UNL     1     -11.608   2.354  21.509  1.00  0.00     0.179 HD
HETATM    4  C11 UNL     1     -11.533   2.671  23.535  1.00  0.00     0.183 C
HETATM    5  N7  UNL     1     -11.850   3.232  24.506  1.00  0.00    -0.172 NA
ENDROOT
BRANCH   1   6
HETATM    6  C9  UNL     1      -9.736   0.447  23.449  1.00  0.00     0.168 A
HETATM    7  N5  UNL     1      -9.994  -0.783  23.982  1.00  0.00    -0.281 N
HETATM    8  N4  UNL     1      -9.184  -0.991  24.994  1.00  0.00    -0.283 N
ATOM      9  H5  UNL     1     -10.702  -1.436  23.647  1.00  0.00     0.188 HD
HETATM   10  C8  UNL     1      -8.364   0.087  25.169  1.00  0.00     0.137 A
ATOM     11  H4  UNL     1      -9.169  -1.835  25.567  1.00  0.00     0.188 HD
HETATM   12  N13 UNL     1      -8.727   0.940  24.214  1.00  0.00    -0.323 N
ATOM     13  H13 UNL     1      -8.299   1.855  24.074  1.00  0.00     0.169 HD
BRANCH  10  14
HETATM   14  C7  UNL     1      -7.336   0.201  26.208  1.00  0.00     0.078 A
HETATM   15  C6  UNL     1      -7.605   0.335  27.543  1.00  0.00     0.259 A
HETATM   16  N3  UNL     1      -6.610   0.436  28.453  1.00  0.00    -0.332 N
HETATM   17  O1  UNL     1      -8.819   0.365  27.947  1.00  0.00    -0.267 OA
HETATM   18  C5  UNL     1      -5.338   0.408  28.060  1.00  0.00     0.100 A
ATOM     19  H3  UNL     1      -6.835   0.534  29.443  1.00  0.00     0.168 HD
HETATM   20  C4  UNL     1      -4.973   0.276  26.736  1.00  0.00    -0.009 A
HETATM   21  C13 UNL     1      -6.000   0.175  25.830  1.00  0.00     0.031 A
BRANCH  20  22
HETATM   22  C3  UNL     1      -3.546   0.248  26.339  1.00  0.00     0.247 C
BRANCH  22  23
HETATM   23  C2  UNL     1      -3.086   1.589  25.803  1.00  0.00     0.214 C
HETATM   24  C1  UNL     1      -1.576   1.653  25.714  1.00  0.00     0.042 C
BRANCH  23  25
HETATM   25  N1  UNL     1      -3.710   1.917  24.561  1.00  0.00    -0.073 N
ATOM     26  H13 UNL     1      -4.419   2.640  24.684  1.00  0.00     0.274 HD
ATOM     27  H12 UNL     1      -3.070   2.422  23.948  1.00  0.00     0.274 HD
ATOM     28  H11 UNL     1      -4.095   1.095  24.097  1.00  0.00     0.274 HD
ENDBRANCH  23  25
ENDBRANCH  22  23
BRANCH  22  29
HETATM   29  N2  UNL     1      -2.672  -0.216  27.393  1.00  0.00    -0.069 N
ATOM     30  H23 UNL     1      -2.451   0.529  28.054  1.00  0.00     0.275 HD
ATOM     31  H22 UNL     1      -3.155  -0.850  28.030  1.00  0.00     0.275 HD
ATOM     32  H21 UNL     1      -1.828  -0.640  27.009  1.00  0.00     0.275 HD
ENDBRANCH  22  29
ENDBRANCH  20  22
ENDBRANCH  10  14
ENDBRANCH   1   6
BRANCH   1  33
HETATM   33  N8  UNL     1     -10.191   0.501  20.982  1.00  0.00    -0.169 N
ATOM     34  H8  UNL     1     -10.345  -0.486  20.775  1.00  0.00     0.186 HD
BRANCH  33  35
HETATM   35  C12 UNL     1      -9.798   1.323  20.074  1.00  0.00     0.715 A
HETATM   36  N9  UNL     1     -10.099   1.277  18.768  1.00  0.00    -0.115 N
HETATM   37  N10 UNL     1      -9.532   2.267  18.131  1.00  0.00    -0.213 N
ATOM     38  H9  UNL     1     -10.689   0.568  18.332  1.00  0.00     0.207 HD
HETATM   39  N11 UNL     1      -8.871   2.947  19.021  1.00  0.00    -0.213 N
ATOM     40  H10 UNL     1      -9.597   2.467  17.133  1.00  0.00     0.210 HD
HETATM   41  N12 UNL     1      -9.007   2.405  20.215  1.00  0.00    -0.115 N
ATOM     42  H11 UNL     1      -8.322   3.783  18.822  1.00  0.00     0.210 HD
ATOM     43  H12 UNL     1      -8.591   2.743  21.084  1.00  0.00     0.207 HD
ENDBRANCH  33  35
ENDBRANCH   1  33
TORSDOF 8
ENDMDL