MODEL 2
REMARK VINA RESULT: -6.630595580      1.252      1.484
REMARK  11 active torsions:
REMARK  status: ('A' for Active; 'I' for Inactive)
REMARK    1  A    between atoms: O1_2  and  C2_3
REMARK    2  A    between atoms: C3_4  and  O2_5
REMARK    3  A    between atoms: C4_7  and  N1_8
REMARK    4  A    between atoms: C6_13  and  N2_14
REMARK    5  A    between atoms: C7_18  and  O3_19
REMARK    6  A    between atoms: O3_19  and  C8_20
REMARK    7  A    between atoms: C9_21  and  N3_22
REMARK    8  A    between atoms: C11_27  and  N4_28
REMARK    9  A    between atoms: C12_32  and  O4_33
REMARK   10  A    between atoms: O4_33  and  C13_34
REMARK   11  A    between atoms: C15_37  and  O6_38
ROOT
HETATM    1  C8  UNL     1      -8.261  -1.209  26.509  1.00  0.00     0.183 C
HETATM    2  C9  UNL     1      -8.982  -2.240  25.702  1.00  0.00     0.217 C
HETATM    3  C10 UNL     1     -10.439  -2.047  25.536  1.00  0.00     0.071 C
HETATM    4  C11 UNL     1     -10.887  -0.612  25.453  1.00  0.00     0.217 C
HETATM    5  C12 UNL     1      -9.660   0.203  25.111  1.00  0.00     0.193 C
HETATM    6  C15 UNL     1      -8.799   0.185  26.353  1.00  0.00     0.180 C
ENDROOT
BRANCH   1   7
HETATM    7  O3  UNL     1      -6.900  -1.148  26.213  1.00  0.00    -0.371 OA
BRANCH   7   8
HETATM    8  C7  UNL     1      -6.265  -0.048  26.709  1.00  0.00     0.184 C
HETATM    9  C2  UNL     1      -5.195   0.534  25.813  1.00  0.00     0.182 C
HETATM   10  C3  UNL     1      -4.283   1.425  26.658  1.00  0.00     0.180 C
HETATM   11  C4  UNL     1      -3.422   0.547  27.524  1.00  0.00     0.216 C
HETATM   12  C5  UNL     1      -4.149  -0.748  27.806  1.00  0.00     0.071 C
HETATM   13  C6  UNL     1      -5.612  -0.474  28.033  1.00  0.00     0.217 C
BRANCH   9  14
HETATM   14  O1  UNL     1      -5.835   1.413  24.927  1.00  0.00    -0.385 OA
HETATM   15  C1  UNL     1      -5.856   0.863  23.647  1.00  0.00     0.202 C
ENDBRANCH   9  14
BRANCH  10  16
HETATM   16  O2  UNL     1      -3.497   2.159  25.750  1.00  0.00    -0.391 OA
ATOM     17  H2  UNL     1      -3.387   3.022  26.131  1.00  0.00     0.210 HD
ENDBRANCH  10  16
BRANCH  11  18
HETATM   18  N1  UNL     1      -2.170   0.279  26.876  1.00  0.00    -0.072 N
ATOM     19  H13 UNL     1      -2.064  -0.710  26.649  1.00  0.00     0.274 HD
ATOM     20  H12 UNL     1      -2.145   0.656  25.929  1.00  0.00     0.274 HD
ATOM     21  H11 UNL     1      -1.395   0.624  27.443  1.00  0.00     0.274 HD
ENDBRANCH  11  18
BRANCH  13  22
HETATM   22  N2  UNL     1      -5.847   0.479  29.080  1.00  0.00    -0.072 N
ATOM     23  H23 UNL     1      -4.969   0.881  29.410  1.00  0.00     0.274 HD
ATOM     24  H22 UNL     1      -6.288   1.321  28.712  1.00  0.00     0.274 HD
ATOM     25  H21 UNL     1      -6.385   0.093  29.855  1.00  0.00     0.274 HD
ENDBRANCH  13  22
ENDBRANCH   7   8
ENDBRANCH   1   7
BRANCH   2  26
HETATM   26  N3  UNL     1      -8.832  -3.554  26.356  1.00  0.00    -0.072 N
ATOM     27  H33 UNL     1      -8.926  -4.328  25.698  1.00  0.00     0.274 HD
ATOM     28  H32 UNL     1      -7.872  -3.733  26.652  1.00  0.00     0.274 HD
ATOM     29  H31 UNL     1      -9.495  -3.619  27.129  1.00  0.00     0.274 HD
ENDBRANCH   2  26
BRANCH   6  30
HETATM   30  O6  UNL     1      -9.525   0.554  27.495  1.00  0.00    -0.390 OA
ATOM     31  H6  UNL     1     -10.292   1.055  27.247  1.00  0.00     0.210 HD
ENDBRANCH   6  30
BRANCH   5  32
HETATM   32  O4  UNL     1      -9.946   1.469  24.634  1.00  0.00    -0.311 OA
BRANCH  32  33
HETATM   33  C13 UNL     1      -9.587   1.958  23.391  1.00  0.00     0.255 C
HETATM   34  C14 UNL     1      -9.393   0.981  22.285  1.00  0.00     0.126 C
HETATM   35  O5  UNL     1      -9.448   3.185  23.264  1.00  0.00    -0.266 OA
ENDBRANCH  32  33
ENDBRANCH   5  32
BRANCH   4  36
HETATM   36  N4  UNL     1     -11.971  -0.407  24.524  1.00  0.00    -0.072 N
ATOM     37  H43 UNL     1     -12.176   0.586  24.420  1.00  0.00     0.274 HD
ATOM     38  H42 UNL     1     -11.676  -0.619  23.571  1.00  0.00     0.274 HD
ATOM     39  H41 UNL     1     -12.813  -0.927  24.767  1.00  0.00     0.274 HD
ENDBRANCH   4  36
TORSDOF 11
ENDMDL