MODEL 4
REMARK VINA RESULT: -7.380563720      3.137      7.683
REMARK  7 active torsions:
REMARK  status: ('A' for Active; 'I' for Inactive)
REMARK    1  A    between atoms: C2_3  and  N2_4
REMARK    2  A    between atoms: N2_4  and  C3_6
REMARK    3  A    between atoms: C6_14  and  N5_15
REMARK    4  A    between atoms: N5_15  and  C7_17
REMARK    5  A    between atoms: C7_17  and  C8_18
REMARK    6  A    between atoms: C8_18  and  N6_19
REMARK    7  A    between atoms: N6_19  and  C9_21
ROOT
HETATM    1  N1  UNL     1      -2.279   1.393  27.173  1.00  0.00    -0.191 NA
HETATM    2  C1  UNL     1      -3.189   0.763  27.471  1.00  0.00     0.105 C
HETATM    3  C2  UNL     1      -4.352  -0.057  27.836  1.00  0.00     0.184 C
ENDROOT
BRANCH   3   4
HETATM    4  N2  UNL     1      -4.969  -0.688  26.766  1.00  0.00    -0.341 N
ATOM      5  H2  UNL     1      -4.398  -1.467  26.438  1.00  0.00     0.167 HD
BRANCH   4   6
HETATM    6  C3  UNL     1      -6.005  -0.594  26.086  1.00  0.00     0.139 A
HETATM    7  N3  UNL     1      -7.092  -1.362  26.455  1.00  0.00    -0.292 N
HETATM    8  C4  UNL     1      -8.240  -1.325  25.784  1.00  0.00     0.326 A
ATOM      9  H3  UNL     1      -7.014  -1.974  27.267  1.00  0.00     0.172 HD
HETATM   10  O1  UNL     1      -9.243  -2.014  26.101  1.00  0.00    -0.247 OA
HETATM   11  N4  UNL     1      -8.357  -0.516  24.708  1.00  0.00    -0.303 N
HETATM   12  C5  UNL     1      -7.320   0.247  24.316  1.00  0.00     0.111 A
ATOM     13  H4  UNL     1      -9.235  -0.483  24.190  1.00  0.00     0.171 HD
HETATM   14  C6  UNL     1      -7.455   1.073  23.209  1.00  0.00     0.132 A
HETATM   15  C14 UNL     1      -6.111   0.237  24.987  1.00  0.00     0.108 A
HETATM   16  N11 UNL     1      -6.406   1.821  22.843  1.00  0.00    -0.337 N
HETATM   17  C13 UNL     1      -5.234   1.803  23.503  1.00  0.00     0.182 A
ATOM     18  H11 UNL     1      -6.500   2.430  22.031  1.00  0.00     0.168 HD
HETATM   19  N12 UNL     1      -5.082   1.016  24.571  1.00  0.00    -0.347 N
ATOM     20  H12 UNL     1      -4.194   1.002  25.073  1.00  0.00     0.167 HD
BRANCH  14  21
HETATM   21  N5  UNL     1      -8.583   1.092  22.570  1.00  0.00    -0.373 N
ATOM     22  H5  UNL     1      -8.837   0.350  21.917  1.00  0.00     0.161 HD
BRANCH  21  23
HETATM   23  C7  UNL     1      -9.470   2.212  22.818  1.00  0.00     0.141 C
BRANCH  23  24
HETATM   24  C8  UNL     1      -9.528   3.145  21.631  1.00  0.00     0.141 C
BRANCH  24  25
HETATM   25  N6  UNL     1      -8.946   2.473  20.493  1.00  0.00    -0.373 N
ATOM     26  H6  UNL     1      -8.070   1.967  20.626  1.00  0.00     0.161 HD
BRANCH  25  27
HETATM   27  C9  UNL     1      -9.471   2.480  19.329  1.00  0.00     0.130 A
HETATM   28  N7  UNL     1      -9.315   3.525  18.498  1.00  0.00    -0.337 N
HETATM   29  C10 UNL     1      -9.873   3.533  17.258  1.00  0.00     0.183 A
ATOM     30  H7  UNL     1      -8.767   4.329  18.804  1.00  0.00     0.168 HD
HETATM   31  N8  UNL     1     -10.594   2.471  16.863  1.00  0.00    -0.339 N
HETATM   32  C11 UNL     1     -10.788   1.397  17.641  1.00  0.00     0.145 A
ATOM     33  H8  UNL     1     -11.011   2.482  15.932  1.00  0.00     0.167 HD
HETATM   34  N9  UNL     1     -11.559   0.289  17.186  1.00  0.00    -0.081 NA
HETATM   35  C12 UNL     1     -10.219   1.396  18.895  1.00  0.00     0.131 A
HETATM   36  N10 UNL     1     -10.399   0.276  19.755  1.00  0.00    -0.095 NA
ENDBRANCH  25  27
ENDBRANCH  24  25
ENDBRANCH  23  24
ENDBRANCH  21  23
ENDBRANCH  14  21
ENDBRANCH   4   6
ENDBRANCH   3   4
TORSDOF 7
ENDMDL