MODEL 4
REMARK VINA RESULT: -6.686624766      1.975      2.277
REMARK  9 active torsions:
REMARK  status: ('A' for Active; 'I' for Inactive)
REMARK    1  A    between atoms: N1_1  and  C1_5
REMARK    2  A    between atoms: C1_5  and  C2_6
REMARK    3  A    between atoms: C1_5  and  C9_24
REMARK       I    between atoms: C2_6  and  N2_8
REMARK    4  A    between atoms: N2_8  and  N3_10
REMARK    5  A    between atoms: C8_21  and  O4_22
REMARK    6  A    between atoms: C9_24  and  N4_25
REMARK    7  A    between atoms: C9_24  and  C10_29
REMARK    8  A    between atoms: C10_29  and  O5_30
REMARK    9  A    between atoms: N5_32  and  O6_34
ROOT
HETATM    1  C2  UNL     1      -6.522  -0.105  26.671  1.00  0.00     0.269 C
HETATM    2  O1  UNL     1      -7.382   0.722  27.088  1.00  0.00    -0.269 OA
HETATM    3  N2  UNL     1      -6.890  -0.987  25.632  1.00  0.00    -0.268 N
ATOM      4  H2  UNL     1      -6.220  -1.666  25.270  1.00  0.00     0.190 HD
ENDROOT
BRANCH   1   5
HETATM    5  C1  UNL     1      -5.154  -0.170  27.237  1.00  0.00     0.314 C
BRANCH   5   6
HETATM    6  N1  UNL     1      -5.198   0.144  28.641  1.00  0.00    -0.064 N
ATOM      7  H13 UNL     1      -5.001  -0.669  29.223  1.00  0.00     0.275 HD
ATOM      8  H12 UNL     1      -4.411   0.726  28.930  1.00  0.00     0.275 HD
ATOM      9  H11 UNL     1      -6.096   0.570  28.868  1.00  0.00     0.275 HD
ENDBRANCH   5   6
BRANCH   5  10
HETATM   10  C9  UNL     1      -4.294   0.837  26.507  1.00  0.00     0.298 C
BRANCH  10  11
HETATM   11  N4  UNL     1      -4.754   2.152  26.780  1.00  0.00    -0.065 N
ATOM     12  H43 UNL     1      -4.133   2.650  27.418  1.00  0.00     0.275 HD
ATOM     13  H42 UNL     1      -4.660   2.766  25.972  1.00  0.00     0.275 HD
ATOM     14  H41 UNL     1      -5.713   2.118  27.127  1.00  0.00     0.275 HD
ENDBRANCH  10  11
BRANCH  10  15
HETATM   15  C10 UNL     1      -2.879   0.574  26.757  1.00  0.00     0.169 C
HETATM   16  N5  UNL     1      -1.953   1.145  26.088  1.00  0.00    -0.249 N
ATOM     17  H5  UNL     1      -0.989   0.906  26.323  1.00  0.00     0.196 HD
BRANCH  15  18
HETATM   18  O5  UNL     1      -2.526  -0.326  27.750  1.00  0.00    -0.346 OA
ATOM     19  H5  UNL     1      -2.864  -1.214  27.711  1.00  0.00     0.219 HD
ENDBRANCH  15  18
BRANCH  16  20
HETATM   20  O6  UNL     1      -2.148   2.038  25.096  1.00  0.00    -0.288 OA
ATOM     21  H6  UNL     1      -1.557   2.750  24.876  1.00  0.00     0.244 HD
ENDBRANCH  16  20
ENDBRANCH  10  15
ENDBRANCH   5  10
ENDBRANCH   1   5
BRANCH   3  22
HETATM   22  N3  UNL     1      -8.177  -0.919  25.106  1.00  0.00    -0.292 N
HETATM   23  C3  UNL     1      -8.392  -0.119  24.122  1.00  0.00     0.099 C
HETATM   24  S1  UNL     1      -7.460   1.025  23.145  1.00  0.00    -0.104 SA
HETATM   25  C8  UNL     1      -9.661   0.156  23.367  1.00  0.00     0.133 C
HETATM   26  C4  UNL     1      -9.012   0.869  22.232  1.00  0.00     0.096 C
HETATM   27  C5  UNL     1      -9.657   2.159  21.847  1.00  0.00     0.034 C
HETATM   28  C6  UNL     1     -11.141   1.899  21.552  1.00  0.00     0.142 C
HETATM   29  S2  UNL     1     -11.891   1.601  23.160  1.00  0.00     0.147 S
HETATM   30  O2  UNL     1     -12.326   2.956  23.665  1.00  0.00    -0.228 OA
HETATM   31  O3  UNL     1     -13.021   0.642  23.069  1.00  0.00    -0.228 OA
HETATM   32  C7  UNL     1     -10.569   0.997  24.200  1.00  0.00     0.186 C
ATOM     33  H3  UNL     1      -8.931  -1.487  25.492  1.00  0.00     0.187 HD
BRANCH  25  34
HETATM   34  O4  UNL     1     -10.271  -1.029  22.966  1.00  0.00    -0.381 OA
ATOM     35  H4  UNL     1     -11.159  -0.873  22.670  1.00  0.00     0.211 HD
ENDBRANCH  25  34
ENDBRANCH   3  22
TORSDOF 9
ENDMDL