MODEL 5
REMARK VINA RESULT: -6.272108161      4.198      5.920
REMARK  5 active torsions:
REMARK  status: ('A' for Active; 'I' for Inactive)
REMARK    1  A    between atoms: N1_1  and  C1_5
REMARK    2  A    between atoms: C1_5  and  C2_6
REMARK    3  A    between atoms: C1_5  and  C3_9
REMARK    4  A    between atoms: C12_25  and  C13_26
REMARK    5  A    between atoms: C13_26  and  S1_27
ROOT
HETATM    1  C3  UNL     1     -11.104  -1.064  23.897  1.00  0.00     0.125 C
HETATM    2  N2  UNL     1     -11.038  -1.071  22.480  1.00  0.00    -0.410 N
ATOM      3  H2  UNL     1     -10.437  -1.741  21.999  1.00  0.00     0.154 HD
HETATM    4  C4  UNL     1     -11.803  -0.156  21.741  1.00  0.00     0.158 C
HETATM    5  C5  UNL     1     -11.350  -0.268  20.278  1.00  0.00     0.074 C
HETATM    6  N3  UNL     1     -11.625   0.855  19.490  1.00  0.00    -0.401 N
ATOM      7  H3  UNL     1     -11.428   0.836  18.490  1.00  0.00     0.158 HD
HETATM    8  C6  UNL     1     -12.174   2.015  20.076  1.00  0.00     0.120 C
HETATM    9  C7  UNL     1     -11.166   3.058  20.507  1.00  0.00     0.039 C
HETATM   10  C8  UNL     1      -9.782   2.816  20.024  1.00  0.00     0.115 C
HETATM   11  N4  UNL     1      -8.903   2.130  20.904  1.00  0.00    -0.419 N
ATOM     12  H4  UNL     1      -8.483   1.232  20.666  1.00  0.00     0.153 HD
HETATM   13  C9  UNL     1      -8.647   2.792  22.159  1.00  0.00     0.140 C
HETATM   14  C10 UNL     1      -7.713   1.930  22.981  1.00  0.00     0.186 C
HETATM   15  O3  UNL     1      -8.365   1.242  23.992  1.00  0.00    -0.389 OA
HETATM   16  C11 UNL     1      -8.848   0.002  23.593  1.00  0.00     0.175 C
HETATM   17  C12 UNL     1      -9.918  -0.427  24.575  1.00  0.00     0.051 C
ENDROOT
BRANCH   1  18
HETATM   18  C1  UNL     1     -12.370  -0.487  24.466  1.00  0.00     0.305 C
BRANCH  18  19
HETATM   19  N1  UNL     1     -12.951  -1.384  25.465  1.00  0.00    -0.063 N
ATOM     20  H13 UNL     1     -13.875  -1.739  25.218  1.00  0.00     0.275 HD
ATOM     21  H12 UNL     1     -12.492  -2.292  25.524  1.00  0.00     0.275 HD
ATOM     22  H11 UNL     1     -12.929  -0.850  26.334  1.00  0.00     0.275 HD
ENDBRANCH  18  19
BRANCH  18  23
HETATM   23  C2  UNL     1     -12.199   0.788  25.169  1.00  0.00     0.206 C
HETATM   24  O1  UNL     1     -11.695   1.831  24.709  1.00  0.00    -0.646 OA
HETATM   25  O2  UNL     1     -12.636   0.877  26.498  1.00  0.00    -0.646 OA
ENDBRANCH  18  23
ENDBRANCH   1  18
BRANCH  17  26
HETATM   26  C13 UNL     1      -9.231  -1.424  25.516  1.00  0.00     0.174 C
BRANCH  26  27
HETATM   27  S1  UNL     1      -9.549  -1.142  27.209  1.00  0.00     0.102 S
HETATM   28  O4  UNL     1      -9.417   0.352  27.437  1.00  0.00    -0.595 OA
HETATM   29  O5  UNL     1     -10.883  -1.528  27.700  1.00  0.00    -0.595 OA
HETATM   30  O6  UNL     1      -8.355  -1.840  28.171  1.00  0.00    -0.595 OA
ENDBRANCH  26  27
ENDBRANCH  17  26
TORSDOF 5
ENDMDL