MODEL 3
REMARK VINA RESULT: -5.469808732      1.497      1.592
REMARK  7 active torsions:
REMARK  status: ('A' for Active; 'I' for Inactive)
REMARK    1  A    between atoms: C2_2  and  N1_3
REMARK    2  A    between atoms: N1_3  and  C3_5
REMARK    3  A    between atoms: C3_5  and  O1_6
REMARK    4  A    between atoms: C3_5  and  C4_8
REMARK    5  A    between atoms: C4_8  and  N2_9
REMARK    6  A    between atoms: C4_8  and  C5_13
REMARK    7  A    between atoms: C11_27  and  N6_28
ROOT
HETATM    1  C1  UNL     1     -11.475   4.937  22.138  1.00  0.00     0.041 C
HETATM    2  C2  UNL     1     -10.353   4.842  21.045  1.00  0.00     0.059 C
HETATM    3  C6  UNL     1      -9.186   4.205  21.670  1.00  0.00     0.172 C
HETATM    4  S2  UNL     1      -9.508   2.732  22.609  1.00  0.00     0.148 S
HETATM    5  O2  UNL     1      -8.127   2.229  23.030  1.00  0.00    -0.228 OA
HETATM    6  O3  UNL     1     -10.258   2.966  23.860  1.00  0.00    -0.228 OA
HETATM    7  C7  UNL     1     -10.183   1.445  21.596  1.00  0.00     0.160 C
HETATM    8  C8  UNL     1      -9.775   1.798  20.179  1.00  0.00     0.141 C
HETATM    9  N3  UNL     1     -10.687   2.791  19.634  1.00  0.00    -0.346 N
HETATM   10  C9  UNL     1     -11.418   2.177  18.568  1.00  0.00     0.186 C
HETATM   11  N4  UNL     1     -11.431   0.732  18.501  1.00  0.00    -0.064 NA
HETATM   12  N5  UNL     1     -12.032   2.887  17.707  1.00  0.00    -0.362 N
ATOM     13  H5  UNL     1     -12.540   2.402  16.967  1.00  0.00     0.162 HD
HETATM   14  C10 UNL     1     -12.060   4.319  17.704  1.00  0.00     0.157 C
HETATM   15  C11 UNL     1     -10.935   4.901  18.561  1.00  0.00     0.226 C
HETATM   16  C12 UNL     1     -10.989   4.150  19.907  1.00  0.00     0.147 C
ENDROOT
BRANCH   2  17
HETATM   17  N1  UNL     1     -10.044   6.178  20.615  1.00  0.00    -0.384 N
ATOM     18  H1  UNL     1      -9.694   6.329  19.668  1.00  0.00     0.156 HD
BRANCH  17  19
HETATM   19  C3  UNL     1     -10.212   7.275  21.465  1.00  0.00     0.245 C
BRANCH  19  20
HETATM   20  O1  UNL     1     -11.209   8.180  20.989  1.00  0.00    -0.375 OA
ATOM     21  H1  UNL     1     -12.064   8.001  21.364  1.00  0.00     0.212 HD
ENDBRANCH  19  20
BRANCH  19  22
HETATM   22  C4  UNL     1      -8.966   8.101  21.649  1.00  0.00     0.241 C
BRANCH  22  23
HETATM   23  N2  UNL     1      -8.045   8.056  20.562  1.00  0.00    -0.070 N
ATOM     24  H23 UNL     1      -8.219   8.830  19.922  1.00  0.00     0.274 HD
ATOM     25  H22 UNL     1      -7.108   8.297  20.884  1.00  0.00     0.274 HD
ATOM     26  H21 UNL     1      -8.024   7.174  20.050  1.00  0.00     0.274 HD
ENDBRANCH  22  23
BRANCH  22  27
HETATM   27  C5  UNL     1      -8.180   7.644  22.888  1.00  0.00     0.123 C
HETATM   28  S1  UNL     1      -9.316   7.113  24.192  1.00  0.00    -0.095 SA
ENDBRANCH  22  27
ENDBRANCH  19  22
ENDBRANCH  17  19
ENDBRANCH   2  17
BRANCH  15  29
HETATM   29  N6  UNL     1      -9.726   4.694  17.838  1.00  0.00    -0.071 N
ATOM     30  H63 UNL     1      -9.843   4.104  17.014  1.00  0.00     0.274 HD
ATOM     31  H62 UNL     1      -9.398   5.528  17.353  1.00  0.00     0.274 HD
ATOM     32  H61 UNL     1      -9.049   4.324  18.506  1.00  0.00     0.274 HD
ENDBRANCH  15  29
TORSDOF 7
ENDMDL