MODEL 5
REMARK VINA RESULT: -6.724749751      0.971      1.799
REMARK  10 active torsions:
REMARK  status: ('A' for Active; 'I' for Inactive)
REMARK    1  A    between atoms: N1_1  and  C1_5
REMARK    2  A    between atoms: C3_7  and  N2_8
REMARK    3  A    between atoms: C4_12  and  O1_13
REMARK    4  A    between atoms: O1_13  and  C5_14
REMARK    5  A    between atoms: C6_15  and  N3_16
REMARK    6  A    between atoms: C10_23  and  O2_24
REMARK    7  A    between atoms: C11_27  and  O4_28
REMARK    8  A    between atoms: O4_28  and  C12_29
REMARK    9  A    between atoms: C13_30  and  N4_31
REMARK   10  A    between atoms: C16_37  and  N5_38
ROOT
HETATM    1  C1  UNL     1      -6.444  -0.565  28.022  1.00  0.00     0.240 C
HETATM    2  C2  UNL     1      -7.122  -1.704  27.289  1.00  0.00     0.075 C
HETATM    3  C3  UNL     1      -8.337  -1.204  26.514  1.00  0.00     0.240 C
HETATM    4  C4  UNL     1      -7.861  -0.305  25.437  1.00  0.00     0.294 C
HETATM    5  O3  UNL     1      -6.586   0.156  25.740  1.00  0.00    -0.327 OA
HETATM    6  C11 UNL     1      -6.470   0.611  27.047  1.00  0.00     0.293 C
ENDROOT
BRANCH   6   7
HETATM    7  O4  UNL     1      -5.307   1.318  27.159  1.00  0.00    -0.350 OA
BRANCH   7   8
HETATM    8  C12 UNL     1      -4.234   0.853  26.479  1.00  0.00     0.185 C
HETATM    9  C13 UNL     1      -3.775   1.662  25.318  1.00  0.00     0.214 C
HETATM   10  C14 UNL     1      -2.262   1.720  25.360  1.00  0.00     0.037 C
HETATM   11  C15 UNL     1      -1.935   0.510  26.219  1.00  0.00     0.037 C
HETATM   12  C16 UNL     1      -2.989   0.668  27.313  1.00  0.00     0.214 C
BRANCH   9  13
HETATM   13  N4  UNL     1      -4.125   1.054  24.029  1.00  0.00    -0.072 N
ATOM     14  H43 UNL     1      -4.215   0.041  24.114  1.00  0.00     0.274 HD
ATOM     15  H42 UNL     1      -5.083   1.282  23.764  1.00  0.00     0.274 HD
ATOM     16  H41 UNL     1      -3.471   1.302  23.286  1.00  0.00     0.274 HD
ENDBRANCH   9  13
BRANCH  12  17
HETATM   17  N5  UNL     1      -3.050  -0.469  28.173  1.00  0.00    -0.072 N
ATOM     18  H53 UNL     1      -3.850  -0.406  28.802  1.00  0.00     0.274 HD
ATOM     19  H52 UNL     1      -3.311  -1.305  27.651  1.00  0.00     0.274 HD
ATOM     20  H51 UNL     1      -2.189  -0.624  28.699  1.00  0.00     0.274 HD
ENDBRANCH  12  17
ENDBRANCH   7   8
ENDBRANCH   6   7
BRANCH   1  21
HETATM   21  N1  UNL     1      -7.238  -0.260  29.182  1.00  0.00    -0.070 N
ATOM     22  H13 UNL     1      -8.194   0.007  28.949  1.00  0.00     0.274 HD
ATOM     23  H12 UNL     1      -7.459  -1.085  29.740  1.00  0.00     0.274 HD
ATOM     24  H11 UNL     1      -6.745   0.458  29.715  1.00  0.00     0.274 HD
ENDBRANCH   1  21
BRANCH   4  25
HETATM   25  O1  UNL     1      -8.678   0.756  25.121  1.00  0.00    -0.349 OA
BRANCH  25  26
HETATM   26  C5  UNL     1      -9.008   0.885  23.803  1.00  0.00     0.183 C
HETATM   27  C6  UNL     1     -10.402   1.412  23.650  1.00  0.00     0.215 C
HETATM   28  C7  UNL     1     -10.800   1.535  22.181  1.00  0.00     0.035 C
HETATM   29  C8  UNL     1      -9.600   1.922  21.336  1.00  0.00     0.005 C
HETATM   30  C9  UNL     1      -8.752   2.812  22.189  1.00  0.00     0.034 C
HETATM   31  C10 UNL     1      -8.070   1.961  23.235  1.00  0.00     0.149 C
BRANCH  27  32
HETATM   32  N3  UNL     1     -11.419   0.619  24.288  1.00  0.00    -0.072 N
ATOM     33  H33 UNL     1     -11.100  -0.345  24.395  1.00  0.00     0.274 HD
ATOM     34  H32 UNL     1     -11.511   0.884  25.268  1.00  0.00     0.274 HD
ATOM     35  H31 UNL     1     -12.328   0.642  23.828  1.00  0.00     0.274 HD
ENDBRANCH  27  32
BRANCH  31  36
HETATM   36  O2  UNL     1      -6.946   1.370  22.713  1.00  0.00    -0.393 OA
ATOM     37  H2  UNL     1      -6.339   2.039  22.417  1.00  0.00     0.210 HD
ENDBRANCH  31  36
ENDBRANCH  25  26
ENDBRANCH   4  25
BRANCH   3  38
HETATM   38  N2  UNL     1      -9.003  -2.398  26.033  1.00  0.00    -0.070 N
ATOM     39  H23 UNL     1      -9.454  -2.280  25.126  1.00  0.00     0.274 HD
ATOM     40  H22 UNL     1      -8.363  -3.141  25.753  1.00  0.00     0.274 HD
ATOM     41  H21 UNL     1      -9.645  -2.668  26.779  1.00  0.00     0.274 HD
ENDBRANCH   3  38
TORSDOF 10
ENDMDL