MODEL 3
REMARK VINA RESULT: -8.716652004      1.128      1.689
REMARK  13 active torsions:
REMARK  status: ('A' for Active; 'I' for Inactive)
REMARK    1  A    between atoms: O1_2  and  C2_3
REMARK    2  A    between atoms: C5_6  and  C6_7
REMARK    3  A    between atoms: N1_11  and  C9_12
REMARK    4  A    between atoms: C9_12  and  C10_13
REMARK    5  A    between atoms: C10_13  and  O3_14
REMARK    6  A    between atoms: C10_13  and  N2_16
REMARK    7  A    between atoms: N2_16  and  N3_17
REMARK       I    between atoms: N3_17  and  C11_19
REMARK    8  A    between atoms: N5_21  and  N6_23
REMARK    9  A    between atoms: C12_25  and  C13_26
REMARK   10  A    between atoms: C16_29  and  N7_30
REMARK   11  A    between atoms: C18_34  and  O6_35
REMARK   12  A    between atoms: C19_37  and  N8_38
REMARK   13  A    between atoms: N9_41  and  N10_42
ROOT
HETATM    1  C10 UNL     1      28.489  26.728  21.428  1.00  0.00     0.250 C
ENDROOT
BRANCH   1   2
HETATM    2  C9  UNL     1      29.325  27.159  22.605  1.00  0.00     0.202 C
BRANCH   2   3
HETATM    3  N1  UNL     1      28.669  27.043  23.881  1.00  0.00    -0.142 N
HETATM    4  C8  UNL     1      28.702  25.874  24.554  1.00  0.00     0.264 A
HETATM    5  C7  UNL     1      28.093  25.669  25.773  1.00  0.00     0.108 A
HETATM    6  O2  UNL     1      29.335  24.910  24.026  1.00  0.00    -0.267 OA
HETATM    7  C6  UNL     1      27.409  26.719  26.337  1.00  0.00     0.089 A
HETATM    8  N9  UNL     1      27.372  27.881  25.674  1.00  0.00    -0.092 N
HETATM    9  C19 UNL     1      27.980  28.054  24.477  1.00  0.00     0.702 A
BRANCH   7  10
HETATM   10  C5  UNL     1      26.746  26.576  27.615  1.00  0.00    -0.006 A
HETATM   11  C4  UNL     1      27.313  27.010  28.792  1.00  0.00     0.016 A
HETATM   12  C3  UNL     1      26.623  26.843  29.991  1.00  0.00     0.037 A
HETATM   13  C2  UNL     1      25.380  26.253  30.047  1.00  0.00     0.068 A
HETATM   14  C21 UNL     1      24.820  25.821  28.860  1.00  0.00     0.037 A
HETATM   15  C20 UNL     1      25.495  25.981  27.663  1.00  0.00     0.016 A
BRANCH  13  16
HETATM   16  O1  UNL     1      24.677  26.075  31.211  1.00  0.00    -0.356 OA
HETATM   17  C1  UNL     1      23.295  25.932  31.330  1.00  0.00     0.210 C
ENDBRANCH  13  16
ENDBRANCH   7  10
BRANCH   8  18
HETATM   18  N10 UNL     1      26.663  28.936  26.282  1.00  0.00    -0.324 N
ATOM     19 2H10 UNL     1      27.145  29.779  26.592  1.00  0.00     0.178 HD
ATOM     20 1H10 UNL     1      25.657  28.810  26.391  1.00  0.00     0.178 HD
ENDBRANCH   8  18
BRANCH   9  21
HETATM   21  N8  UNL     1      27.912  29.187  23.863  1.00  0.00    -0.233 N
ATOM     22  H82 UNL     1      27.017  29.663  23.752  1.00  0.00     0.174 HD
ATOM     23  H81 UNL     1      28.773  29.585  23.488  1.00  0.00     0.174 HD
ENDBRANCH   9  21
ENDBRANCH   2   3
ENDBRANCH   1   2
BRANCH   1  24
HETATM   24  O3  UNL     1      28.544  25.340  21.321  1.00  0.00    -0.376 OA
ATOM     25  H3  UNL     1      29.399  25.092  20.991  1.00  0.00     0.211 HD
ENDBRANCH   1  24
BRANCH   1  26
HETATM   26  N2  UNL     1      27.144  27.157  21.431  1.00  0.00    -0.105 NA
BRANCH  26  27
HETATM   27  N3  UNL     1      26.915  28.081  20.413  1.00  0.00    -0.274 N
HETATM   28  C11 UNL     1      27.279  29.448  20.420  1.00  0.00     0.218 C
HETATM   29  N4  UNL     1      28.432  29.971  19.775  1.00  0.00    -0.061 NA
HETATM   30  N5  UNL     1      26.517  30.280  21.038  1.00  0.00    -0.273 N
ATOM     31  H5  UNL     1      25.694  29.870  21.481  1.00  0.00     0.189 HD
ATOM     32  H3  UNL     1      26.438  27.738  19.579  1.00  0.00     0.185 HD
BRANCH  30  33
HETATM   33  N6  UNL     1      26.645  31.589  21.183  1.00  0.00    -0.309 N
HETATM   34  C12 UNL     1      26.094  32.585  21.669  1.00  0.00     0.121 C
ATOM     35  H6  UNL     1      27.511  31.884  20.731  1.00  0.00     0.186 HD
BRANCH  34  36
HETATM   36  C13 UNL     1      24.825  32.596  22.408  1.00  0.00     0.014 A
HETATM   37  C14 UNL     1      23.780  33.434  22.088  1.00  0.00     0.018 A
HETATM   38  C15 UNL     1      22.575  33.446  22.786  1.00  0.00     0.037 A
HETATM   39  C16 UNL     1      22.382  32.598  23.847  1.00  0.00     0.105 A
HETATM   40  C17 UNL     1      23.416  31.758  24.175  1.00  0.00     0.073 A
HETATM   41  C18 UNL     1      24.613  31.750  23.477  1.00  0.00     0.079 A
BRANCH  39  42
HETATM   42  N7  UNL     1      21.150  32.594  24.580  1.00  0.00    -0.116 N
HETATM   43  O4  UNL     1      20.232  31.879  24.175  1.00  0.00    -0.532 OA
HETATM   44  O5  UNL     1      20.994  33.364  25.703  1.00  0.00    -0.532 OA
ENDBRANCH  39  42
BRANCH  41  45
HETATM   45  O6  UNL     1      25.568  30.874  23.892  1.00  0.00    -0.360 OA
ATOM     46  H6  UNL     1      26.253  31.135  24.496  1.00  0.00     0.217 HD
ENDBRANCH  41  45
ENDBRANCH  34  36
ENDBRANCH  30  33
ENDBRANCH  26  27
ENDBRANCH   1  26
TORSDOF 13
ENDMDL