MODEL 2
REMARK VINA RESULT: -9.020281792      2.265      3.006
REMARK  11 active torsions:
REMARK  status: ('A' for Active; 'I' for Inactive)
REMARK    1  A    between atoms: C2_2  and  C4_4
REMARK    2  A    between atoms: C4_4  and  N1_5
REMARK    3  A    between atoms: C4_4  and  C5_9
REMARK    4  A    between atoms: C7_12  and  C8_13
REMARK    5  A    between atoms: C9_16  and  C10_17
REMARK    6  A    between atoms: C10_17  and  C11_18
REMARK    7  A    between atoms: C12_21  and  N4_22
REMARK    8  A    between atoms: C13_26  and  N5_27
REMARK       I    between atoms: N5_27  and  C14_29
REMARK    9  A    between atoms: C14_29  and  C15_31
REMARK       I    between atoms: C15_31  and  N6_33
REMARK   10  A    between atoms: N6_33  and  N7_35
REMARK   11  A    between atoms: C16_37  and  C18_40
ROOT
HETATM    1  N7  UNL     1      28.913  23.359  23.610  1.00  0.00    -0.284 N
ATOM      2  H7  UNL     1      29.518  22.886  22.939  1.00  0.00     0.188 HD
HETATM    3  C16 UNL     1      28.024  22.703  24.266  1.00  0.00     0.194 C
HETATM    4  C17 UNL     1      27.195  23.409  25.201  1.00  0.00     0.124 C
HETATM    5  N8  UNL     1      26.532  23.957  25.952  1.00  0.00    -0.190 NA
ENDROOT
BRANCH   3   6
HETATM    6  C18 UNL     1      27.876  21.278  24.051  1.00  0.00     0.293 C
HETATM    7  N9  UNL     1      28.683  20.374  24.783  1.00  0.00    -0.055 NA
HETATM    8  O3  UNL     1      27.047  20.825  23.229  1.00  0.00    -0.269 OA
ENDBRANCH   3   6
BRANCH   1   9
HETATM    9  N6  UNL     1      29.037  24.739  23.836  1.00  0.00    -0.261 N
HETATM   10  C15 UNL     1      28.620  25.638  22.839  1.00  0.00     0.328 C
HETATM   11  O2  UNL     1      28.150  25.234  21.776  1.00  0.00    -0.261 OA
ATOM     12  H6  UNL     1      29.425  25.085  24.713  1.00  0.00     0.190 HD
BRANCH  10  13
HETATM   13  C14 UNL     1      28.761  27.118  23.105  1.00  0.00     0.316 C
HETATM   14  N5  UNL     1      27.957  27.926  22.349  1.00  0.00    -0.311 N
ATOM     15  H5  UNL     1      27.357  27.402  21.711  1.00  0.00     0.170 HD
HETATM   16  O1  UNL     1      29.573  27.439  23.960  1.00  0.00    -0.262 OA
BRANCH  14  17
HETATM   17  C13 UNL     1      27.772  29.319  22.252  1.00  0.00     0.103 A
HETATM   18  C11 UNL     1      27.884  30.436  22.992  1.00  0.00     0.052 A
HETATM   19  N3  UNL     1      27.470  31.589  22.483  1.00  0.00    -0.338 N
HETATM   20  C12 UNL     1      26.961  31.616  21.263  1.00  0.00     0.144 A
ATOM     21  H3  UNL     1      27.544  32.448  23.028  1.00  0.00     0.168 HD
HETATM   22  S2  UNL     1      27.042  30.013  20.775  1.00  0.00    -0.035 SA
BRANCH  18  23
HETATM   23  C10 UNL     1      28.567  30.426  24.363  1.00  0.00     0.138 C
BRANCH  23  24
HETATM   24  C9  UNL     1      27.705  29.836  25.398  1.00  0.00     0.110 A
HETATM   25  N2  UNL     1      27.740  28.640  25.988  1.00  0.00    -0.321 N
HETATM   26  C8  UNL     1      26.780  28.498  26.881  1.00  0.00     0.205 A
ATOM     27  H2  UNL     1      28.429  27.920  25.773  1.00  0.00     0.169 HD
HETATM   28  O4  UNL     1      26.120  29.624  26.863  1.00  0.00    -0.215 OA
HETATM   29  N10 UNL     1      26.627  30.448  26.003  1.00  0.00    -0.246 N
ATOM     30  H10 UNL     1      26.287  31.389  25.806  1.00  0.00     0.196 HD
BRANCH  26  31
HETATM   31  C7  UNL     1      26.537  27.306  27.705  1.00  0.00     0.128 A
HETATM   32  S1  UNL     1      27.714  26.312  28.485  1.00  0.00    -0.078 SA
HETATM   33  C6  UNL     1      26.654  25.176  29.199  1.00  0.00     0.079 A
HETATM   34  C5  UNL     1      25.428  25.646  28.781  1.00  0.00     0.047 A
HETATM   35  N11 UNL     1      25.422  26.706  28.041  1.00  0.00    -0.348 N
ATOM     36  H11 UNL     1      24.532  27.083  27.713  1.00  0.00     0.166 HD
BRANCH  34  37
HETATM   37  C4  UNL     1      24.170  24.908  29.201  1.00  0.00     0.236 C
BRANCH  37  38
HETATM   38  C2  UNL     1      23.935  24.958  30.670  1.00  0.00     0.014 C
HETATM   39  C1  UNL     1      22.679  24.182  30.986  1.00  0.00     0.012 C
HETATM   40  C3  UNL     1      23.881  26.350  31.252  1.00  0.00     0.012 C
ENDBRANCH  37  38
BRANCH  37  41
HETATM   41  N1  UNL     1      23.034  25.375  28.467  1.00  0.00    -0.069 N
ATOM     42  H13 UNL     1      22.240  24.744  28.569  1.00  0.00     0.275 HD
ATOM     43  H12 UNL     1      22.631  26.208  28.896  1.00  0.00     0.275 HD
ATOM     44  H11 UNL     1      23.259  25.534  27.485  1.00  0.00     0.275 HD
ENDBRANCH  37  41
ENDBRANCH  34  37
ENDBRANCH  26  31
ENDBRANCH  23  24
ENDBRANCH  18  23
BRANCH  20  45
HETATM   45  N4  UNL     1      26.505  32.681  20.616  1.00  0.00    -0.380 N
ATOM     46  H42 UNL     1      26.763  33.052  19.701  1.00  0.00     0.158 HD
ATOM     47  H41 UNL     1      25.789  33.332  20.938  1.00  0.00     0.158 HD
ENDBRANCH  20  45
ENDBRANCH  14  17
ENDBRANCH  10  13
ENDBRANCH   1   9
TORSDOF 11
ENDMDL