MODEL 2
REMARK VINA RESULT: -8.292601171      2.070      2.401
REMARK  12 active torsions:
REMARK  status: ('A' for Active; 'I' for Inactive)
REMARK    1  A    between atoms: C2_2  and  C3_3
REMARK    2  A    between atoms: C4_6  and  N2_7
REMARK       I    between atoms: N2_7  and  C5_9
REMARK    3  A    between atoms: C5_9  and  C6_11
REMARK    4  A    between atoms: C9_14  and  N3_15
REMARK    5  A    between atoms: N5_22  and  C12_23
REMARK    6  A    between atoms: C12_23  and  C13_24
REMARK       I    between atoms: C13_24  and  N6_26
REMARK    7  A    between atoms: N6_26  and  N7_28
REMARK       I    between atoms: N7_28  and  C14_30
REMARK    8  A    between atoms: C14_30  and  C15_32
REMARK    9  A    between atoms: N10_36  and  C16_37
REMARK   10  A    between atoms: C17_43  and  N13_44
REMARK   11  A    between atoms: C18_47  and  N14_48
REMARK   12  A    between atoms: N14_48  and  O5_50
ROOT
HETATM    1  C13 UNL     1      28.278  26.887  20.184  1.00  0.00     0.275 C
HETATM    2  O2  UNL     1      27.368  26.080  20.511  1.00  0.00    -0.265 OA
HETATM    3  N6  UNL     1      29.188  27.256  21.210  1.00  0.00    -0.262 N
ATOM      4  H6  UNL     1      29.937  27.911  20.982  1.00  0.00     0.190 HD
ENDROOT
BRANCH   3   5
HETATM    5  N7  UNL     1      29.110  26.766  22.515  1.00  0.00    -0.262 N
HETATM    6  C14 UNL     1      28.392  27.433  23.542  1.00  0.00     0.291 C
HETATM    7  O3  UNL     1      27.813  28.517  23.234  1.00  0.00    -0.264 OA
ATOM      8  H7  UNL     1      29.587  25.894  22.740  1.00  0.00     0.190 HD
BRANCH   6   9
HETATM    9  C15 UNL     1      28.333  26.881  24.887  1.00  0.00     0.163 A
HETATM   10  N8  UNL     1      29.067  25.841  25.319  1.00  0.00    -0.275 N
HETATM   11  N9  UNL     1      28.761  25.601  26.582  1.00  0.00    -0.011 NA
ATOM     12  H8  UNL     1      29.747  25.322  24.764  1.00  0.00     0.184 HD
HETATM   13  N10 UNL     1      27.841  26.445  27.026  1.00  0.00    -0.198 N
HETATM   14  C18 UNL     1      27.569  27.245  25.974  1.00  0.00     0.181 A
BRANCH  13  15
HETATM   15  C16 UNL     1      27.295  26.453  28.340  1.00  0.00     0.195 A
HETATM   16  N11 UNL     1      26.745  27.462  29.039  1.00  0.00    -0.220 N
HETATM   17  O4  UNL     1      26.365  27.032  30.227  1.00  0.00    -0.153 OA
ATOM     18  H11 UNL     1      26.638  28.418  28.701  1.00  0.00     0.198 HD
HETATM   19  N12 UNL     1      26.643  25.763  30.349  1.00  0.00    -0.222 N
HETATM   20  C17 UNL     1      27.220  25.356  29.207  1.00  0.00     0.169 A
ATOM     21  H12 UNL     1      26.454  25.183  31.166  1.00  0.00     0.198 HD
BRANCH  20  22
HETATM   22  N13 UNL     1      27.627  24.147  28.978  1.00  0.00    -0.381 N
ATOM     23 2H13 UNL     1      27.829  23.769  28.053  1.00  0.00     0.157 HD
ATOM     24 1H13 UNL     1      27.801  23.414  29.666  1.00  0.00     0.157 HD
ENDBRANCH  20  22
ENDBRANCH  13  15
BRANCH  14  25
HETATM   25  N14 UNL     1      26.642  28.310  25.972  1.00  0.00    -0.249 N
ATOM     26  H14 UNL     1      25.793  28.260  25.408  1.00  0.00     0.196 HD
BRANCH  25  27
HETATM   27  O5  UNL     1      26.881  29.311  26.674  1.00  0.00    -0.288 OA
ATOM     28  H5  UNL     1      27.740  29.396  27.069  1.00  0.00     0.244 HD
ENDBRANCH  25  27
ENDBRANCH  14  25
ENDBRANCH   6   9
ENDBRANCH   3   5
BRANCH   1  29
HETATM   29  C12 UNL     1      28.332  27.364  18.839  1.00  0.00     0.173 C
BRANCH  29  30
HETATM   30  N5  UNL     1      28.722  28.676  18.525  1.00  0.00    -0.313 N
HETATM   31  C3  UNL     1      28.210  29.860  18.942  1.00  0.00     0.088 A
HETATM   32  N1  UNL     1      28.927  30.835  18.357  1.00  0.00    -0.331 N
HETATM   33  C4  UNL     1      29.880  30.309  17.583  1.00  0.00     0.125 A
ATOM     34  H1  UNL     1      28.767  31.834  18.485  1.00  0.00     0.168 HD
HETATM   35  C11 UNL     1      29.749  28.950  17.690  1.00  0.00     0.146 A
BRANCH  31  36
HETATM   36  C2  UNL     1      27.083  29.980  19.856  1.00  0.00     0.072 C
HETATM   37  C1  UNL     1      27.294  31.057  20.915  1.00  0.00     0.013 C
ENDBRANCH  31  36
BRANCH  33  38
HETATM   38  N2  UNL     1      30.848  30.995  16.769  1.00  0.00    -0.308 N
HETATM   39  C5  UNL     1      32.110  31.283  17.342  1.00  0.00     0.258 C
HETATM   40  O1  UNL     1      32.360  30.957  18.520  1.00  0.00    -0.267 OA
ATOM     41  H2  UNL     1      30.632  31.265  15.809  1.00  0.00     0.170 HD
BRANCH  39  42
HETATM   42  C6  UNL     1      33.106  31.966  16.535  1.00  0.00     0.047 A
HETATM   43  C7  UNL     1      33.386  31.533  15.257  1.00  0.00     0.022 A
HETATM   44  C8  UNL     1      34.312  32.178  14.496  1.00  0.00     0.049 A
HETATM   45  C9  UNL     1      35.004  33.290  14.979  1.00  0.00     0.098 A
HETATM   46  N4  UNL     1      34.690  33.666  16.227  1.00  0.00    -0.352 N
HETATM   47  C10 UNL     1      33.795  33.075  17.016  1.00  0.00     0.106 A
ATOM     48  H4  UNL     1      35.180  34.476  16.606  1.00  0.00     0.166 HD
BRANCH  45  49
HETATM   49  N3  UNL     1      35.885  33.903  14.273  1.00  0.00    -0.385 N
ATOM     50  H32 UNL     1      35.873  33.897  13.253  1.00  0.00     0.157 HD
ATOM     51  H31 UNL     1      36.644  34.435  14.699  1.00  0.00     0.157 HD
ENDBRANCH  45  49
ENDBRANCH  39  42
ENDBRANCH  33  38
ENDBRANCH  29  30
ENDBRANCH   1  29
TORSDOF 12
ENDMDL