MODEL 3
REMARK VINA RESULT: -8.116497230      1.510      1.898
REMARK  10 active torsions:
REMARK  status: ('A' for Active; 'I' for Inactive)
REMARK    1  A    between atoms: S1_2  and  C2_3
REMARK    2  A    between atoms: C2_3  and  C3_4
REMARK    3  A    between atoms: C3_4  and  C4_5
REMARK    4  A    between atoms: C4_5  and  N1_6
REMARK    5  A    between atoms: C4_5  and  C5_10
REMARK       I    between atoms: C5_10  and  N2_12
REMARK    6  A    between atoms: N2_12  and  N3_14
REMARK       I    between atoms: N3_14  and  C6_15
REMARK    7  A    between atoms: C6_15  and  C7_17
REMARK    8  A    between atoms: N6_22  and  C8_23
REMARK    9  A    between atoms: C9_29  and  N9_30
REMARK   10  A    between atoms: C10_33  and  N10_34
ROOT
HETATM    1  C7  UNL     1      27.797  26.957  22.918  1.00  0.00     0.182 A
HETATM    2  N4  UNL     1      28.450  25.743  22.964  1.00  0.00    -0.276 N
ATOM      3  H4  UNL     1      28.622  25.181  23.797  1.00  0.00     0.189 HD
HETATM    4  N5  UNL     1      28.808  25.445  21.738  1.00  0.00    -0.232 N
ATOM      5  H5  UNL     1      29.307  24.595  21.476  1.00  0.00     0.209 HD
HETATM    6  N6  UNL     1      28.446  26.374  20.896  1.00  0.00    -0.199 N
HETATM    7  C10 UNL     1      27.796  27.346  21.672  1.00  0.00     0.189 A
ENDROOT
BRANCH   1   8
HETATM    8  C6  UNL     1      27.246  27.657  24.143  1.00  0.00     0.367 C
HETATM    9  N3  UNL     1      27.531  27.057  25.331  1.00  0.00    -0.277 NA
HETATM   10  O2  UNL     1      26.584  28.696  24.010  1.00  0.00    -0.247 OA
BRANCH   9  11
HETATM   11  N2  UNL     1      27.794  26.493  26.478  1.00  0.00    -0.197 N
HETATM   12  C5  UNL     1      27.330  26.701  27.817  1.00  0.00     0.277 C
HETATM   13  O1  UNL     1      26.495  27.597  28.065  1.00  0.00    -0.269 OA
ATOM     14  H2  UNL     1      28.480  25.740  26.404  1.00  0.00     0.205 HD
BRANCH  12  15
HETATM   15  C4  UNL     1      27.867  25.832  28.889  1.00  0.00     0.278 C
BRANCH  15  16
HETATM   16  C3  UNL     1      28.237  24.469  28.450  1.00  0.00     0.053 C
BRANCH  16  17
HETATM   17  C2  UNL     1      27.126  23.568  28.044  1.00  0.00     0.076 C
BRANCH  17  18
HETATM   18  S1  UNL     1      27.528  21.835  28.433  1.00  0.00    -0.173 SA
HETATM   19  C1  UNL     1      27.531  20.832  26.959  1.00  0.00     0.089 C
ENDBRANCH  17  18
ENDBRANCH  16  17
ENDBRANCH  15  16
BRANCH  15  20
HETATM   20  N1  UNL     1      26.870  25.730  29.983  1.00  0.00    -0.066 N
ATOM     21  H13 UNL     1      26.051  25.186  29.714  1.00  0.00     0.275 HD
ATOM     22  H12 UNL     1      27.191  25.135  30.747  1.00  0.00     0.275 HD
ATOM     23  H11 UNL     1      26.627  26.669  30.297  1.00  0.00     0.275 HD
ENDBRANCH  15  20
ENDBRANCH  12  15
ENDBRANCH   9  11
ENDBRANCH   1   8
BRANCH   7  24
HETATM   24  N10 UNL     1      27.340  28.568  21.032  1.00  0.00    -0.217 N
HETATM   25  N11 UNL     1      27.932  29.742  21.257  1.00  0.00    -0.275 N
HETATM   26  C11 UNL     1      27.438  30.684  20.495  1.00  0.00     0.135 A
ATOM     27  H11 UNL     1      28.677  29.887  21.939  1.00  0.00     0.189 HD
HETATM   28  N12 UNL     1      27.696  32.029  20.327  1.00  0.00    -0.344 N
HETATM   29  C17 UNL     1      26.464  30.126  19.719  1.00  0.00     0.061 A
HETATM   30  C12 UNL     1      27.025  32.780  19.422  1.00  0.00     0.007 A
ATOM     31  H12 UNL     1      28.414  32.471  20.902  1.00  0.00     0.167 HD
HETATM   32  C13 UNL     1      27.332  34.259  19.239  1.00  0.00     0.068 C
HETATM   33  C14 UNL     1      26.051  32.205  18.651  1.00  0.00     0.032 A
HETATM   34  C15 UNL     1      25.766  30.832  18.810  1.00  0.00    -0.042 A
HETATM   35  C16 UNL     1      24.709  30.210  17.974  1.00  0.00     0.049 C
HETATM   36  C18 UNL     1      26.439  28.702  20.120  1.00  0.00     0.137 A
HETATM   37  N13 UNL     1      25.534  28.054  19.495  1.00  0.00    -0.383 N
ATOM     38 2H13 UNL     1      25.517  27.071  19.771  1.00  0.00     0.157 HD
ATOM     39 1H13 UNL     1      24.822  28.159  18.772  1.00  0.00     0.157 HD
ENDBRANCH   7  24
BRANCH   6  40
HETATM   40  C8  UNL     1      28.600  26.492  19.493  1.00  0.00     0.198 A
HETATM   41  N7  UNL     1      27.879  25.786  18.608  1.00  0.00    -0.220 N
HETATM   42  O3  UNL     1      28.243  26.125  17.392  1.00  0.00    -0.153 OA
ATOM     43  H7  UNL     1      27.164  25.097  18.843  1.00  0.00     0.198 HD
HETATM   44  N8  UNL     1      29.185  27.036  17.444  1.00  0.00    -0.222 N
HETATM   45  C9  UNL     1      29.431  27.292  18.768  1.00  0.00     0.169 A
ATOM     46  H8  UNL     1      29.647  27.473  16.647  1.00  0.00     0.198 HD
BRANCH  45  47
HETATM   47  N9  UNL     1      30.283  28.174  19.161  1.00  0.00    -0.381 N
ATOM     48  H92 UNL     1      30.066  28.873  19.873  1.00  0.00     0.157 HD
ATOM     49  H91 UNL     1      31.256  28.312  18.890  1.00  0.00     0.157 HD
ENDBRANCH  45  47
ENDBRANCH   6  40
TORSDOF 10
ENDMDL