MODEL 1
REMARK VINA RESULT: -8.181810413      0.000      0.000
REMARK  12 active torsions:
REMARK  status: ('A' for Active; 'I' for Inactive)
REMARK    1  A    between atoms: O1_2  and  C2_3
REMARK    2  A    between atoms: C2_3  and  C3_5
REMARK    3  A    between atoms: C6_8  and  N1_9
REMARK    4  A    between atoms: N1_9  and  C7_11
REMARK    5  A    between atoms: C13_19  and  O3_20
REMARK    6  A    between atoms: C13_19  and  O4_22
REMARK    7  A    between atoms: C14_24  and  N3_25
REMARK    8  A    between atoms: C15_28  and  N5_29
REMARK    9  A    between atoms: N5_29  and  C16_31
REMARK   10  A    between atoms: C16_31  and  C17_32
REMARK   11  A    between atoms: C18_38  and  S1_39
REMARK   12  A    between atoms: C20_41  and  C21_42
ROOT
HETATM    1  C7  UNL     1      27.568  26.976  25.845  1.00  0.00     0.035 A
HETATM    2  C8  UNL     1      27.252  28.293  25.868  1.00  0.00     0.030 A
HETATM    3  C9  UNL     1      27.239  29.078  24.718  1.00  0.00     0.017 A
HETATM    4  C10 UNL     1      27.554  28.513  23.513  1.00  0.00     0.010 A
HETATM    5  C11 UNL     1      27.880  27.153  23.501  1.00  0.00     0.046 A
HETATM    6  C12 UNL     1      27.890  26.387  24.640  1.00  0.00     0.059 A
HETATM    7  N2  UNL     1      28.211  26.550  22.261  1.00  0.00    -0.329 N
ATOM      8  H2  UNL     1      28.448  25.557  22.263  1.00  0.00     0.165 HD
HETATM    9  C13 UNL     1      28.235  27.227  21.023  1.00  0.00     0.294 A
HETATM   10  C14 UNL     1      27.873  28.679  21.136  1.00  0.00     0.139 A
HETATM   11  C20 UNL     1      27.561  29.289  22.248  1.00  0.00     0.085 A
ENDROOT
BRANCH  10  12
HETATM   12  N3  UNL     1      27.906  29.344  19.869  1.00  0.00    -0.215 N
HETATM   13  N4  UNL     1      28.969  29.728  19.173  1.00  0.00    -0.123 N
HETATM   14  C15 UNL     1      28.567  30.255  17.991  1.00  0.00     0.695 A
ATOM     15  H4  UNL     1      29.938  29.640  19.479  1.00  0.00     0.206 HD
HETATM   16  N7  UNL     1      27.225  30.180  17.993  1.00  0.00    -0.167 N
HETATM   17  C18 UNL     1      26.790  29.625  19.136  1.00  0.00     0.181 A
ATOM     18  H7  UNL     1      26.623  30.500  17.235  1.00  0.00     0.186 HD
BRANCH  14  19
HETATM   19  N5  UNL     1      29.307  30.733  17.050  1.00  0.00    -0.220 N
ATOM     20  H5  UNL     1      29.280  30.311  16.122  1.00  0.00     0.178 HD
BRANCH  19  21
HETATM   21  C16 UNL     1      30.174  31.860  17.300  1.00  0.00     0.182 C
BRANCH  21  22
HETATM   22  C17 UNL     1      31.573  31.575  16.859  1.00  0.00     0.073 C
HETATM   23  N6  UNL     1      32.457  31.219  17.705  1.00  0.00    -0.410 N
ATOM     24  H62 UNL     1      32.191  31.132  18.686  1.00  0.00     0.155 HD
ATOM     25  H61 UNL     1      33.411  31.024  17.403  1.00  0.00     0.155 HD
ENDBRANCH  21  22
ENDBRANCH  19  21
ENDBRANCH  14  19
BRANCH  17  26
HETATM   26  S1  UNL     1      25.077  29.345  19.537  1.00  0.00    -0.096 SA
HETATM   27  C19 UNL     1      24.418  27.891  18.720  1.00  0.00     0.099 C
ENDBRANCH  17  26
ENDBRANCH  10  12
BRANCH   9  28
HETATM   28  O3  UNL     1      27.336  26.628  20.143  1.00  0.00    -0.344 OA
ATOM     29  H3  UNL     1      27.762  26.470  19.309  1.00  0.00     0.215 HD
ENDBRANCH   9  28
BRANCH   9  30
HETATM   30  O4  UNL     1      29.535  27.201  20.489  1.00  0.00    -0.344 OA
ATOM     31  H4  UNL     1      29.809  28.082  20.264  1.00  0.00     0.215 HD
ENDBRANCH   9  30
BRANCH  11  32
HETATM   32  C21 UNL     1      27.224  30.698  22.262  1.00  0.00     0.212 C
HETATM   33  O5  UNL     1      28.141  31.599  22.189  1.00  0.00    -0.644 OA
HETATM   34  O6  UNL     1      25.973  31.266  22.345  1.00  0.00    -0.644 OA
ENDBRANCH  11  32
BRANCH   1  35
HETATM   35  N1  UNL     1      27.562  26.169  26.980  1.00  0.00    -0.342 N
ATOM     36  H1  UNL     1      28.430  25.667  27.168  1.00  0.00     0.167 HD
BRANCH  35  37
HETATM   37  C6  UNL     1      26.514  25.949  27.911  1.00  0.00     0.105 A
HETATM   38  C5  UNL     1      25.480  25.051  27.593  1.00  0.00     0.050 A
HETATM   39  C4  UNL     1      24.434  24.817  28.455  1.00  0.00     0.022 A
HETATM   40  C3  UNL     1      24.346  25.455  29.676  1.00  0.00     0.055 A
HETATM   41  C22 UNL     1      25.375  26.329  29.959  1.00  0.00     0.107 A
HETATM   42  N8  UNL     1      26.383  26.536  29.099  1.00  0.00    -0.351 N
ATOM     43  H8  UNL     1      27.109  27.197  29.378  1.00  0.00     0.166 HD
BRANCH  40  44
HETATM   44  C2  UNL     1      23.245  25.220  30.602  1.00  0.00     0.294 C
HETATM   45  O2  UNL     1      22.589  26.161  31.101  1.00  0.00    -0.259 OA
BRANCH  44  46
HETATM   46  O1  UNL     1      22.907  23.936  30.944  1.00  0.00    -0.322 OA
HETATM   47  C1  UNL     1      21.641  23.560  31.461  1.00  0.00     0.213 C
ENDBRANCH  44  46
ENDBRANCH  40  44
ENDBRANCH  35  37
ENDBRANCH   1  35
TORSDOF 12
ENDMDL