MODEL 3
REMARK VINA RESULT: -8.408922988      1.188      1.362
REMARK  10 active torsions:
REMARK  status: ('A' for Active; 'I' for Inactive)
REMARK    1  A    between atoms: N2_3  and  C2_5
REMARK    2  A    between atoms: C3_10  and  C4_11
REMARK    3  A    between atoms: C4_11  and  S1_12
REMARK    4  A    between atoms: S1_12  and  C5_13
REMARK    5  A    between atoms: C6_18  and  S2_19
REMARK    6  A    between atoms: S2_19  and  C7_20
REMARK    7  A    between atoms: C7_20  and  C8_21
REMARK       I    between atoms: C8_21  and  N7_23
REMARK    8  A    between atoms: N7_23  and  N8_25
REMARK       I    between atoms: N8_25  and  C9_27
REMARK       I    between atoms: C9_27  and  N9_29
REMARK    9  A    between atoms: N9_29  and  N10_31
REMARK   10  A    between atoms: C10_33  and  C11_34
ROOT
HETATM    1  N1  UNL     1      26.865  28.404  27.413  1.00  0.00    -0.171 NA
HETATM    2  C1  UNL     1      26.629  28.639  26.303  1.00  0.00     0.196 C
HETATM    3  N2  UNL     1      26.329  28.904  24.963  1.00  0.00    -0.124 N
ATOM      4  H2  UNL     1      26.158  28.143  24.307  1.00  0.00     0.197 HD
ENDROOT
BRANCH   3   5
HETATM    5  C2  UNL     1      26.273  30.153  24.571  1.00  0.00     0.707 A
HETATM    6  N3  UNL     1      27.135  31.138  24.844  1.00  0.00    -0.130 N
HETATM    7  N4  UNL     1      26.747  32.260  24.276  1.00  0.00    -0.274 N
ATOM      8  H3  UNL     1      27.975  31.035  25.413  1.00  0.00     0.205 HD
HETATM    9  C3  UNL     1      25.609  32.002  23.619  1.00  0.00     0.122 A
ATOM     10  H4  UNL     1      27.225  33.159  24.327  1.00  0.00     0.189 HD
HETATM   11  N14 UNL     1      25.325  30.705  23.805  1.00  0.00    -0.176 N
ATOM     12  H14 UNL     1      24.515  30.217  23.423  1.00  0.00     0.185 HD
BRANCH   9  13
HETATM   13  C4  UNL     1      24.818  32.989  22.829  1.00  0.00     0.160 C
BRANCH  13  14
HETATM   14  S1  UNL     1      25.533  33.076  21.142  1.00  0.00    -0.096 SA
BRANCH  14  15
HETATM   15  C5  UNL     1      26.101  31.419  20.696  1.00  0.00     0.129 A
HETATM   16  N5  UNL     1      27.349  30.961  20.693  1.00  0.00    -0.287 N
HETATM   17  N6  UNL     1      27.580  29.770  20.354  1.00  0.00    -0.287 N
ATOM     18  H5  UNL     1      28.119  31.573  20.966  1.00  0.00     0.188 HD
HETATM   19  C6  UNL     1      26.580  28.969  19.999  1.00  0.00     0.129 A
ATOM     20  H6  UNL     1      28.537  29.419  20.350  1.00  0.00     0.188 HD
HETATM   21  S3  UNL     1      25.240  30.038  20.179  1.00  0.00    -0.038 SA
BRANCH  19  22
HETATM   22  S2  UNL     1      26.648  27.247  19.486  1.00  0.00    -0.094 SA
BRANCH  22  23
HETATM   23  C7  UNL     1      28.365  26.669  19.397  1.00  0.00     0.186 C
BRANCH  23  24
HETATM   24  C8  UNL     1      28.817  26.483  20.789  1.00  0.00     0.245 C
HETATM   25  O1  UNL     1      29.447  27.392  21.357  1.00  0.00    -0.271 OA
HETATM   26  N7  UNL     1      28.537  25.283  21.467  1.00  0.00    -0.265 N
ATOM     27  H7  UNL     1      28.018  24.557  20.974  1.00  0.00     0.190 HD
BRANCH  26  28
HETATM   28  N8  UNL     1      28.937  25.036  22.793  1.00  0.00    -0.248 N
HETATM   29  C9  UNL     1      28.044  25.393  23.835  1.00  0.00     0.353 C
HETATM   30  O2  UNL     1      26.937  25.909  23.635  1.00  0.00    -0.244 OA
HETATM   31  N9  UNL     1      28.430  25.151  25.200  1.00  0.00    -0.251 N
ATOM     32  H9  UNL     1      29.335  24.724  25.396  1.00  0.00     0.191 HD
ATOM     33  H8  UNL     1      29.842  24.612  22.998  1.00  0.00     0.192 HD
BRANCH  31  34
HETATM   34  N10 UNL     1      27.598  25.486  26.253  1.00  0.00    -0.304 N
HETATM   35  C10 UNL     1      26.726  24.646  26.679  1.00  0.00     0.155 C
ATOM     36  H10 UNL     1      27.678  26.403  26.693  1.00  0.00     0.186 HD
BRANCH  35  37
HETATM   37  C11 UNL     1      25.828  24.981  27.796  1.00  0.00     0.123 A
HETATM   38  N11 UNL     1      26.163  25.757  28.817  1.00  0.00    -0.328 N
HETATM   39  C12 UNL     1      25.306  26.031  29.815  1.00  0.00     0.101 A
ATOM     40  H11 UNL     1      27.100  26.159  28.846  1.00  0.00     0.169 HD
HETATM   41  N12 UNL     1      25.694  26.792  30.777  1.00  0.00    -0.385 N
HETATM   42  C13 UNL     1      24.032  25.503  29.801  1.00  0.00     0.065 A
ATOM     43 2H12 UNL     1      26.637  27.182  30.787  1.00  0.00     0.157 HD
ATOM     44 1H12 UNL     1      25.044  27.000  31.534  1.00  0.00     0.157 HD
HETATM   45  C14 UNL     1      23.689  24.697  28.736  1.00  0.00     0.093 A
HETATM   46  N13 UNL     1      24.591  24.468  27.781  1.00  0.00    -0.351 N
ATOM     47  H13 UNL     1      24.325  23.870  26.998  1.00  0.00     0.166 HD
ENDBRANCH  35  37
ENDBRANCH  31  34
ENDBRANCH  26  28
ENDBRANCH  23  24
ENDBRANCH  22  23
ENDBRANCH  19  22
ENDBRANCH  14  15
ENDBRANCH  13  14
ENDBRANCH   9  13
ENDBRANCH   3   5
TORSDOF 10
ENDMDL