MODEL 5
REMARK VINA RESULT: -9.442682322      2.074      2.848
REMARK  12 active torsions:
REMARK  status: ('A' for Active; 'I' for Inactive)
REMARK    1  A    between atoms: N1_1  and  N2_4
REMARK    2  A    between atoms: C1_6  and  C2_7
REMARK    3  A    between atoms: C1_6  and  O6_28
REMARK    4  A    between atoms: C2_7  and  N3_8
REMARK    5  A    between atoms: N3_8  and  C3_10
REMARK    6  A    between atoms: C8_20  and  N6_21
REMARK    7  A    between atoms: C9_24  and  N7_25
REMARK    8  A    between atoms: O6_28  and  C10_29
REMARK    9  A    between atoms: C10_29  and  C11_30
REMARK   10  A    between atoms: C10_29  and  C12_37
REMARK       I    between atoms: C11_30  and  N8_32
REMARK   11  A    between atoms: N8_32  and  N9_34
REMARK   12  A    between atoms: C17_43  and  O9_44
ROOT
HETATM    1  N2  UNL     1      26.359  30.071  26.222  1.00  0.00    -0.289 N
ATOM      2  H2  UNL     1      25.790  29.812  27.028  1.00  0.00     0.188 HD
HETATM    3  C1  UNL     1      27.307  29.300  25.838  1.00  0.00     0.151 C
ENDROOT
BRANCH   3   4
HETATM    4  C2  UNL     1      28.194  29.558  24.701  1.00  0.00     0.205 C
BRANCH   4   5
HETATM    5  N3  UNL     1      28.196  28.602  23.653  1.00  0.00    -0.380 N
ATOM      6  H3  UNL     1      28.734  27.740  23.740  1.00  0.00     0.160 HD
BRANCH   5   7
HETATM    7  C3  UNL     1      27.428  28.867  22.464  1.00  0.00     0.065 A
HETATM    8  C4  UNL     1      26.552  29.922  22.353  1.00  0.00     0.051 A
HETATM    9  C5  UNL     1      25.826  30.179  21.217  1.00  0.00     0.066 A
HETATM   10  C6  UNL     1      24.896  31.143  20.838  1.00  0.00     0.272 A
HETATM   11  C7  UNL     1      25.952  29.365  20.113  1.00  0.00     0.099 A
HETATM   12  O1  UNL     1      24.533  32.057  21.600  1.00  0.00    -0.266 OA
HETATM   13  N4  UNL     1      24.503  30.899  19.574  1.00  0.00    -0.265 N
HETATM   14  N5  UNL     1      25.128  29.839  19.133  1.00  0.00    -0.294 N
ATOM     15  H4  UNL     1      23.827  31.451  19.046  1.00  0.00     0.190 HD
ATOM     16  H5  UNL     1      25.019  29.431  18.205  1.00  0.00     0.187 HD
HETATM   17  C8  UNL     1      26.829  28.293  20.195  1.00  0.00     0.167 A
HETATM   18  C9  UNL     1      27.549  28.056  21.354  1.00  0.00     0.164 A
BRANCH  17  19
HETATM   19  N6  UNL     1      26.944  27.469  19.056  1.00  0.00    -0.111 N
HETATM   20  O2  UNL     1      26.075  26.626  18.830  1.00  0.00    -0.532 OA
HETATM   21  O3  UNL     1      28.003  27.606  18.213  1.00  0.00    -0.532 OA
ENDBRANCH  17  19
BRANCH  18  22
HETATM   22  N7  UNL     1      28.420  26.931  21.338  1.00  0.00    -0.111 N
HETATM   23  O4  UNL     1      29.634  27.050  21.102  1.00  0.00    -0.532 OA
HETATM   24  O5  UNL     1      27.895  25.688  21.590  1.00  0.00    -0.532 OA
ENDBRANCH  18  22
ENDBRANCH   5   7
ENDBRANCH   4   5
ENDBRANCH   3   4
BRANCH   3  25
HETATM   25  O6  UNL     1      27.430  28.131  26.624  1.00  0.00    -0.317 OA
BRANCH  25  26
HETATM   26  C10 UNL     1      26.674  26.975  26.427  1.00  0.00     0.257 C
BRANCH  26  27
HETATM   27  C11 UNL     1      27.667  25.917  25.992  1.00  0.00     0.269 C
HETATM   28  O7  UNL     1      28.562  25.615  26.853  1.00  0.00    -0.269 OA
HETATM   29  N8  UNL     1      27.611  25.303  24.723  1.00  0.00    -0.274 N
ATOM     30  H8  UNL     1      26.879  25.573  24.065  1.00  0.00     0.189 HD
BRANCH  29  31
HETATM   31  N9  UNL     1      28.535  24.341  24.359  1.00  0.00    -0.343 N
ATOM     32  H92 UNL     1      28.514  23.440  24.835  1.00  0.00     0.176 HD
ATOM     33  H91 UNL     1      29.224  24.526  23.630  1.00  0.00     0.176 HD
ENDBRANCH  29  31
ENDBRANCH  26  27
BRANCH  26  34
HETATM   34  C12 UNL     1      26.017  26.456  27.665  1.00  0.00    -0.017 C
HETATM   35  C13 UNL     1      26.434  27.012  28.854  1.00  0.00     0.010 C
HETATM   36  C14 UNL     1      25.953  26.698  30.119  1.00  0.00     0.005 C
HETATM   37  C15 UNL     1      24.777  26.054  30.503  1.00  0.00     0.058 C
HETATM   38  C16 UNL     1      23.959  25.255  29.723  1.00  0.00     0.204 C
HETATM   39  O8  UNL     1      22.955  24.743  30.307  1.00  0.00    -0.285 OA
HETATM   40  C17 UNL     1      24.124  24.964  28.384  1.00  0.00     0.116 C
HETATM   41  C18 UNL     1      25.043  25.475  27.490  1.00  0.00     0.050 C
BRANCH  40  42
HETATM   42  O9  UNL     1      23.217  24.021  27.919  1.00  0.00    -0.357 OA
ATOM     43  H9  UNL     1      22.626  24.368  27.261  1.00  0.00     0.218 HD
ENDBRANCH  40  42
ENDBRANCH  26  34
ENDBRANCH  25  26
ENDBRANCH   3  25
BRANCH   1  44
HETATM   44  N1  UNL     1      26.104  31.253  25.550  1.00  0.00    -0.343 N
ATOM     45  H12 UNL     1      26.854  31.684  25.010  1.00  0.00     0.176 HD
ATOM     46  H11 UNL     1      25.180  31.683  25.596  1.00  0.00     0.176 HD
ENDBRANCH   1  44
TORSDOF 12
ENDMDL