MODEL 2
REMARK VINA RESULT: -9.295477614      0.997      1.455
REMARK  11 active torsions:
REMARK  status: ('A' for Active; 'I' for Inactive)
REMARK    1  A    between atoms: C3_3  and  C4_4
REMARK    2  A    between atoms: C4_4  and  O2_6
REMARK    3  A    between atoms: O2_6  and  C5_7
REMARK    4  A    between atoms: C8_14  and  N3_15
REMARK    5  A    between atoms: C9_17  and  C10_18
REMARK    6  A    between atoms: C10_18  and  C11_19
REMARK    7  A    between atoms: C15_32  and  N9_33
REMARK    8  A    between atoms: N9_33  and  O3_35
REMARK    9  A    between atoms: O3_35  and  N10_36
REMARK   10  A    between atoms: C18_42  and  O4_43
REMARK   11  A    between atoms: O4_43  and  C19_44
ROOT
HETATM    1  C11 UNL     1      25.259  31.807  20.131  1.00  0.00     0.106 C
HETATM    2  N4  UNL     1      24.153  31.031  20.575  1.00  0.00    -0.087 NA
HETATM    3  N5  UNL     1      25.694  32.825  20.790  1.00  0.00    -0.285 N
ATOM      4  H5  UNL     1      25.238  33.094  21.662  1.00  0.00     0.179 HD
HETATM    5  C12 UNL     1      26.793  33.571  20.319  1.00  0.00     0.182 C
HETATM    6  N6  UNL     1      27.694  34.180  19.904  1.00  0.00    -0.172 NA
ENDROOT
BRANCH   1   7
HETATM    7  C10 UNL     1      25.929  31.433  18.877  1.00  0.00     0.118 C
BRANCH   7   8
HETATM    8  C9  UNL     1      26.576  30.053  18.982  1.00  0.00     0.086 C
HETATM    9  N3  UNL     1      26.920  29.775  20.272  1.00  0.00    -0.205 N
ATOM     10  H3  UNL     1      26.980  30.661  20.774  1.00  0.00     0.183 HD
BRANCH   9  11
HETATM   11  C8  UNL     1      27.185  28.876  21.069  1.00  0.00     0.685 A
HETATM   12  N2  UNL     1      26.950  29.123  22.399  1.00  0.00    -0.175 N
HETATM   13  C7  UNL     1      27.272  28.183  23.293  1.00  0.00     0.137 A
ATOM     14  H2  UNL     1      26.537  30.007  22.699  1.00  0.00     0.186 HD
HETATM   15  N1  UNL     1      27.043  28.430  24.615  1.00  0.00    -0.348 N
HETATM   16  C14 UNL     1      27.829  26.968  22.966  1.00  0.00     0.084 A
HETATM   17  C6  UNL     1      27.346  27.548  25.530  1.00  0.00     0.129 A
ATOM     18  H1  UNL     1      26.628  29.320  24.893  1.00  0.00     0.167 HD
HETATM   19  C5  UNL     1      27.920  26.290  25.242  1.00  0.00     0.124 A
HETATM   20  C15 UNL     1      28.158  26.011  23.915  1.00  0.00     0.109 A
HETATM   21  C13 UNL     1      28.079  26.716  21.606  1.00  0.00     0.131 A
HETATM   22  N7  UNL     1      27.731  27.708  20.726  1.00  0.00    -0.176 N
HETATM   23  N8  UNL     1      28.657  25.701  21.196  1.00  0.00    -0.384 N
ATOM     24  H7  UNL     1      27.902  27.541  19.734  1.00  0.00     0.186 HD
ATOM     25  H82 UNL     1      28.837  25.518  20.209  1.00  0.00     0.157 HD
ATOM     26  H81 UNL     1      28.916  24.963  21.851  1.00  0.00     0.157 HD
BRANCH  19  27
HETATM   27  O2  UNL     1      28.207  25.446  26.256  1.00  0.00    -0.271 OA
BRANCH  27  28
HETATM   28  C4  UNL     1      27.393  24.663  26.974  1.00  0.00     0.305 C
HETATM   29  O1  UNL     1      27.180  23.482  26.681  1.00  0.00    -0.258 OA
BRANCH  28  30
HETATM   30  C3  UNL     1      26.690  25.160  28.167  1.00  0.00     0.083 C
HETATM   31  C2  UNL     1      25.423  25.297  28.454  1.00  0.00    -0.030 C
HETATM   32  C1  UNL     1      24.339  24.912  27.475  1.00  0.00     0.050 C
HETATM   33  C17 UNL     1      25.120  25.853  29.732  1.00  0.00    -0.019 C
HETATM   34  C16 UNL     1      26.110  26.990  30.027  1.00  0.00     0.120 C
HETATM   35  C18 UNL     1      24.239  25.487  30.650  1.00  0.00     0.155 C
HETATM   36  S1  UNL     1      27.578  25.902  29.587  1.00  0.00    -0.119 SA
BRANCH  35  37
HETATM   37  O4  UNL     1      23.397  24.402  30.480  1.00  0.00    -0.276 OA
BRANCH  37  38
HETATM   38  C19 UNL     1      22.263  24.233  31.216  1.00  0.00     0.377 C
HETATM   39  N11 UNL     1      21.573  22.981  31.317  1.00  0.00    -0.032 NA
HETATM   40  O5  UNL     1      21.792  25.199  31.839  1.00  0.00    -0.242 OA
ENDBRANCH  37  38
ENDBRANCH  35  37
ENDBRANCH  28  30
ENDBRANCH  27  28
ENDBRANCH  19  27
BRANCH  20  41
HETATM   41  N9  UNL     1      28.740  24.783  23.514  1.00  0.00    -0.238 N
ATOM     42  H9  UNL     1      29.734  24.819  23.286  1.00  0.00     0.197 HD
BRANCH  41  43
HETATM   43  O3  UNL     1      28.177  23.621  23.398  1.00  0.00    -0.164 OA
BRANCH  43  44
HETATM   44  N10 UNL     1      28.499  22.558  24.079  1.00  0.00    -0.286 N
ATOM     45 2H10 UNL     1      29.116  22.704  24.878  1.00  0.00     0.186 HD
ATOM     46 1H10 UNL     1      28.184  21.610  23.875  1.00  0.00     0.186 HD
ENDBRANCH  43  44
ENDBRANCH  41  43
ENDBRANCH  20  41
ENDBRANCH   9  11
ENDBRANCH   7   8
ENDBRANCH   1   7
TORSDOF 11
ENDMDL