MODEL 1
REMARK VINA RESULT: -8.629721441      0.000      0.000
REMARK  8 active torsions:
REMARK  status: ('A' for Active; 'I' for Inactive)
REMARK    1  A    between atoms: N1_1  and  C1_4
REMARK    2  A    between atoms: C2_7  and  C3_8
REMARK    3  A    between atoms: N5_18  and  C8_19
REMARK    4  A    between atoms: C8_19  and  C9_20
REMARK    5  A    between atoms: C9_20  and  S1_21
REMARK    6  A    between atoms: S1_21  and  C10_22
REMARK    7  A    between atoms: C11_27  and  C12_28
REMARK    8  A    between atoms: C12_28  and  C13_29
ROOT
HETATM    1  C10 UNL     1      25.293  31.054  23.414  1.00  0.00     0.173 A
HETATM    2  N6  UNL     1      26.229  31.784  24.025  1.00  0.00    -0.277 N
ATOM      3  H6  UNL     1      26.437  32.728  23.701  1.00  0.00     0.189 HD
HETATM    4  N7  UNL     1      26.891  31.266  25.066  1.00  0.00    -0.286 N
ATOM      5  H7  UNL     1      27.607  31.825  25.532  1.00  0.00     0.188 HD
HETATM    6  C11 UNL     1      26.635  30.031  25.506  1.00  0.00     0.117 A
HETATM    7  N12 UNL     1      25.698  29.301  24.895  1.00  0.00    -0.286 N
ATOM      8  H12 UNL     1      25.489  28.357  25.218  1.00  0.00     0.188 HD
HETATM    9  N13 UNL     1      25.037  29.822  23.855  1.00  0.00    -0.277 N
ATOM     10  H13 UNL     1      24.322  29.264  23.388  1.00  0.00     0.189 HD
ENDROOT
BRANCH   1  11
HETATM   11  S1  UNL     1      24.414  31.762  22.021  1.00  0.00    -0.090 SA
BRANCH  11  12
HETATM   12  C9  UNL     1      24.597  30.614  20.631  1.00  0.00     0.104 C
BRANCH  12  13
HETATM   13  C8  UNL     1      26.040  30.624  20.116  1.00  0.00     0.160 C
BRANCH  13  14
HETATM   14  N5  UNL     1      26.503  29.261  20.051  1.00  0.00    -0.285 N
HETATM   15  C6  UNL     1      27.255  28.505  20.865  1.00  0.00     0.133 A
HETATM   16  C5  UNL     1      27.931  28.556  22.059  1.00  0.00     0.204 C
HETATM   17  C7  UNL     1      27.164  27.418  20.024  1.00  0.00     0.124 A
HETATM   18  C4  UNL     1      28.607  27.518  22.701  1.00  0.00     0.092 C
HETATM   19  O2  UNL     1      27.946  29.673  22.650  1.00  0.00    -0.286 OA
HETATM   20  C2  UNL     1      28.757  26.197  22.338  1.00  0.00     0.103 C
HETATM   21  N2  UNL     1      28.434  25.664  21.148  1.00  0.00    -0.337 N
HETATM   22  C1  UNL     1      27.690  26.157  20.131  1.00  0.00     0.130 C
ATOM     23  H2  UNL     1      28.812  24.731  20.984  1.00  0.00     0.167 HD
HETATM   24  N4  UNL     1      26.417  28.213  19.244  1.00  0.00    -0.292 N
ATOM     25  H4  UNL     1      25.951  28.065  18.350  1.00  0.00     0.187 HD
BRANCH  20  26
HETATM   26  C3  UNL     1      29.313  25.275  23.313  1.00  0.00     0.281 C
HETATM   27  N3  UNL     1      29.040  23.889  23.257  1.00  0.00    -0.056 NA
HETATM   28  O1  UNL     1      30.049  25.734  24.219  1.00  0.00    -0.269 OA
ENDBRANCH  20  26
BRANCH  22  29
HETATM   29  N1  UNL     1      27.441  25.367  19.154  1.00  0.00    -0.384 N
ATOM     30  H12 UNL     1      27.409  24.373  19.385  1.00  0.00     0.157 HD
ATOM     31  H11 UNL     1      27.298  25.791  18.237  1.00  0.00     0.157 HD
ENDBRANCH  22  29
ENDBRANCH  13  14
ENDBRANCH  12  13
ENDBRANCH  11  12
ENDBRANCH   1  11
BRANCH   6  32
HETATM   32  C12 UNL     1      27.393  29.507  26.657  1.00  0.00     0.155 C
BRANCH  32  33
HETATM   33  C13 UNL     1      27.114  28.056  26.790  1.00  0.00     0.090 A
HETATM   34  N8  UNL     1      27.820  27.082  26.145  1.00  0.00    -0.330 N
HETATM   35  C14 UNL     1      27.335  25.876  26.464  1.00  0.00     0.141 A
ATOM     36  H8  UNL     1      28.602  27.249  25.512  1.00  0.00     0.168 HD
HETATM   37  N9  UNL     1      27.695  24.648  26.086  1.00  0.00    -0.320 N
HETATM   38  C17 UNL     1      26.282  26.120  27.347  1.00  0.00     0.147 A
HETATM   39  C15 UNL     1      27.028  23.583  26.566  1.00  0.00     0.160 A
ATOM     40  H9  UNL     1      28.471  24.518  25.438  1.00  0.00     0.169 HD
HETATM   41  S2  UNL     1      27.533  21.947  26.042  1.00  0.00    -0.013 SA
HETATM   42  N10 UNL     1      26.001  23.750  27.422  1.00  0.00    -0.301 N
HETATM   43  C16 UNL     1      25.627  24.991  27.812  1.00  0.00     0.278 A
ATOM     44  H10 UNL     1      25.502  22.935  27.779  1.00  0.00     0.171 HD
HETATM   45  O3  UNL     1      24.679  25.124  28.600  1.00  0.00    -0.265 OA
HETATM   46  N11 UNL     1      26.165  27.444  27.530  1.00  0.00    -0.338 N
ATOM     47  H11 UNL     1      25.479  27.908  28.126  1.00  0.00     0.167 HD
ENDBRANCH  32  33
ENDBRANCH   6  32
TORSDOF 8
ENDMDL