MODEL 5
REMARK VINA RESULT: -8.011137443      2.298      2.934
REMARK  14 active torsions:
REMARK  status: ('A' for Active; 'I' for Inactive)
REMARK    1  A    between atoms: C2_2  and  O1_4
REMARK    2  A    between atoms: C2_2  and  C4_6
REMARK    3  A    between atoms: C6_12  and  N3_13
REMARK    4  A    between atoms: C8_15  and  C9_16
REMARK    5  A    between atoms: C9_16  and  O2_17
REMARK    6  A    between atoms: O2_17  and  C10_18
REMARK    7  A    between atoms: C13_21  and  N4_22
REMARK       I    between atoms: N4_22  and  C14_24
REMARK    8  A    between atoms: C14_24  and  C15_26
REMARK    9  A    between atoms: C15_26  and  N5_27
REMARK   10  A    between atoms: C15_26  and  C16_31
REMARK   11  A    between atoms: C16_31  and  O4_32
REMARK   12  A    between atoms: C18_35  and  S1_36
REMARK   13  A    between atoms: S1_36  and  N6_37
REMARK   14  A    between atoms: C19_46  and  N10_47
ROOT
HETATM    1  N3  UNL     1      27.771  27.654  21.578  1.00  0.00    -0.080 N
HETATM    2  C7  UNL     1      28.165  27.779  22.854  1.00  0.00     0.165 A
HETATM    3  C8  UNL     1      28.735  26.570  23.266  1.00  0.00     0.069 A
HETATM    4  N7  UNL     1      28.656  25.773  22.208  1.00  0.00    -0.286 N
ATOM      5  H7  UNL     1      28.984  24.808  22.164  1.00  0.00     0.188 HD
HETATM    6  N8  UNL     1      28.070  26.451  21.204  1.00  0.00    -0.222 N
ATOM      7  H8  UNL     1      27.887  26.070  20.276  1.00  0.00     0.209 HD
ENDROOT
BRANCH   3   8
HETATM    8  C9  UNL     1      29.285  26.319  24.644  1.00  0.00     0.236 C
BRANCH   8   9
HETATM    9  O2  UNL     1      28.480  26.119  25.624  1.00  0.00    -0.344 OA
BRANCH   9  10
HETATM   10  C10 UNL     1      27.673  25.923  26.612  1.00  0.00     0.087 A
HETATM   11  C11 UNL     1      27.504  26.841  27.657  1.00  0.00     0.040 A
HETATM   12  C12 UNL     1      26.632  26.549  28.675  1.00  0.00     0.032 A
HETATM   13  C13 UNL     1      25.913  25.385  28.709  1.00  0.00     0.036 A
HETATM   14  C17 UNL     1      26.065  24.485  27.698  1.00  0.00     0.052 A
HETATM   15  C18 UNL     1      26.919  24.725  26.662  1.00  0.00     0.056 A
BRANCH  13  16
HETATM   16  N4  UNL     1      25.060  25.131  29.835  1.00  0.00    -0.325 N
HETATM   17  C14 UNL     1      23.671  25.364  29.668  1.00  0.00     0.255 C
HETATM   18  O3  UNL     1      23.276  25.777  28.525  1.00  0.00    -0.271 OA
ATOM     19  H4  UNL     1      25.437  24.797  30.721  1.00  0.00     0.169 HD
BRANCH  17  20
HETATM   20  C15 UNL     1      22.636  25.174  30.696  1.00  0.00     0.298 C
BRANCH  20  21
HETATM   21  N5  UNL     1      22.660  23.934  31.388  1.00  0.00    -0.064 N
ATOM     22  H53 UNL     1      22.245  23.205  30.807  1.00  0.00     0.275 HD
ATOM     23  H52 UNL     1      23.619  23.593  31.452  1.00  0.00     0.275 HD
ATOM     24  H51 UNL     1      22.229  23.926  32.312  1.00  0.00     0.275 HD
ENDBRANCH  20  21
BRANCH  20  25
HETATM   25  C16 UNL     1      22.740  26.335  31.670  1.00  0.00     0.206 C
BRANCH  25  26
HETATM   26  O4  UNL     1      24.071  26.576  31.993  1.00  0.00    -0.398 OA
ATOM     27  H4  UNL     1      24.187  27.480  32.260  1.00  0.00     0.209 HD
ENDBRANCH  25  26
ENDBRANCH  20  25
ENDBRANCH  17  20
ENDBRANCH  13  16
BRANCH  15  28
HETATM   28  S1  UNL     1      27.125  23.561  25.311  1.00  0.00    -0.019 SA
BRANCH  28  29
HETATM   29  N6  UNL     1      27.460  21.984  26.008  1.00  0.00    -0.370 N
ATOM     30  H62 UNL     1      27.987  21.818  26.867  1.00  0.00     0.164 HD
ATOM     31  H61 UNL     1      27.037  21.280  25.405  1.00  0.00     0.164 HD
ENDBRANCH  28  29
ENDBRANCH  15  28
ENDBRANCH   9  10
ENDBRANCH   8   9
ENDBRANCH   3   8
BRANCH   1  32
HETATM   32  C6  UNL     1      27.132  28.705  20.842  1.00  0.00     0.733 A
HETATM   33  N2  UNL     1      26.149  29.445  21.359  1.00  0.00    -0.017 N
HETATM   34  C5  UNL     1      25.540  30.435  20.666  1.00  0.00     0.734 A
ATOM     35  H2  UNL     1      25.844  29.257  22.315  1.00  0.00     0.203 HD
HETATM   36  N1  UNL     1      24.544  31.323  20.920  1.00  0.00    -0.173 N
HETATM   37  N11 UNL     1      25.954  30.665  19.414  1.00  0.00     0.092 N
HETATM   38  C4  UNL     1      24.334  32.103  19.844  1.00  0.00     0.147 A
ATOM     39  H1  UNL     1      24.030  31.389  21.799  1.00  0.00     0.185 HD
HETATM   40  N12 UNL     1      25.219  31.673  18.929  1.00  0.00    -0.250 N
ATOM     41  H12 UNL     1      25.318  32.063  17.992  1.00  0.00     0.190 HD
HETATM   42  C19 UNL     1      26.953  29.937  18.844  1.00  0.00     0.727 A
HETATM   43  N9  UNL     1      27.517  28.977  19.570  1.00  0.00    -0.018 N
ATOM     44  H9  UNL     1      28.266  28.423  19.155  1.00  0.00     0.203 HD
BRANCH  38  45
HETATM   45  C2  UNL     1      23.351  33.207  19.654  1.00  0.00     0.110 C
HETATM   46  C1  UNL     1      24.003  34.361  18.936  1.00  0.00     0.054 C
HETATM   47  C3  UNL     1      22.733  33.626  20.964  1.00  0.00     0.054 C
BRANCH  45  48
HETATM   48  O1  UNL     1      22.315  32.747  18.847  1.00  0.00    -0.383 OA
ATOM     49  H1  UNL     1      21.542  33.256  19.060  1.00  0.00     0.211 HD
ENDBRANCH  45  48
ENDBRANCH  38  45
BRANCH  42  50
HETATM   50  N10 UNL     1      27.273  30.232  17.645  1.00  0.00    -0.232 N
ATOM     51 2H10 UNL     1      26.511  30.454  17.004  1.00  0.00     0.174 HD
ATOM     52 1H10 UNL     1      28.226  30.260  17.282  1.00  0.00     0.174 HD
ENDBRANCH  42  50
ENDBRANCH   1  32
TORSDOF 14
ENDMDL