MODEL 4
REMARK VINA RESULT: -5.830841511      1.736      2.803
REMARK  5 active torsions:
REMARK  status: ('A' for Active; 'I' for Inactive)
REMARK    1  A    between atoms: C3_5  and  N2_6
REMARK    2  A    between atoms: N2_6  and  C4_8
REMARK    3  A    between atoms: C4_8  and  C5_9
REMARK    4  A    between atoms: C5_9  and  C6_10
REMARK    5  A    between atoms: C6_10  and  N3_11
ROOT
HETATM    1  C4  UNL     1      -0.307  16.446  17.380  1.00  0.00     0.139 C
ENDROOT
BRANCH   1   2
HETATM    2  N2  UNL     1       0.997  16.369  17.935  1.00  0.00    -0.226 N
ATOM      3  H2  UNL     1       1.326  15.471  18.288  1.00  0.00     0.177 HD
BRANCH   2   4
HETATM    4  C3  UNL     1       1.778  17.386  18.011  1.00  0.00     0.679 A
HETATM    5  N1  UNL     1       2.038  18.370  17.138  1.00  0.00    -0.191 N
HETATM    6  C2  UNL     1       2.944  19.242  17.641  1.00  0.00     0.066 A
ATOM      7  H1  UNL     1       1.609  18.451  16.216  1.00  0.00     0.184 HD
HETATM    8  C1  UNL     1       3.412  20.312  17.043  1.00  0.00     0.046 C
HETATM    9  C11 UNL     1       3.269  18.787  18.889  1.00  0.00     0.066 A
HETATM   10  N6  UNL     1       2.553  17.668  19.085  1.00  0.00    -0.191 N
HETATM   11  C12 UNL     1       4.129  19.359  19.721  1.00  0.00     0.046 C
ATOM     12  H6  UNL     1       2.588  17.103  19.934  1.00  0.00     0.184 HD
ENDBRANCH   2   4
ENDBRANCH   1   2
BRANCH   1  13
HETATM   13  C5  UNL     1      -1.416  16.335  18.355  1.00  0.00     0.041 C
BRANCH  13  14
HETATM   14  C6  UNL     1      -2.036  15.028  18.610  1.00  0.00     0.143 C
BRANCH  14  15
HETATM   15  N3  UNL     1      -2.125  14.083  17.552  1.00  0.00    -0.218 N
HETATM   16  C7  UNL     1      -2.933  14.158  16.367  1.00  0.00     0.143 C
HETATM   17  C8  UNL     1      -2.304  13.430  15.190  1.00  0.00     0.041 C
HETATM   18  C9  UNL     1      -2.141  11.952  15.493  1.00  0.00     0.139 C
HETATM   19  N4  UNL     1      -1.649  11.767  16.847  1.00  0.00    -0.227 N
HETATM   20  C10 UNL     1      -1.298  12.896  17.651  1.00  0.00     0.669 C
ATOM     21  H4  UNL     1      -1.554  10.825  17.226  1.00  0.00     0.177 HD
HETATM   22  N5  UNL     1      -0.271  12.800  18.397  1.00  0.00    -0.235 N
ATOM     23  H52 UNL     1      -0.020  13.606  18.971  1.00  0.00     0.174 HD
ATOM     24  H51 UNL     1       0.311  11.965  18.467  1.00  0.00     0.174 HD
ENDBRANCH  14  15
ENDBRANCH  13  14
ENDBRANCH   1  13
TORSDOF 5
ENDMDL