MODEL 3
REMARK VINA RESULT: -6.183884135      1.658      2.385
REMARK  4 active torsions:
REMARK  status: ('A' for Active; 'I' for Inactive)
REMARK    1  A    between atoms: C3_3  and  C4_4
REMARK    2  A    between atoms: C4_4  and  N1_5
REMARK       I    between atoms: N1_5  and  C5_7
REMARK       I    between atoms: C5_7  and  N3_11
REMARK    3  A    between atoms: N3_11  and  C6_13
REMARK    4  A    between atoms: C6_13  and  C7_14
REMARK       I    between atoms: C7_14  and  N4_16
ROOT
HETATM    1  C1  UNL     1       5.020  18.602  13.099  1.00  0.00     0.012 C
HETATM    2  C2  UNL     1       4.199  18.901  13.931  1.00  0.00    -0.116 C
HETATM    3  C3  UNL     1       3.179  19.274  14.929  1.00  0.00     0.113 C
ENDROOT
BRANCH   3   4
HETATM    4  C4  UNL     1       1.833  18.952  14.292  1.00  0.00     0.150 C
BRANCH   4   5
HETATM    5  N1  UNL     1       1.275  17.800  14.968  1.00  0.00    -0.226 N
HETATM    6  C5  UNL     1      -0.022  17.900  15.541  1.00  0.00     0.667 C
HETATM    7  N2  UNL     1      -1.093  18.012  14.836  1.00  0.00    -0.235 N
HETATM    8  N3  UNL     1      -0.170  17.876  16.962  1.00  0.00    -0.218 N
ATOM      9  H22 UNL     1      -0.987  18.029  13.821  1.00  0.00     0.174 HD
ATOM     10  H21 UNL     1      -2.023  18.084  15.247  1.00  0.00     0.174 HD
ATOM     11  H3  UNL     1       0.502  18.395  17.528  1.00  0.00     0.178 HD
ATOM     12  H1  UNL     1       1.804  16.930  15.031  1.00  0.00     0.177 HD
BRANCH   8  13
HETATM   13  C6  UNL     1      -1.213  17.161  17.631  1.00  0.00     0.241 C
BRANCH  13  14
HETATM   14  C7  UNL     1      -0.839  15.763  17.816  1.00  0.00     0.242 C
HETATM   15  O1  UNL     1       0.039  15.503  18.677  1.00  0.00    -0.271 OA
HETATM   16  N4  UNL     1      -1.394  14.676  17.094  1.00  0.00    -0.313 N
HETATM   17  C8  UNL     1      -0.889  13.362  17.424  1.00  0.00     0.133 C
HETATM   18  C12 UNL     1      -2.409  14.924  16.092  1.00  0.00     0.185 C
HETATM   19  C9  UNL     1      -1.999  12.333  17.400  1.00  0.00     0.025 C
HETATM   20  C10 UNL     1      -2.230  11.799  16.020  1.00  0.00     0.046 C
HETATM   21  C11 UNL     1      -2.851  12.781  15.081  1.00  0.00     0.062 C
HETATM   22  N5  UNL     1      -2.236  14.045  15.010  1.00  0.00    -0.366 N
ATOM     23  H5  UNL     1      -1.681  14.314  14.198  1.00  0.00     0.165 HD
ENDBRANCH  13  14
ENDBRANCH   8  13
ENDBRANCH   4   5
ENDBRANCH   3   4
TORSDOF 4
ENDMDL