MODEL 1
REMARK VINA RESULT: -5.440750833      0.000      0.000
REMARK  5 active torsions:
REMARK  status: ('A' for Active; 'I' for Inactive)
REMARK       I    between atoms: C1_4  and  N3_6
REMARK    1  A    between atoms: N3_6  and  C2_8
REMARK    2  A    between atoms: C2_8  and  C3_9
REMARK    3  A    between atoms: C3_9  and  N4_10
REMARK    4  A    between atoms: C6_13  and  N5_14
REMARK    5  A    between atoms: N5_14  and  C7_16
ROOT
HETATM    1  N4  UNL     1      -1.408  14.548  17.483  1.00  0.00    -0.411 N
HETATM    2  C4  UNL     1      -0.968  15.449  16.468  1.00  0.00     0.119 C
HETATM    3  C5  UNL     1      -1.962  15.662  15.352  1.00  0.00     0.044 C
HETATM    4  C6  UNL     1      -3.307  16.051  15.907  1.00  0.00     0.086 C
HETATM    5  C8  UNL     1      -3.277  16.023  17.422  1.00  0.00     0.044 C
HETATM    6  C9  UNL     1      -2.780  14.650  17.824  1.00  0.00     0.119 C
ENDROOT
BRANCH   1   7
HETATM    7  C3  UNL     1      -0.862  13.232  17.424  1.00  0.00     0.136 C
BRANCH   7   8
HETATM    8  C2  UNL     1      -1.816  12.168  17.005  1.00  0.00     0.141 C
BRANCH   8   9
HETATM    9  N3  UNL     1      -1.570  11.848  15.618  1.00  0.00    -0.363 N
HETATM   10  C1  UNL     1      -2.479  12.101  14.560  1.00  0.00     0.181 C
HETATM   11  N1  UNL     1      -3.703  12.464  14.807  1.00  0.00    -0.374 N
HETATM   12  N2  UNL     1      -2.083  11.957  13.211  1.00  0.00    -0.064 NA
ATOM     13  H12 UNL     1      -4.357  12.646  14.046  1.00  0.00     0.158 HD
ATOM     14  H11 UNL     1      -3.989  12.568  15.781  1.00  0.00     0.158 HD
ATOM     15  H3  UNL     1      -0.680  11.409  15.383  1.00  0.00     0.162 HD
ENDBRANCH   8   9
ENDBRANCH   7   8
ENDBRANCH   1   7
BRANCH   4  16
HETATM   16  N5  UNL     1      -3.767  17.319  15.425  1.00  0.00    -0.365 N
ATOM     17  H5  UNL     1      -4.768  17.472  15.306  1.00  0.00     0.162 HD
BRANCH  16  18
HETATM   18  C7  UNL     1      -2.869  18.360  15.112  1.00  0.00     0.181 C
HETATM   19  N6  UNL     1      -2.453  18.597  13.782  1.00  0.00    -0.070 NA
HETATM   20  S1  UNL     1      -2.291  19.318  16.301  1.00  0.00    -0.044 SA
ENDBRANCH  16  18
ENDBRANCH   4  16
TORSDOF 5
ENDMDL