MODEL 5
REMARK VINA RESULT: -6.741118306      3.270      3.773
REMARK  6 active torsions:
REMARK  status: ('A' for Active; 'I' for Inactive)
REMARK    1  A    between atoms: C3_5  and  N2_6
REMARK    2  A    between atoms: C4_11  and  N4_12
REMARK    3  A    between atoms: C5_15  and  C6_16
REMARK    4  A    between atoms: C6_16  and  C7_17
REMARK    5  A    between atoms: C7_17  and  C8_18
REMARK    6  A    between atoms: C8_18  and  N5_19
ROOT
HETATM    1  C1  UNL     1      -0.659  12.857  18.492  1.00  0.00     0.069 C
HETATM    2  C2  UNL     1      -1.251  13.114  17.196  1.00  0.00     0.032 A
HETATM    3  N1  UNL     1      -1.615  11.980  16.494  1.00  0.00    -0.196 N
ATOM      4  H1  UNL     1      -1.420  11.057  16.880  1.00  0.00     0.184 HD
HETATM    5  C3  UNL     1      -2.225  12.093  15.308  1.00  0.00     0.677 A
HETATM    6  N3  UNL     1      -2.491  13.299  14.782  1.00  0.00    -0.177 N
ATOM      7  H3  UNL     1      -2.956  13.378  13.878  1.00  0.00     0.185 HD
HETATM    8  C4  UNL     1      -2.136  14.396  15.464  1.00  0.00     0.122 A
HETATM    9  C5  UNL     1      -1.489  14.348  16.720  1.00  0.00     0.009 A
ENDROOT
BRANCH   9  10
HETATM   10  C6  UNL     1      -1.100  15.593  17.330  1.00  0.00     0.046 C
BRANCH  10  11
HETATM   11  C7  UNL     1      -1.937  16.210  18.366  1.00  0.00     0.035 C
BRANCH  11  12
HETATM   12  C8  UNL     1      -1.670  17.527  18.954  1.00  0.00     0.273 C
BRANCH  12  13
HETATM   13  N5  UNL     1      -2.327  17.846  20.191  1.00  0.00     0.098 N
HETATM   14  C9  UNL     1      -1.950  19.083  20.791  1.00  0.00     0.292 C
HETATM   15  C10 UNL     1      -0.637  18.984  21.543  1.00  0.00     0.152 C
HETATM   16  N6  UNL     1      -0.920  18.163  22.703  1.00  0.00    -0.358 N
HETATM   17  C11 UNL     1      -1.823  17.091  22.473  1.00  0.00     0.246 C
ATOM     18  H6  UNL     1      -0.502  18.341  23.617  1.00  0.00     0.162 HD
HETATM   19  O1  UNL     1      -2.227  16.416  23.447  1.00  0.00    -0.272 OA
HETATM   20  C12 UNL     1      -2.312  16.733  21.120  1.00  0.00     0.374 C
ENDBRANCH  12  13
ENDBRANCH  11  12
ENDBRANCH  10  11
ENDBRANCH   9  10
BRANCH   8  21
HETATM   21  N4  UNL     1      -2.383  15.552  14.977  1.00  0.00    -0.385 N
ATOM     22  H42 UNL     1      -2.755  15.589  14.029  1.00  0.00     0.157 HD
ATOM     23  H41 UNL     1      -2.204  16.386  15.537  1.00  0.00     0.157 HD
ENDBRANCH   8  21
BRANCH   5  24
HETATM   24  N2  UNL     1      -2.586  11.055  14.610  1.00  0.00    -0.234 N
ATOM     25  H22 UNL     1      -1.854  10.577  14.084  1.00  0.00     0.174 HD
ATOM     26  H21 UNL     1      -3.551  10.725  14.584  1.00  0.00     0.174 HD
ENDBRANCH   5  24
TORSDOF 6
ENDMDL