MODEL 2
REMARK VINA RESULT: -5.324512689      1.910      3.016
REMARK  5 active torsions:
REMARK  status: ('A' for Active; 'I' for Inactive)
REMARK    1  A    between atoms: C2_2  and  C3_3
REMARK    2  A    between atoms: C3_3  and  N1_4
REMARK    3  A    between atoms: N1_4  and  C4_7
REMARK    4  A    between atoms: C4_7  and  C5_8
REMARK    5  A    between atoms: C5_8  and  O1_9
ROOT
HETATM    1  C1  UNL     1      -0.477  13.312  18.496  1.00  0.00     0.042 C
HETATM    2  C2  UNL     1      -0.974  14.709  18.193  1.00  0.00     0.068 C
HETATM    3  C6  UNL     1      -2.054  15.060  19.098  1.00  0.00     0.154 C
HETATM    4  N2  UNL     1      -2.459  16.415  19.264  1.00  0.00    -0.365 N
ATOM      5  H2  UNL     1      -3.337  16.488  19.778  1.00  0.00     0.162 HD
HETATM    6  C7  UNL     1      -1.961  17.680  18.901  1.00  0.00     0.173 C
HETATM    7  S1  UNL     1      -2.744  18.996  19.446  1.00  0.00    -0.041 SA
HETATM    8  N3  UNL     1      -0.806  17.876  18.065  1.00  0.00    -0.310 N
ATOM      9  H3  UNL     1      -0.732  18.778  17.594  1.00  0.00     0.170 HD
HETATM   10  C8  UNL     1       0.260  16.928  17.822  1.00  0.00     0.174 C
HETATM   11  S2  UNL     1       1.614  17.539  17.144  1.00  0.00    -0.041 SA
HETATM   12  N4  UNL     1       0.194  15.546  18.123  1.00  0.00    -0.355 N
ATOM     13  H4  UNL     1       1.085  15.087  18.313  1.00  0.00     0.162 HD
ENDROOT
BRANCH   2  14
HETATM   14  C3  UNL     1      -1.555  14.625  16.754  1.00  0.00     0.264 C
BRANCH  14  15
HETATM   15  N1  UNL     1      -1.608  13.250  16.350  1.00  0.00    -0.071 N
ATOM     16  H12 UNL     1      -0.758  12.978  15.855  1.00  0.00     0.277 HD
ATOM     17  H11 UNL     1      -1.535  12.627  17.154  1.00  0.00     0.277 HD
BRANCH  15  18
HETATM   18  C4  UNL     1      -2.776  12.956  15.572  1.00  0.00     0.258 C
BRANCH  18  19
HETATM   19  C5  UNL     1      -2.372  12.165  14.329  1.00  0.00     0.191 C
BRANCH  19  20
HETATM   20  O1  UNL     1      -2.620  10.831  14.639  1.00  0.00    -0.399 OA
ATOM     21  H1  UNL     1      -1.774  10.460  14.862  1.00  0.00     0.209 HD
ENDBRANCH  19  20
ENDBRANCH  18  19
ENDBRANCH  15  18
ENDBRANCH  14  15
ENDBRANCH   2  14
TORSDOF 5
ENDMDL