MODEL 4
REMARK VINA RESULT: -5.195756366      1.797      2.156
REMARK  8 active torsions:
REMARK  status: ('A' for Active; 'I' for Inactive)
REMARK    1  A    between atoms: C2_2  and  C3_3
REMARK    2  A    between atoms: C4_4  and  C5_5
REMARK    3  A    between atoms: C6_6  and  S1_7
REMARK    4  A    between atoms: S1_7  and  C8_9
REMARK    5  A    between atoms: C8_9  and  C9_10
REMARK    6  A    between atoms: C9_10  and  N1_11
REMARK    7  A    between atoms: C10_17  and  N3_18
REMARK    8  A    between atoms: C11_23  and  N5_24
ROOT
HETATM    1  C5  UNL     1      -2.361  14.755  17.962  1.00  0.00     0.095 A
HETATM    2  C6  UNL     1      -2.725  15.037  16.655  1.00  0.00     0.099 A
HETATM    3  N2  UNL     1      -2.819  14.078  15.728  1.00  0.00    -0.185 N
ATOM      4  H2  UNL     1      -3.090  14.330  14.777  1.00  0.00     0.185 HD
HETATM    5  C10 UNL     1      -2.568  12.791  16.016  1.00  0.00     0.678 A
HETATM    6  N4  UNL     1      -2.213  12.473  17.271  1.00  0.00    -0.176 N
ATOM      7  H4  UNL     1      -2.018  11.500  17.506  1.00  0.00     0.186 HD
HETATM    8  C11 UNL     1      -2.109  13.416  18.223  1.00  0.00     0.136 A
ENDROOT
BRANCH   2   9
HETATM    9  S1  UNL     1      -3.051  16.728  16.293  1.00  0.00    -0.170 SA
HETATM   10  C7  UNL     1      -4.785  16.863  15.865  1.00  0.00     0.085 C
BRANCH   9  11
HETATM   11  C8  UNL     1      -2.128  17.136  14.831  1.00  0.00     0.096 C
BRANCH  11  12
HETATM   12  C9  UNL     1      -2.205  18.634  14.570  1.00  0.00     0.239 C
BRANCH  12  13
HETATM   13  N1  UNL     1      -1.498  18.946  13.348  1.00  0.00    -0.079 N
ATOM     14  H13 UNL     1      -0.519  19.173  13.516  1.00  0.00     0.274 HD
ATOM     15  H12 UNL     1      -1.358  18.123  12.762  1.00  0.00     0.274 HD
ATOM     16  H11 UNL     1      -1.987  19.692  12.854  1.00  0.00     0.274 HD
ENDBRANCH  12  13
ENDBRANCH  11  12
ENDBRANCH   9  11
ENDBRANCH   2   9
BRANCH   1  17
HETATM   17  C4  UNL     1      -2.262  15.792  18.948  1.00  0.00    -0.060 C
HETATM   18  C3  UNL     1      -2.189  16.659  19.783  1.00  0.00    -0.101 C
BRANCH  18  19
HETATM   19  C2  UNL     1      -2.090  17.741  20.792  1.00  0.00     0.090 C
HETATM   20  C1  UNL     1      -2.124  17.059  22.139  1.00  0.00     0.018 C
ENDBRANCH  18  19
ENDBRANCH   1  17
BRANCH   8  21
HETATM   21  N5  UNL     1      -1.764  13.106  19.441  1.00  0.00    -0.384 N
ATOM     22  H52 UNL     1      -0.801  13.216  19.758  1.00  0.00     0.157 HD
ATOM     23  H51 UNL     1      -2.498  12.752  20.054  1.00  0.00     0.157 HD
ENDBRANCH   8  21
BRANCH   5  24
HETATM   24  N3  UNL     1      -2.657  11.859  15.132  1.00  0.00    -0.234 N
ATOM     25  H32 UNL     1      -2.827  12.111  14.158  1.00  0.00     0.174 HD
ATOM     26  H31 UNL     1      -2.562  10.872  15.370  1.00  0.00     0.174 HD
ENDBRANCH   5  24
TORSDOF 8
ENDMDL