MODEL 2
REMARK VINA RESULT: -6.530572430      1.616      2.047
REMARK  4 active torsions:
REMARK  status: ('A' for Active; 'I' for Inactive)
REMARK    1  A    between atoms: C5_10  and  C6_11
REMARK    2  A    between atoms: C6_11  and  C7_12
REMARK    3  A    between atoms: C7_12  and  C8_13
REMARK    4  A    between atoms: C8_13  and  C9_14
ROOT
HETATM    1  C1  UNL     1      -0.494  13.433  19.259  1.00  0.00     0.019 C
HETATM    2  C2  UNL     1      -0.800  12.957  18.194  1.00  0.00    -0.058 C
HETATM    3  C3  UNL     1      -1.177  12.393  16.933  1.00  0.00     0.112 A
HETATM    4  N1  UNL     1      -0.736  11.235  16.428  1.00  0.00    -0.289 N
ATOM      5  H1  UNL     1      -0.071  10.612  16.887  1.00  0.00     0.188 HD
HETATM    6  N2  UNL     1      -1.293  11.015  15.235  1.00  0.00    -0.265 N
ATOM      7  H2  UNL     1      -1.119  10.200  14.646  1.00  0.00     0.190 HD
HETATM    8  C4  UNL     1      -2.128  12.042  14.926  1.00  0.00     0.269 A
HETATM    9  O1  UNL     1      -2.832  12.200  13.897  1.00  0.00    -0.266 OA
HETATM   10  C5  UNL     1      -2.049  12.904  15.999  1.00  0.00     0.048 A
ENDROOT
BRANCH  10  11
HETATM   11  C6  UNL     1      -2.794  14.183  16.116  1.00  0.00     0.047 C
BRANCH  11  12
HETATM   12  C7  UNL     1      -2.129  15.282  15.273  1.00  0.00     0.007 C
BRANCH  12  13
HETATM   13  C8  UNL     1      -1.043  15.881  16.133  1.00  0.00     0.043 C
BRANCH  13  14
HETATM   14  C9  UNL     1      -1.401  17.252  16.653  1.00  0.00     0.277 C
HETATM   15  N3  UNL     1      -2.459  17.812  15.884  1.00  0.00    -0.061 N
HETATM   16  C10 UNL     1      -3.542  18.356  16.668  1.00  0.00     0.253 C
ATOM     17  H32 UNL     1      -2.097  18.515  15.240  1.00  0.00     0.278 HD
ATOM     18  H31 UNL     1      -2.812  17.129  15.215  1.00  0.00     0.278 HD
HETATM   19  C11 UNL     1      -4.059  17.380  17.695  1.00  0.00     0.150 C
HETATM   20  N4  UNL     1      -2.961  16.906  18.549  1.00  0.00    -0.358 N
HETATM   21  C12 UNL     1      -1.650  17.211  18.108  1.00  0.00     0.248 C
ATOM     22  H4  UNL     1      -3.133  16.386  19.410  1.00  0.00     0.162 HD
HETATM   23  O2  UNL     1      -0.753  17.435  18.946  1.00  0.00    -0.271 OA
ENDBRANCH  13  14
ENDBRANCH  12  13
ENDBRANCH  11  12
ENDBRANCH  10  11
TORSDOF 4
ENDMDL