MODEL 3
REMARK VINA RESULT: -5.987673370      2.043      2.999
REMARK  6 active torsions:
REMARK  status: ('A' for Active; 'I' for Inactive)
REMARK    1  A    between atoms: N1_2  and  C4_5
REMARK    2  A    between atoms: C4_5  and  C5_6
REMARK    3  A    between atoms: C5_6  and  C6_7
REMARK    4  A    between atoms: C6_7  and  N2_8
REMARK    5  A    between atoms: C8_10  and  O1_11
REMARK    6  A    between atoms: C9_13  and  O2_14
ROOT
HETATM    1  N2  UNL     1      -1.140  15.588  16.612  1.00  0.00    -0.367 N
HETATM    2  C7  UNL     1      -0.535  15.284  17.885  1.00  0.00     0.158 C
HETATM    3  C8  UNL     1      -1.452  14.457  18.716  1.00  0.00     0.166 C
HETATM    4  C9  UNL     1      -1.015  12.991  18.796  1.00  0.00     0.174 C
HETATM    5  C10 UNL     1      -0.911  12.416  17.378  1.00  0.00     0.266 C
HETATM    6  N3  UNL     1      -2.181  12.608  16.733  1.00  0.00    -0.066 N
ATOM      7  H31 UNL     1      -2.831  13.088  17.355  1.00  0.00     0.277 HD
ATOM      8  H32 UNL     1      -2.670  11.719  16.629  1.00  0.00     0.277 HD
HETATM    9  C11 UNL     1      -2.090  13.286  15.474  1.00  0.00     0.307 C
HETATM   10  C12 UNL     1      -1.885  14.736  15.728  1.00  0.00     0.099 C
HETATM   11  N4  UNL     1      -2.584  15.476  14.905  1.00  0.00    -0.388 N
ATOM     12  H41 UNL     1      -3.113  14.871  14.276  1.00  0.00     0.157 HD
ATOM     13  H42 UNL     1      -2.444  16.470  15.079  1.00  0.00     0.157 HD
ENDROOT
BRANCH   1  14
HETATM   14  C6  UNL     1      -1.013  16.905  16.107  1.00  0.00     0.126 C
BRANCH  14  15
HETATM   15  C5  UNL     1      -1.288  18.061  16.966  1.00  0.00     0.048 C
BRANCH  15  16
HETATM   16  C4  UNL     1      -2.567  18.792  16.834  1.00  0.00     0.237 C
BRANCH  16  17
HETATM   17  N1  UNL     1      -3.532  18.420  17.869  1.00  0.00    -0.079 N
HETATM   18  C1  UNL     1      -4.307  19.601  18.178  1.00  0.00     0.271 C
HETATM   19  C2  UNL     1      -2.923  17.943  19.075  1.00  0.00     0.271 C
HETATM   20  C3  UNL     1      -4.440  17.397  17.394  1.00  0.00     0.271 C
ENDBRANCH  16  17
ENDBRANCH  15  16
ENDBRANCH  14  15
ENDBRANCH   1  14
BRANCH   3  21
HETATM   21  O1  UNL     1      -2.782  14.483  18.272  1.00  0.00    -0.391 OA
ATOM     22  H1  UNL     1      -3.124  13.624  18.056  1.00  0.00     0.210 HD
ENDBRANCH   3  21
BRANCH   4  23
HETATM   23  O2  UNL     1       0.184  12.921  19.471  1.00  0.00    -0.391 OA
ATOM     24  H2  UNL     1       0.842  12.562  18.889  1.00  0.00     0.210 HD
ENDBRANCH   4  23
TORSDOF 6
ENDMDL