MODEL 1
REMARK VINA RESULT: -6.376355176      0.000      0.000
REMARK  5 active torsions:
REMARK  status: ('A' for Active; 'I' for Inactive)
REMARK    1  A    between atoms: C2_2  and  C3_3
REMARK    2  A    between atoms: C3_3  and  N1_4
REMARK    3  A    between atoms: N2_7  and  C6_8
REMARK    4  A    between atoms: C6_8  and  C7_9
REMARK    5  A    between atoms: C9_13  and  N4_14
ROOT
HETATM    1  N1  UNL     1       0.286  17.767  17.071  1.00  0.00     0.121 N
HETATM    2  C4  UNL     1      -0.256  16.837  18.021  1.00  0.00     0.320 C
HETATM    3  C5  UNL     1      -1.749  16.793  18.091  1.00  0.00     0.098 C
HETATM    4  N2  UNL     1      -2.376  15.749  17.399  1.00  0.00    -0.345 N
HETATM    5  C10 UNL     1      -3.001  16.008  16.175  1.00  0.00     0.096 C
HETATM    6  C11 UNL     1      -2.075  16.331  15.027  1.00  0.00     0.279 C
HETATM    7  N6  UNL     1      -1.363  17.564  15.307  1.00  0.00    -0.044 N
ATOM      8  H61 UNL     1      -1.856  18.117  16.008  1.00  0.00     0.279 HD
ATOM      9  H62 UNL     1      -1.424  18.205  14.515  1.00  0.00     0.279 HD
HETATM   10  C12 UNL     1      -0.008  17.354  15.687  1.00  0.00     0.503 C
ENDROOT
BRANCH   4  11
HETATM   11  C6  UNL     1      -2.537  14.497  18.017  1.00  0.00     0.126 C
BRANCH  11  12
HETATM   12  C7  UNL     1      -2.113  13.352  17.186  1.00  0.00     0.081 A
HETATM   13  C8  UNL     1      -0.997  12.554  17.276  1.00  0.00     0.137 A
HETATM   14  N3  UNL     1      -1.057  11.641  16.283  1.00  0.00    -0.200 N
HETATM   15  C9  UNL     1      -2.171  11.839  15.573  1.00  0.00     0.676 A
ATOM     16  H3  UNL     1      -0.363  10.916  16.105  1.00  0.00     0.183 HD
HETATM   17  N5  UNL     1      -2.807  12.880  16.128  1.00  0.00    -0.189 N
ATOM     18  H5  UNL     1      -3.692  13.262  15.797  1.00  0.00     0.184 HD
BRANCH  15  19
HETATM   19  N4  UNL     1      -2.576  11.157  14.535  1.00  0.00    -0.234 N
ATOM     20  H42 UNL     1      -2.114  10.338  14.139  1.00  0.00     0.174 HD
ATOM     21  H41 UNL     1      -3.404  11.334  13.967  1.00  0.00     0.174 HD
ENDBRANCH  15  19
ENDBRANCH  11  12
ENDBRANCH   4  11
BRANCH   1  22
HETATM   22  C3  UNL     1       1.739  17.738  17.149  1.00  0.00     0.301 C
BRANCH  22  23
HETATM   23  C2  UNL     1       2.279  17.336  18.449  1.00  0.00    -0.007 C
HETATM   24  C1  UNL     1       3.182  18.076  19.072  1.00  0.00     0.008 C
ENDBRANCH  22  23
ENDBRANCH   1  22
TORSDOF 5
ENDMDL