MODEL 4
REMARK VINA RESULT: -5.574508283      0.933      1.193
REMARK  7 active torsions:
REMARK  status: ('A' for Active; 'I' for Inactive)
REMARK    1  A    between atoms: N1_1  and  C1_4
REMARK    2  A    between atoms: C2_7  and  N3_8
REMARK    3  A    between atoms: N3_8  and  C3_10
REMARK    4  A    between atoms: C3_10  and  C4_11
REMARK    5  A    between atoms: C7_16  and  N5_17
REMARK    6  A    between atoms: N5_17  and  C8_19
REMARK    7  A    between atoms: C8_19  and  C9_20
ROOT
HETATM    1  C1  UNL     1      -0.338  17.132  15.945  1.00  0.00     0.705 A
HETATM    2  N2  UNL     1       0.726  17.470  16.708  1.00  0.00    -0.022 N
ATOM      3  H2  UNL     1       1.278  18.299  16.489  1.00  0.00     0.203 HD
HETATM    4  C2  UNL     1       1.047  16.690  17.765  1.00  0.00     0.707 A
HETATM    5  N4  UNL     1       0.310  15.615  18.028  1.00  0.00    -0.022 N
ATOM      6  H4  UNL     1       0.556  15.031  18.827  1.00  0.00     0.203 HD
HETATM    7  C7  UNL     1      -0.751  15.273  17.271  1.00  0.00     0.707 A
HETATM    8  N7  UNL     1      -1.083  16.038  16.217  1.00  0.00    -0.022 N
ATOM      9  H7  UNL     1      -1.882  15.797  15.632  1.00  0.00     0.203 HD
ENDROOT
BRANCH   7  10
HETATM   10  N5  UNL     1      -1.409  14.212  17.601  1.00  0.00    -0.225 N
ATOM     11  H5  UNL     1      -2.242  14.323  18.180  1.00  0.00     0.177 HD
BRANCH  10  12
HETATM   12  C8  UNL     1      -1.036  12.885  17.201  1.00  0.00     0.146 C
BRANCH  12  13
HETATM   13  C9  UNL     1      -2.272  12.262  16.536  1.00  0.00     0.055 A
HETATM   14  C10 UNL     1      -3.212  13.285  15.958  1.00  0.00     0.240 A
HETATM   15  N6  UNL     1      -2.784  12.857  14.632  1.00  0.00    -0.074 N
HETATM   16  C11 UNL     1      -1.946  11.810  15.145  1.00  0.00     0.240 A
ATOM     17  H62 UNL     1      -3.498  12.617  13.944  1.00  0.00     0.277 HD
ATOM     18  H61 UNL     1      -2.371  13.549  14.006  1.00  0.00     0.277 HD
ENDBRANCH  12  13
ENDBRANCH  10  12
ENDBRANCH   7  10
BRANCH   4  19
HETATM   19  N3  UNL     1       2.069  17.060  18.456  1.00  0.00    -0.225 N
ATOM     20  H3  UNL     1       2.854  16.412  18.519  1.00  0.00     0.177 HD
BRANCH  19  21
HETATM   21  C3  UNL     1       2.185  18.315  19.142  1.00  0.00     0.142 C
BRANCH  21  22
HETATM   22  C4  UNL     1       3.682  18.549  19.378  1.00  0.00     0.004 A
HETATM   23  C5  UNL     1       3.930  19.638  20.416  1.00  0.00     0.007 A
HETATM   24  C6  UNL     1       4.285  19.823  18.944  1.00  0.00     0.007 A
ENDBRANCH  21  22
ENDBRANCH  19  21
ENDBRANCH   4  19
BRANCH   1  25
HETATM   25  N1  UNL     1      -0.682  17.845  14.925  1.00  0.00    -0.234 N
ATOM     26  H12 UNL     1       0.066  18.278  14.382  1.00  0.00     0.174 HD
ATOM     27  H11 UNL     1      -1.663  17.969  14.674  1.00  0.00     0.174 HD
ENDBRANCH   1  25
TORSDOF 7
ENDMDL