MODEL 4
REMARK VINA RESULT: -5.945097463      2.994      7.955
REMARK  10 active torsions:
REMARK  status: ('A' for Active; 'I' for Inactive)
REMARK    1  A    between atoms: C2_2  and  C3_3
REMARK    2  A    between atoms: C3_3  and  N1_4
REMARK    3  A    between atoms: N1_4  and  C4_6
REMARK    4  A    between atoms: C4_6  and  N2_8
REMARK    5  A    between atoms: C6_10  and  N3_11
REMARK       I    between atoms: N3_11  and  C7_13
REMARK       I    between atoms: C7_13  and  N4_15
REMARK    6  A    between atoms: N4_15  and  C8_17
REMARK    7  A    between atoms: C8_17  and  C9_18
REMARK    8  A    between atoms: C9_18  and  N5_19
REMARK       I    between atoms: N5_19  and  C10_21
REMARK    9  A    between atoms: C11_26  and  N8_27
REMARK   10  A    between atoms: C12_31  and  C13_32
REMARK       I    between atoms: C13_32  and  N9_34
ROOT
HETATM    1  N2  UNL     1      -0.853  17.148  18.579  1.00  0.00    -0.319 N
HETATM    2  C5  UNL     1       0.539  17.639  18.876  1.00  0.00     0.159 C
HETATM    3  C6  UNL     1       0.737  18.438  17.571  1.00  0.00     0.141 C
HETATM    4  C11 UNL     1      -0.685  18.928  17.222  1.00  0.00     0.263 C
HETATM    5  C12 UNL     1      -1.484  18.396  18.398  1.00  0.00     0.115 C
ENDROOT
BRANCH   3   6
HETATM    6  N3  UNL     1       1.621  19.542  17.772  1.00  0.00    -0.335 N
HETATM    7  C7  UNL     1       2.200  20.251  16.676  1.00  0.00     0.316 C
HETATM    8  O1  UNL     1       1.920  19.892  15.510  1.00  0.00    -0.247 OA
HETATM    9  N4  UNL     1       3.063  21.328  16.903  1.00  0.00    -0.342 N
ATOM     10  H4  UNL     1       3.254  21.593  17.869  1.00  0.00     0.164 HD
ATOM     11  H3  UNL     1       1.845  19.832  18.724  1.00  0.00     0.164 HD
BRANCH   9  12
HETATM   12  C8  UNL     1       3.685  22.072  15.876  1.00  0.00     0.144 C
BRANCH  12  13
HETATM   13  C9  UNL     1       4.974  21.435  15.444  1.00  0.00     0.142 C
BRANCH  13  14
HETATM   14  N5  UNL     1       4.733  20.697  14.215  1.00  0.00    -0.363 N
HETATM   15  C10 UNL     1       5.875  20.358  13.439  1.00  0.00     0.181 C
HETATM   16  N6  UNL     1       6.811  19.686  14.010  1.00  0.00    -0.374 N
HETATM   17  N7  UNL     1       5.910  20.780  12.090  1.00  0.00    -0.064 NA
ATOM     18  H62 UNL     1       6.785  19.382  14.983  1.00  0.00     0.158 HD
ATOM     19  H61 UNL     1       7.630  19.443  13.453  1.00  0.00     0.158 HD
ATOM     20  H5  UNL     1       3.790  20.436  13.924  1.00  0.00     0.162 HD
ENDBRANCH  13  14
ENDBRANCH  12  13
ENDBRANCH   9  12
ENDBRANCH   3   6
BRANCH   4  21
HETATM   21  N8  UNL     1      -1.106  18.438  15.958  1.00  0.00    -0.067 N
ATOM     22  H83 UNL     1      -0.692  17.528  15.753  1.00  0.00     0.275 HD
ATOM     23  H82 UNL     1      -2.089  18.164  15.971  1.00  0.00     0.275 HD
ATOM     24  H81 UNL     1      -0.916  19.111  15.216  1.00  0.00     0.275 HD
ENDBRANCH   4  21
BRANCH   1  25
HETATM   25  C4  UNL     1      -1.120  15.783  18.549  1.00  0.00     0.174 C
HETATM   26  S1  UNL     1      -0.110  14.731  19.413  1.00  0.00    -0.041 SA
BRANCH  25  27
HETATM   27  N1  UNL     1      -2.149  15.093  17.881  1.00  0.00    -0.367 N
ATOM     28  H1  UNL     1      -3.116  15.243  18.167  1.00  0.00     0.161 HD
BRANCH  27  29
HETATM   29  C3  UNL     1      -1.869  14.178  16.799  1.00  0.00     0.121 C
BRANCH  29  30
HETATM   30  C2  UNL     1      -2.085  14.821  15.452  1.00  0.00     0.015 C
HETATM   31  C1  UNL     1      -2.088  13.713  14.422  1.00  0.00     0.006 C
ENDBRANCH  29  30
ENDBRANCH  27  29
ENDBRANCH  25  27
ENDBRANCH   1  25
BRANCH   5  32
HETATM   32  C13 UNL     1      -2.875  18.636  18.440  1.00  0.00     0.266 C
HETATM   33  O2  UNL     1      -3.697  17.676  18.248  1.00  0.00    -0.266 OA
HETATM   34  N9  UNL     1      -3.448  19.899  18.677  1.00  0.00    -0.360 N
HETATM   35  C14 UNL     1      -4.880  20.136  18.708  1.00  0.00     0.149 C
ATOM     36  H9  UNL     1      -2.824  20.690  18.837  1.00  0.00     0.162 HD
ENDBRANCH   5  32
TORSDOF 10
ENDMDL