MODEL 4
REMARK VINA RESULT: -6.206951056      1.627      1.769
REMARK  10 active torsions:
REMARK  status: ('A' for Active; 'I' for Inactive)
REMARK    1  A    between atoms: C3_5  and  N2_6
REMARK       I    between atoms: N2_6  and  C4_8
REMARK       I    between atoms: C4_8  and  N4_12
REMARK    2  A    between atoms: N4_12  and  C5_14
REMARK    3  A    between atoms: N5_18  and  C10_20
REMARK    4  A    between atoms: C10_20  and  C11_21
REMARK    5  A    between atoms: C11_21  and  C12_22
REMARK    6  A    between atoms: C12_22  and  C13_23
REMARK       I    between atoms: C13_23  and  N6_25
REMARK    7  A    between atoms: N6_25  and  N7_27
REMARK    8  A    between atoms: N7_27  and  C14_29
REMARK    9  A    between atoms: C14_29  and  N8_31
REMARK   10  A    between atoms: N8_31  and  N9_33
ROOT
HETATM    1  C1  UNL     1       1.085  22.980  17.792  1.00  0.00     0.188 C
HETATM    2  N1  UNL     1       1.830  21.781  17.453  1.00  0.00    -0.179 N
HETATM    3  C2  UNL     1       3.238  21.664  17.590  1.00  0.00     0.268 C
HETATM    4  O1  UNL     1       4.006  22.241  18.402  1.00  0.00    -0.269 OA
HETATM    5  C3  UNL     1       3.662  20.681  16.541  1.00  0.00     0.221 C
HETATM    6  C8  UNL     1       2.407  19.909  16.291  1.00  0.00     0.300 C
HETATM    7  N5  UNL     1       1.316  20.583  16.956  1.00  0.00     0.015 N
HETATM    8  C9  UNL     1       0.241  20.878  16.031  1.00  0.00     0.302 C
ENDROOT
BRANCH   7   9
HETATM    9  C10 UNL     1       0.755  19.807  18.033  1.00  0.00     0.265 C
BRANCH   9  10
HETATM   10  C11 UNL     1       1.366  18.487  18.243  1.00  0.00     0.039 C
BRANCH  10  11
HETATM   11  C12 UNL     1       0.716  17.794  19.398  1.00  0.00     0.106 C
BRANCH  11  12
HETATM   12  C13 UNL     1      -0.314  16.811  19.030  1.00  0.00     0.236 C
HETATM   13  O2  UNL     1      -1.508  16.926  19.399  1.00  0.00    -0.272 OA
HETATM   14  N6  UNL     1      -0.029  15.667  18.228  1.00  0.00    -0.268 N
ATOM     15  H6  UNL     1       0.925  15.522  17.898  1.00  0.00     0.190 HD
BRANCH  14  16
HETATM   16  N7  UNL     1      -1.002  14.746  17.883  1.00  0.00    -0.273 N
ATOM     17  H7  UNL     1      -1.336  14.131  18.625  1.00  0.00     0.189 HD
BRANCH  16  18
HETATM   18  C14 UNL     1      -1.579  14.572  16.607  1.00  0.00     0.205 C
HETATM   19  S1  UNL     1      -2.553  15.757  15.998  1.00  0.00    -0.038 SA
BRANCH  18  20
HETATM   20  N8  UNL     1      -1.377  13.430  15.796  1.00  0.00    -0.282 N
ATOM     21  H8  UNL     1      -0.565  12.839  15.975  1.00  0.00     0.189 HD
BRANCH  20  22
HETATM   22  N9  UNL     1      -2.249  13.079  14.757  1.00  0.00    -0.343 N
ATOM     23  H92 UNL     1      -3.200  13.446  14.792  1.00  0.00     0.176 HD
ATOM     24  H91 UNL     1      -1.966  12.479  13.982  1.00  0.00     0.176 HD
ENDBRANCH  20  22
ENDBRANCH  18  20
ENDBRANCH  16  18
ENDBRANCH  14  16
ENDBRANCH  11  12
ENDBRANCH  10  11
ENDBRANCH   9  10
ENDBRANCH   7   9
BRANCH   5  25
HETATM   25  N2  UNL     1       4.056  21.443  15.365  1.00  0.00    -0.212 N
HETATM   26  C4  UNL     1       5.368  21.931  15.239  1.00  0.00     0.668 C
HETATM   27  N3  UNL     1       5.715  23.120  15.666  1.00  0.00    -0.235 N
HETATM   28  N4  UNL     1       6.406  21.166  14.640  1.00  0.00    -0.222 N
ATOM     29  H32 UNL     1       4.970  23.668  16.096  1.00  0.00     0.174 HD
ATOM     30  H31 UNL     1       6.667  23.473  15.575  1.00  0.00     0.174 HD
ATOM     31  H4  UNL     1       6.834  20.414  15.179  1.00  0.00     0.178 HD
ATOM     32  H2  UNL     1       3.375  21.625  14.627  1.00  0.00     0.178 HD
BRANCH  28  33
HETATM   33  C5  UNL     1       6.879  21.413  13.298  1.00  0.00     0.099 A
HETATM   34  C6  UNL     1       7.254  20.232  12.437  1.00  0.00     0.028 A
HETATM   35  C7  UNL     1       6.032  21.029  12.128  1.00  0.00     0.028 A
ENDBRANCH  28  33
ENDBRANCH   5  25
TORSDOF 10
ENDMDL