MODEL 1
REMARK VINA RESULT: -6.540807684      0.000      0.000
REMARK  11 active torsions:
REMARK  status: ('A' for Active; 'I' for Inactive)
REMARK    1  A    between atoms: N1_2  and  C3_4
REMARK    2  A    between atoms: N1_2  and  C12_33
REMARK    3  A    between atoms: C3_4  and  C4_5
REMARK    4  A    between atoms: C4_5  and  N2_6
REMARK    5  A    between atoms: N2_6  and  C5_8
REMARK    6  A    between atoms: C5_8  and  N3_10
REMARK    7  A    between atoms: N3_10  and  C6_12
REMARK    8  A    between atoms: C6_12  and  C7_13
REMARK    9  A    between atoms: C7_13  and  N4_14
REMARK       I    between atoms: N4_14  and  C8_16
REMARK       I    between atoms: C8_16  and  N6_20
REMARK   10  A    between atoms: N6_20  and  N7_22
REMARK   11  A    between atoms: C11_28  and  N9_29
ROOT
HETATM    1  C7  UNL     1      -2.935  16.524  16.242  1.00  0.00     0.123 C
ENDROOT
BRANCH   1   2
HETATM    2  C6  UNL     1      -2.809  17.949  16.569  1.00  0.00     0.108 C
BRANCH   2   3
HETATM    3  N3  UNL     1      -1.638  18.618  16.161  1.00  0.00    -0.342 N
ATOM      4  H3  UNL     1      -1.693  19.025  15.228  1.00  0.00     0.167 HD
BRANCH   3   5
HETATM    5  C5  UNL     1      -0.425  18.823  16.798  1.00  0.00     0.171 C
HETATM    6  S1  UNL     1      -0.153  18.714  18.423  1.00  0.00    -0.041 SA
BRANCH   5   7
HETATM    7  N2  UNL     1       0.710  19.260  16.035  1.00  0.00    -0.365 N
ATOM      8  H2  UNL     1       0.991  18.756  15.193  1.00  0.00     0.161 HD
BRANCH   7   9
HETATM    9  C4  UNL     1       1.442  20.407  16.465  1.00  0.00     0.150 C
BRANCH   9  10
HETATM   10  C3  UNL     1       2.909  20.382  16.244  1.00  0.00     0.258 C
BRANCH  10  11
HETATM   11  N1  UNL     1       3.654  21.572  16.400  1.00  0.00    -0.044 N
HETATM   12  C1  UNL     1       4.362  21.790  17.604  1.00  0.00     0.274 C
HETATM   13  C2  UNL     1       2.641  22.665  16.358  1.00  0.00     0.274 C
BRANCH  11  14
HETATM   14  C12 UNL     1       4.422  21.811  15.197  1.00  0.00     0.386 C
HETATM   15  C13 UNL     1       4.403  20.759  14.177  1.00  0.00     0.065 C
HETATM   16  C14 UNL     1       5.712  20.054  14.256  1.00  0.00     0.031 C
HETATM   17  C15 UNL     1       6.608  21.046  14.915  1.00  0.00     0.235 C
HETATM   18  N10 UNL     1       5.810  22.086  15.471  1.00  0.00    -0.046 N
ATOM     19 2H10 UNL     1       6.094  23.010  15.147  1.00  0.00     0.279 HD
ATOM     20 1H10 UNL     1       5.990  22.224  16.466  1.00  0.00     0.279 HD
ENDBRANCH  11  14
ENDBRANCH  10  11
ENDBRANCH   9  10
ENDBRANCH   7   9
ENDBRANCH   5   7
ENDBRANCH   3   5
ENDBRANCH   2   3
ENDBRANCH   1   2
BRANCH   1  21
HETATM   21  N4  UNL     1      -2.038  15.831  15.423  1.00  0.00    -0.200 N
HETATM   22  C8  UNL     1      -2.289  14.417  15.226  1.00  0.00     0.690 C
HETATM   23  N5  UNL     1      -2.989  14.070  14.225  1.00  0.00    -0.233 N
HETATM   24  N6  UNL     1      -1.745  13.516  16.150  1.00  0.00    -0.131 N
ATOM     25  H52 UNL     1      -3.385  14.726  13.552  1.00  0.00     0.174 HD
ATOM     26  H51 UNL     1      -3.166  13.076  14.087  1.00  0.00     0.174 HD
ATOM     27  H6  UNL     1      -1.157  12.753  15.815  1.00  0.00     0.205 HD
ATOM     28  H4  UNL     1      -1.244  16.299  14.984  1.00  0.00     0.183 HD
BRANCH  24  29
HETATM   29  N7  UNL     1      -1.989  13.639  17.516  1.00  0.00    -0.273 N
HETATM   30  C9  UNL     1      -1.195  14.233  18.327  1.00  0.00     0.124 C
HETATM   31  N8  UNL     1       0.049  14.898  18.192  1.00  0.00    -0.374 N
HETATM   32  C11 UNL     1      -1.158  14.526  19.779  1.00  0.00     0.269 C
HETATM   33  C10 UNL     1       0.326  14.592  19.579  1.00  0.00     0.162 C
ATOM     34  H8  UNL     1       0.538  15.384  17.439  1.00  0.00     0.160 HD
ATOM     35  H7  UNL     1      -2.847  13.233  17.891  1.00  0.00     0.189 HD
BRANCH  32  36
HETATM   36  N9  UNL     1      -1.818  15.782  20.071  1.00  0.00    -0.067 N
ATOM     37  H93 UNL     1      -1.335  16.298  20.807  1.00  0.00     0.275 HD
ATOM     38  H92 UNL     1      -1.704  16.453  19.311  1.00  0.00     0.275 HD
ATOM     39  H91 UNL     1      -2.801  15.635  20.298  1.00  0.00     0.275 HD
ENDBRANCH  32  36
ENDBRANCH  24  29
ENDBRANCH   1  21
TORSDOF 11
ENDMDL