MODEL 3
REMARK VINA RESULT: -5.654045654      3.022      5.509
REMARK  7 active torsions:
REMARK  status: ('A' for Active; 'I' for Inactive)
REMARK       I    between atoms: N1_2  and  C2_4
REMARK    1  A    between atoms: C2_4  and  C3_6
REMARK    2  A    between atoms: C3_6  and  C4_7
REMARK    3  A    between atoms: C4_7  and  N2_8
REMARK    4  A    between atoms: C7_13  and  C8_14
REMARK    5  A    between atoms: C8_14  and  C9_15
REMARK    6  A    between atoms: C8_14  and  N4_20
REMARK    7  A    between atoms: C9_15  and  N3_16
REMARK       I    between atoms: N4_20  and  C13_22
REMARK       I    between atoms: C13_22  and  N5_24
ROOT
HETATM    1  C4  UNL     1      -1.507  16.466  18.277  1.00  0.00     0.220 C
HETATM    2  C6  UNL     1      -0.634  17.600  17.872  1.00  0.00     0.078 C
HETATM    3  C7  UNL     1      -0.444  18.689  18.933  1.00  0.00     0.107 C
HETATM    4  C15 UNL     1      -1.750  19.300  19.245  1.00  0.00     0.242 C
HETATM    5  O3  UNL     1      -1.824  20.029  20.260  1.00  0.00    -0.272 OA
HETATM    6  N6  UNL     1      -3.000  19.172  18.528  1.00  0.00    -0.160 N
ATOM      7  H6  UNL     1      -3.578  20.009  18.466  1.00  0.00     0.187 HD
HETATM    8  C16 UNL     1      -3.508  17.996  17.898  1.00  0.00     0.676 C
HETATM    9  N7  UNL     1      -4.641  18.091  17.255  1.00  0.00    -0.235 N
ATOM     10  H71 UNL     1      -5.005  17.251  16.805  1.00  0.00     0.174 HD
ATOM     11  H72 UNL     1      -5.073  19.015  17.257  1.00  0.00     0.174 HD
HETATM   12  N8  UNL     1      -2.904  16.705  17.894  1.00  0.00    -0.191 N
ATOM     13  H8  UNL     1      -3.471  15.906  17.611  1.00  0.00     0.180 HD
ENDROOT
BRANCH   3  14
HETATM   14  C8  UNL     1       0.541  19.667  18.327  1.00  0.00     0.125 C
BRANCH  14  15
HETATM   15  C9  UNL     1       0.453  19.661  16.860  1.00  0.00     0.262 C
BRANCH  15  16
HETATM   16  N3  UNL     1       0.079  20.907  16.224  1.00  0.00    -0.077 N
HETATM   17  C10 UNL     1       0.897  21.334  15.150  1.00  0.00     0.271 C
HETATM   18  C11 UNL     1      -1.276  20.647  15.689  1.00  0.00     0.271 C
HETATM   19  C12 UNL     1      -0.106  21.999  17.156  1.00  0.00     0.271 C
ENDBRANCH  15  16
ENDBRANCH  14  15
BRANCH  14  20
HETATM   20  N4  UNL     1       1.842  19.306  18.850  1.00  0.00    -0.336 N
HETATM   21  C13 UNL     1       2.566  20.223  19.653  1.00  0.00     0.316 C
HETATM   22  O2  UNL     1       2.060  21.341  19.899  1.00  0.00    -0.247 OA
HETATM   23  N5  UNL     1       3.843  19.920  20.189  1.00  0.00    -0.347 N
HETATM   24  C14 UNL     1       4.510  20.913  20.997  1.00  0.00     0.151 C
ATOM     25  H5  UNL     1       4.282  19.018  20.007  1.00  0.00     0.163 HD
ATOM     26  H4  UNL     1       2.238  18.390  18.640  1.00  0.00     0.164 HD
ENDBRANCH  14  20
ENDBRANCH   3  14
BRANCH   1  27
HETATM   27  C3  UNL     1      -1.067  15.220  17.545  1.00  0.00     0.164 C
BRANCH  27  28
HETATM   28  C2  UNL     1      -1.589  15.128  16.168  1.00  0.00     0.221 C
HETATM   29  N1  UNL     1      -1.857  13.850  15.594  1.00  0.00    -0.365 N
HETATM   30  C1  UNL     1      -2.362  13.762  14.259  1.00  0.00     0.149 C
ATOM     31  H1  UNL     1      -1.689  13.002  16.134  1.00  0.00     0.161 HD
HETATM   32  O1  UNL     1      -1.809  16.134  15.469  1.00  0.00    -0.273 OA
ENDBRANCH  27  28
ENDBRANCH   1  27
BRANCH   1  33
HETATM   33  N2  UNL     1      -1.405  16.150  19.690  1.00  0.00    -0.051 N
HETATM   34  C5  UNL     1      -1.126  14.736  19.819  1.00  0.00     0.270 C
ATOM     35  H22 UNL     1      -0.721  16.732  20.174  1.00  0.00     0.279 HD
ATOM     36  H21 UNL     1      -2.229  16.438  20.218  1.00  0.00     0.279 HD
ENDBRANCH   1  33
TORSDOF 7
ENDMDL