MODEL 5
REMARK VINA RESULT: -7.121496459      2.986      5.877
REMARK  9 active torsions:
REMARK  status: ('A' for Active; 'I' for Inactive)
REMARK       I    between atoms: C2_2  and  N1_4
REMARK    1  A    between atoms: N1_4  and  C3_6
REMARK    2  A    between atoms: C3_6  and  C4_7
REMARK       I    between atoms: C4_7  and  N2_9
REMARK    3  A    between atoms: N2_9  and  C5_11
REMARK    4  A    between atoms: C7_13  and  C8_14
REMARK    5  A    between atoms: C8_14  and  N3_15
REMARK    6  A    between atoms: C10_20  and  N4_21
REMARK       I    between atoms: N4_21  and  C11_23
REMARK       I    between atoms: C11_23  and  N5_25
REMARK    7  A    between atoms: N5_25  and  C12_27
REMARK    8  A    between atoms: C12_27  and  C13_28
REMARK    9  A    between atoms: C14_33  and  N8_34
ROOT
HETATM    1  C5  UNL     1       2.745  21.858  21.768  1.00  0.00     0.107 C
HETATM    2  C6  UNL     1       3.681  23.047  22.033  1.00  0.00     0.033 C
HETATM    3  C7  UNL     1       5.013  22.374  22.095  1.00  0.00     0.015 C
HETATM    4  C9  UNL     1       4.943  21.355  20.980  1.00  0.00     0.033 C
HETATM    5  C10 UNL     1       3.483  21.175  20.637  1.00  0.00     0.109 C
ENDROOT
BRANCH   5   6
HETATM    6  N4  UNL     1       3.104  19.818  20.441  1.00  0.00    -0.337 N
HETATM    7  C11 UNL     1       1.982  19.496  19.639  1.00  0.00     0.316 C
HETATM    8  O3  UNL     1       1.330  20.426  19.106  1.00  0.00    -0.247 OA
HETATM    9  N5  UNL     1       1.582  18.150  19.426  1.00  0.00    -0.336 N
ATOM     10  H5  UNL     1       2.108  17.389  19.856  1.00  0.00     0.164 HD
ATOM     11  H4  UNL     1       3.644  19.072  20.879  1.00  0.00     0.164 HD
BRANCH   9  12
HETATM   12  C12 UNL     1       0.430  17.853  18.602  1.00  0.00     0.203 C
BRANCH  12  13
HETATM   13  C13 UNL     1      -0.038  16.446  18.819  1.00  0.00     0.132 A
HETATM   14  N6  UNL     1       0.261  15.654  19.862  1.00  0.00    -0.273 N
HETATM   15  N7  UNL     1      -0.343  14.492  19.684  1.00  0.00    -0.131 N
ATOM     16  H6  UNL     1       0.851  15.905  20.654  1.00  0.00     0.189 HD
HETATM   17  C14 UNL     1      -1.041  14.499  18.534  1.00  0.00     0.693 A
ATOM     18  H7  UNL     1      -0.288  13.703  20.327  1.00  0.00     0.205 HD
HETATM   19  N9  UNL     1      -0.836  15.719  18.017  1.00  0.00    -0.172 N
HETATM   20  C15 UNL     1      -1.391  16.205  16.767  1.00  0.00     0.177 C
BRANCH  17  21
HETATM   21  N8  UNL     1      -1.739  13.519  18.075  1.00  0.00    -0.233 N
ATOM     22  H82 UNL     1      -1.833  13.179  17.118  1.00  0.00     0.174 HD
ATOM     23  H81 UNL     1      -2.333  12.903  18.629  1.00  0.00     0.174 HD
ENDBRANCH  17  21
ENDBRANCH  12  13
ENDBRANCH   9  12
ENDBRANCH   5   6
BRANCH   1  24
HETATM   24  N2  UNL     1       2.589  21.028  22.921  1.00  0.00    -0.353 N
HETATM   25  C4  UNL     1       1.305  20.751  23.455  1.00  0.00     0.235 C
HETATM   26  O2  UNL     1       0.259  21.242  22.908  1.00  0.00    -0.272 OA
ATOM     27  H2  UNL     1       3.415  20.629  23.367  1.00  0.00     0.163 HD
BRANCH  25  28
HETATM   28  C3  UNL     1       1.144  19.899  24.640  1.00  0.00     0.225 C
BRANCH  28  29
HETATM   29  N1  UNL     1      -0.184  19.439  24.891  1.00  0.00    -0.353 N
HETATM   30  C2  UNL     1      -0.689  18.181  24.511  1.00  0.00     0.213 C
HETATM   31  C1  UNL     1      -2.092  17.799  24.824  1.00  0.00     0.117 C
HETATM   32  O1  UNL     1       0.039  17.352  23.900  1.00  0.00    -0.274 OA
ATOM     33  H1  UNL     1      -0.816  20.071  25.383  1.00  0.00     0.162 HD
ENDBRANCH  28  29
ENDBRANCH  25  28
ENDBRANCH   1  24
BRANCH   3  34
HETATM   34  C8  UNL     1       6.158  23.365  21.851  1.00  0.00     0.234 C
BRANCH  34  35
HETATM   35  N3  UNL     1       5.985  23.939  20.529  1.00  0.00    -0.079 N
ATOM     36  H33 UNL     1       5.737  23.242  19.826  1.00  0.00     0.274 HD
ATOM     37  H32 UNL     1       5.143  24.512  20.455  1.00  0.00     0.274 HD
ATOM     38  H31 UNL     1       6.833  24.454  20.293  1.00  0.00     0.274 HD
ENDBRANCH  34  35
ENDBRANCH   3  34
TORSDOF 9
ENDMDL