MODEL 2
REMARK VINA RESULT: -6.194019553      0.891      1.211
REMARK  8 active torsions:
REMARK  status: ('A' for Active; 'I' for Inactive)
REMARK    1  A    between atoms: C2_2  and  N1_3
REMARK       I    between atoms: C3_5  and  N3_7
REMARK    2  A    between atoms: N3_7  and  C4_9
REMARK    3  A    between atoms: C4_9  and  N4_10
REMARK    4  A    between atoms: C4_9  and  C10_21
REMARK       I    between atoms: N4_10  and  C5_12
REMARK    5  A    between atoms: C5_12  and  C6_14
REMARK       I    between atoms: C10_21  and  N6_23
REMARK       I    between atoms: N6_23  and  C11_25
REMARK       I    between atoms: C11_25  and  N8_29
REMARK    6  A    between atoms: N8_29  and  C12_31
REMARK    7  A    between atoms: C12_31  and  C13_32
REMARK    8  A    between atoms: C13_32  and  N9_33
ROOT
HETATM    1  C4  UNL     1       0.016  19.242  18.834  1.00  0.00     0.281 C
ENDROOT
BRANCH   1   2
HETATM    2  N3  UNL     1      -1.101  20.125  18.634  1.00  0.00    -0.336 N
HETATM    3  C3  UNL     1      -2.403  19.714  19.049  1.00  0.00     0.185 C
HETATM    4  N1  UNL     1      -3.413  20.032  18.353  1.00  0.00    -0.365 N
HETATM    5  N2  UNL     1      -2.566  18.954  20.235  1.00  0.00    -0.064 NA
ATOM      6  H1  UNL     1      -3.238  20.578  17.510  1.00  0.00     0.162 HD
ATOM      7  H3  UNL     1      -0.964  21.038  18.199  1.00  0.00     0.164 HD
BRANCH   4   8
HETATM    8  C2  UNL     1      -4.787  19.698  18.635  1.00  0.00     0.118 C
HETATM    9  C1  UNL     1      -5.302  18.609  17.742  1.00  0.00     0.026 C
ENDBRANCH   4   8
ENDBRANCH   1   2
BRANCH   1  10
HETATM   10  N4  UNL     1      -0.248  17.902  18.335  1.00  0.00    -0.330 N
HETATM   11  C5  UNL     1      -0.107  16.736  19.093  1.00  0.00     0.251 C
HETATM   12  O1  UNL     1       0.266  16.705  20.291  1.00  0.00    -0.271 OA
ATOM     13  H4  UNL     1      -0.555  17.807  17.367  1.00  0.00     0.165 HD
BRANCH  11  14
HETATM   14  C6  UNL     1      -0.414  15.428  18.454  1.00  0.00     0.283 C
HETATM   15  N5  UNL     1      -1.442  14.634  19.123  1.00  0.00    -0.057 N
HETATM   16  C7  UNL     1      -1.531  14.053  17.786  1.00  0.00     0.194 A
ATOM     17  H52 UNL     1      -1.286  14.093  19.974  1.00  0.00     0.278 HD
ATOM     18  H51 UNL     1      -2.235  15.032  19.628  1.00  0.00     0.278 HD
HETATM   19  C8  UNL     1      -2.135  14.586  16.620  1.00  0.00     0.043 A
HETATM   20  C9  UNL     1      -1.573  15.603  17.450  1.00  0.00     0.058 A
ENDBRANCH  11  14
ENDBRANCH   1  10
BRANCH   1  21
HETATM   21  C10 UNL     1       1.181  19.742  18.054  1.00  0.00     0.278 C
HETATM   22  O2  UNL     1       2.145  19.004  17.848  1.00  0.00    -0.268 OA
HETATM   23  N6  UNL     1       1.127  21.065  17.575  1.00  0.00    -0.157 N
HETATM   24  C11 UNL     1       2.178  21.630  16.825  1.00  0.00     0.674 C
ATOM     25  H6  UNL     1       0.304  21.631  17.778  1.00  0.00     0.187 HD
HETATM   26  N7  UNL     1       2.094  22.836  16.409  1.00  0.00    -0.235 N
HETATM   27  N8  UNL     1       3.326  20.805  16.550  1.00  0.00    -0.225 N
ATOM     28  H72 UNL     1       1.281  23.421  16.603  1.00  0.00     0.174 HD
ATOM     29  H71 UNL     1       2.855  23.245  15.866  1.00  0.00     0.174 HD
ATOM     30  H8  UNL     1       4.024  20.659  17.280  1.00  0.00     0.177 HD
BRANCH  27  31
HETATM   31  C12 UNL     1       3.502  20.188  15.278  1.00  0.00     0.166 C
BRANCH  31  32
HETATM   32  C13 UNL     1       4.835  20.409  14.680  1.00  0.00     0.256 C
BRANCH  32  33
HETATM   33  N9  UNL     1       4.892  21.217  13.525  1.00  0.00    -0.077 N
HETATM   34  C14 UNL     1       3.686  21.323  12.783  1.00  0.00     0.271 C
HETATM   35  C15 UNL     1       5.950  20.747  12.627  1.00  0.00     0.271 C
HETATM   36  C16 UNL     1       5.291  22.585  13.972  1.00  0.00     0.271 C
ENDBRANCH  32  33
ENDBRANCH  31  32
ENDBRANCH  27  31
ENDBRANCH   1  21
TORSDOF 8
ENDMDL