MODEL 2
REMARK VINA RESULT: -5.608728675      3.023      6.662
REMARK  10 active torsions:
REMARK  status: ('A' for Active; 'I' for Inactive)
REMARK    1  A    between atoms: C2_2  and  C3_3
REMARK    2  A    between atoms: C7_15  and  C8_16
REMARK    3  A    between atoms: C8_16  and  C9_17
REMARK    4  A    between atoms: C8_16  and  C10_20
REMARK    5  A    between atoms: C9_17  and  O2_18
REMARK    6  A    between atoms: C10_20  and  N4_21
REMARK    7  A    between atoms: N4_21  and  C11_23
REMARK    8  A    between atoms: C11_23  and  N5_25
REMARK    9  A    between atoms: N5_25  and  C12_27
REMARK   10  A    between atoms: C15_32  and  O3_33
ROOT
HETATM    1  C3  UNL     1      -1.116  20.623  16.597  1.00  0.00     0.159 C
HETATM    2  N1  UNL     1      -0.660  20.868  17.916  1.00  0.00    -0.348 N
ATOM      3  H1  UNL     1      -0.994  21.712  18.382  1.00  0.00     0.163 HD
HETATM    4  C4  UNL     1       0.215  20.038  18.628  1.00  0.00     0.235 C
HETATM    5  O1  UNL     1      -0.016  19.794  19.864  1.00  0.00    -0.272 OA
HETATM    6  C5  UNL     1       1.423  19.394  18.065  1.00  0.00     0.224 C
HETATM    7  N2  UNL     1       1.464  18.057  18.617  1.00  0.00    -0.366 N
ATOM      8  H2  UNL     1       2.329  17.732  19.048  1.00  0.00     0.161 HD
HETATM    9  C6  UNL     1       0.359  17.190  18.580  1.00  0.00     0.122 C
HETATM   10  N3  UNL     1       0.182  16.422  19.602  1.00  0.00    -0.384 N
ATOM     11  H31 UNL     1      -0.620  15.792  19.576  1.00  0.00     0.157 HD
ATOM     12  H32 UNL     1       0.836  16.503  20.381  1.00  0.00     0.157 HD
HETATM   13  C7  UNL     1      -0.573  17.074  17.471  1.00  0.00     0.083 C
HETATM   14  N6  UNL     1      -0.623  18.049  16.463  1.00  0.00    -0.336 N
ATOM     15  H6  UNL     1       0.032  17.807  15.718  1.00  0.00     0.168 HD
HETATM   16  C15 UNL     1      -1.268  19.231  16.150  1.00  0.00     0.139 C
ENDROOT
BRANCH  13  17
HETATM   17  C8  UNL     1      -1.911  16.444  17.783  1.00  0.00    -0.009 C
BRANCH  17  18
HETATM   18  C9  UNL     1      -2.453  15.511  16.765  1.00  0.00     0.202 C
BRANCH  18  19
HETATM   19  O2  UNL     1      -2.559  16.028  15.479  1.00  0.00    -0.397 OA
ATOM     20  H2  UNL     1      -3.120  15.539  14.888  1.00  0.00     0.209 HD
ENDBRANCH  18  19
ENDBRANCH  17  18
BRANCH  17  21
HETATM   21  C10 UNL     1      -2.898  17.403  18.385  1.00  0.00     0.161 C
BRANCH  21  22
HETATM   22  N4  UNL     1      -4.036  17.700  17.573  1.00  0.00    -0.363 N
ATOM     23  H4  UNL     1      -4.353  17.051  16.852  1.00  0.00     0.162 HD
BRANCH  22  24
HETATM   24  C11 UNL     1      -4.713  18.933  17.803  1.00  0.00     0.168 C
HETATM   25  S1  UNL     1      -4.110  19.947  18.935  1.00  0.00    -0.041 SA
BRANCH  24  26
HETATM   26  N5  UNL     1      -5.876  19.280  17.071  1.00  0.00    -0.363 N
ATOM     27  H5  UNL     1      -5.928  19.112  16.066  1.00  0.00     0.162 HD
BRANCH  26  28
HETATM   28  C12 UNL     1      -6.992  19.879  17.781  1.00  0.00     0.075 C
HETATM   29  C13 UNL     1      -7.876  20.670  16.839  1.00  0.00     0.032 C
HETATM   30  C14 UNL     1      -7.806  18.752  18.372  1.00  0.00     0.032 C
ENDBRANCH  26  28
ENDBRANCH  24  26
ENDBRANCH  22  24
ENDBRANCH  21  22
ENDBRANCH  17  21
ENDBRANCH  13  17
BRANCH  16  31
HETATM   31  O3  UNL     1      -2.234  19.130  15.256  1.00  0.00    -0.348 OA
ATOM     32  H3  UNL     1      -1.887  18.851  14.416  1.00  0.00     0.219 HD
ENDBRANCH  16  31
BRANCH   1  33
HETATM   33  C2  UNL     1      -0.321  21.444  15.560  1.00  0.00     0.029 C
HETATM   34  C1  UNL     1       0.015  22.805  16.105  1.00  0.00     0.007 C
ENDBRANCH   1  33
TORSDOF 10
ENDMDL