MODEL 3
REMARK VINA RESULT: -7.482723866      1.295      1.341
REMARK  6 active torsions:
REMARK  status: ('A' for Active; 'I' for Inactive)
REMARK       I    between atoms: C1_4  and  N2_5
REMARK       I    between atoms: C1_4  and  N6_26
REMARK    1  A    between atoms: N2_5  and  C2_7
REMARK    2  A    between atoms: C2_7  and  C3_8
REMARK    3  A    between atoms: C6_11  and  N3_12
REMARK       I    between atoms: N3_12  and  C7_14
REMARK       I    between atoms: C7_14  and  N4_16
REMARK    4  A    between atoms: N4_16  and  C8_18
REMARK    5  A    between atoms: C8_18  and  C9_19
REMARK    6  A    between atoms: C13_29  and  C14_30
ROOT
HETATM    1  C3  UNL     1       1.672  20.776  16.396  1.00  0.00     0.103 C
HETATM    2  C4  UNL     1       0.240  21.061  16.700  1.00  0.00     0.029 C
HETATM    3  C5  UNL     1      -0.266  20.487  17.989  1.00  0.00     0.037 C
HETATM    4  C6  UNL     1       0.330  19.114  18.291  1.00  0.00     0.178 C
HETATM    5  C10 UNL     1       1.795  19.310  18.357  1.00  0.00     0.240 C
HETATM    6  O4  UNL     1       2.525  18.578  19.055  1.00  0.00    -0.271 OA
HETATM    7  N5  UNL     1       2.372  20.358  17.604  1.00  0.00    -0.353 N
ATOM      8  H5  UNL     1       3.243  20.804  17.894  1.00  0.00     0.163 HD
ENDROOT
BRANCH   1   9
HETATM    9  C2  UNL     1       2.404  21.969  15.835  1.00  0.00     0.163 C
BRANCH   9  10
HETATM   10  N2  UNL     1       3.667  22.193  16.509  1.00  0.00    -0.225 N
HETATM   11  C1  UNL     1       4.849  22.324  15.739  1.00  0.00     0.669 C
HETATM   12  N1  UNL     1       5.729  23.191  16.078  1.00  0.00    -0.235 N
HETATM   13  N6  UNL     1       5.058  21.510  14.609  1.00  0.00    -0.218 N
ATOM     14  H12 UNL     1       5.578  23.781  16.897  1.00  0.00     0.174 HD
ATOM     15  H11 UNL     1       6.580  23.286  15.524  1.00  0.00     0.174 HD
HETATM   16  C11 UNL     1       5.473  20.118  14.656  1.00  0.00     0.142 C
HETATM   17  C15 UNL     1       4.925  21.820  13.200  1.00  0.00     0.155 C
HETATM   18  C12 UNL     1       6.513  20.066  13.557  1.00  0.00     0.036 C
HETATM   19  C13 UNL     1       5.840  20.886  12.461  1.00  0.00     0.095 C
ATOM     20  H2  UNL     1       3.704  22.255  17.526  1.00  0.00     0.177 HD
BRANCH  19  21
HETATM   21  C14 UNL     1       6.914  21.593  11.738  1.00  0.00     0.236 C
HETATM   22  N7  UNL     1       8.260  21.321  12.048  1.00  0.00    -0.062 NA
HETATM   23  O5  UNL     1       6.616  22.426  10.858  1.00  0.00    -0.276 OA
ENDBRANCH  19  21
ENDBRANCH   9  10
ENDBRANCH   1   9
BRANCH   4  24
HETATM   24  N3  UNL     1      -0.041  18.132  17.306  1.00  0.00    -0.330 N
HETATM   25  C7  UNL     1      -1.117  17.240  17.547  1.00  0.00     0.317 C
HETATM   26  O1  UNL     1      -1.749  17.314  18.634  1.00  0.00    -0.247 OA
HETATM   27  N4  UNL     1      -1.447  16.286  16.545  1.00  0.00    -0.333 N
ATOM     28  H4  UNL     1      -0.922  16.257  15.671  1.00  0.00     0.164 HD
ATOM     29  H3  UNL     1       0.475  18.077  16.428  1.00  0.00     0.165 HD
BRANCH  27  30
HETATM   30  C8  UNL     1      -2.525  15.363  16.773  1.00  0.00     0.237 C
BRANCH  30  31
HETATM   31  C9  UNL     1      -2.037  13.987  16.720  1.00  0.00     0.191 C
HETATM   32  O2  UNL     1      -1.877  13.260  17.722  1.00  0.00    -0.647 OA
HETATM   33  O3  UNL     1      -1.733  13.459  15.453  1.00  0.00    -0.647 OA
ENDBRANCH  30  31
ENDBRANCH  27  30
ENDBRANCH   4  24
TORSDOF 6
ENDMDL