MODEL 2
REMARK VINA RESULT: -6.215235329      3.403      8.121
REMARK  7 active torsions:
REMARK  status: ('A' for Active; 'I' for Inactive)
REMARK    1  A    between atoms: N1_2  and  C4_5
REMARK    2  A    between atoms: C4_5  and  C5_6
REMARK    3  A    between atoms: C5_6  and  C6_7
REMARK    4  A    between atoms: C6_7  and  N2_8
REMARK       I    between atoms: N2_8  and  C7_10
REMARK       I    between atoms: C7_10  and  N3_12
REMARK    5  A    between atoms: C9_15  and  N4_16
REMARK       I    between atoms: N4_16  and  C10_18
REMARK    6  A    between atoms: C12_24  and  N7_25
REMARK       I    between atoms: N7_25  and  C13_27
REMARK       I    between atoms: C13_27  and  N9_31
REMARK    7  A    between atoms: N9_31  and  C14_33
ROOT
HETATM    1  N2  UNL     1       1.444  20.479  16.484  1.00  0.00    -0.343 N
ATOM      2  H2  UNL     1       2.206  20.241  17.118  1.00  0.00     0.164 HD
HETATM    3  C7  UNL     1       0.240  19.779  16.592  1.00  0.00     0.326 C
HETATM    4  O1  UNL     1      -0.723  20.045  15.835  1.00  0.00    -0.247 OA
HETATM    5  N3  UNL     1       0.028  18.735  17.546  1.00  0.00    -0.245 N
HETATM    6  C8  UNL     1      -1.161  17.949  17.697  1.00  0.00     0.252 C
HETATM    7  O2  UNL     1      -2.246  18.204  17.119  1.00  0.00    -0.270 OA
HETATM    8  C9  UNL     1      -0.912  16.825  18.616  1.00  0.00     0.180 C
HETATM    9  C11 UNL     1       0.355  17.200  19.312  1.00  0.00     0.083 C
HETATM   10  C12 UNL     1       1.003  18.298  18.502  1.00  0.00     0.216 C
ENDROOT
BRANCH  10  11
HETATM   11  N7  UNL     1       1.453  19.319  19.393  1.00  0.00    -0.205 N
HETATM   12  C13 UNL     1       2.813  19.424  19.752  1.00  0.00     0.670 C
HETATM   13  N8  UNL     1       3.666  18.491  19.552  1.00  0.00    -0.235 N
HETATM   14  N9  UNL     1       3.254  20.622  20.372  1.00  0.00    -0.196 N
ATOM     15  H82 UNL     1       3.349  17.630  19.106  1.00  0.00     0.174 HD
ATOM     16  H81 UNL     1       4.650  18.567  19.811  1.00  0.00     0.174 HD
ATOM     17  H9  UNL     1       3.626  20.561  21.320  1.00  0.00     0.180 HD
ATOM     18  H7  UNL     1       0.779  19.982  19.776  1.00  0.00     0.179 HD
BRANCH  14  19
HETATM   19  C14 UNL     1       3.210  21.903  19.754  1.00  0.00     0.325 A
HETATM   20  C15 UNL     1       4.363  22.806  19.703  1.00  0.00     0.289 A
HETATM   21  N10 UNL     1       3.827  22.193  18.498  1.00  0.00    -0.049 N
ATOM     22 2H10 UNL     1       4.224  21.624  17.750  1.00  0.00     0.279 HD
ATOM     23 1H10 UNL     1       3.491  22.551  17.605  1.00  0.00     0.279 HD
ENDBRANCH  14  19
ENDBRANCH  10  11
BRANCH   8  24
HETATM   24  N4  UNL     1      -0.815  15.584  17.889  1.00  0.00    -0.351 N
HETATM   25  C10 UNL     1      -1.359  14.383  18.431  1.00  0.00     0.182 C
HETATM   26  N5  UNL     1      -1.355  14.144  19.698  1.00  0.00    -0.374 N
HETATM   27  N6  UNL     1      -1.924  13.409  17.570  1.00  0.00    -0.064 NA
ATOM     28  H52 UNL     1      -0.949  14.844  20.318  1.00  0.00     0.158 HD
ATOM     29  H51 UNL     1      -1.744  13.284  20.086  1.00  0.00     0.158 HD
ATOM     30  H4  UNL     1      -0.355  15.565  16.979  1.00  0.00     0.163 HD
ENDBRANCH   8  24
BRANCH   1  31
HETATM   31  C6  UNL     1       1.653  21.515  15.523  1.00  0.00     0.126 C
BRANCH  31  32
HETATM   32  C5  UNL     1       2.574  21.106  14.421  1.00  0.00     0.048 C
BRANCH  32  33
HETATM   33  C4  UNL     1       3.817  20.404  14.957  1.00  0.00     0.237 C
BRANCH  33  34
HETATM   34  N1  UNL     1       4.958  20.955  14.281  1.00  0.00    -0.079 N
HETATM   35  C1  UNL     1       6.113  20.077  14.337  1.00  0.00     0.271 C
HETATM   36  C2  UNL     1       4.616  21.228  12.916  1.00  0.00     0.271 C
HETATM   37  C3  UNL     1       5.319  22.181  14.979  1.00  0.00     0.271 C
ENDBRANCH  33  34
ENDBRANCH  32  33
ENDBRANCH  31  32
ENDBRANCH   1  31
TORSDOF 7
ENDMDL