MODEL 2
REMARK VINA RESULT: -6.227651222      2.153      7.629
REMARK  8 active torsions:
REMARK  status: ('A' for Active; 'I' for Inactive)
REMARK    1  A    between atoms: N1_2  and  C2_3
REMARK    2  A    between atoms: C2_3  and  C3_4
REMARK    3  A    between atoms: C3_4  and  N2_5
REMARK       I    between atoms: N2_5  and  C4_7
REMARK       I    between atoms: C4_7  and  N4_11
REMARK    4  A    between atoms: C6_13  and  N5_14
REMARK       I    between atoms: N5_14  and  C7_16
REMARK    5  A    between atoms: C7_16  and  C8_18
REMARK    6  A    between atoms: C8_18  and  N6_19
REMARK    7  A    between atoms: C9_23  and  C10_24
REMARK    8  A    between atoms: C10_24  and  N7_25
REMARK       I    between atoms: N7_25  and  C11_27
ROOT
HETATM    1  N2  UNL     1       0.089  20.950  18.101  1.00  0.00    -0.225 N
ATOM      2  H2  UNL     1       0.141  21.037  17.086  1.00  0.00     0.177 HD
HETATM    3  C4  UNL     1      -0.927  20.139  18.659  1.00  0.00     0.678 C
HETATM    4  N3  UNL     1      -1.446  20.427  19.828  1.00  0.00    -0.234 N
ATOM      5  H31 UNL     1      -2.179  19.842  20.230  1.00  0.00     0.174 HD
ATOM      6  H32 UNL     1      -1.060  21.258  20.277  1.00  0.00     0.174 HD
HETATM    7  N4  UNL     1      -1.466  18.977  18.032  1.00  0.00    -0.131 N
HETATM    8  C5  UNL     1      -2.511  18.200  18.670  1.00  0.00     0.179 C
HETATM    9  C6  UNL     1      -3.611  18.001  17.648  1.00  0.00     0.128 C
HETATM   10  C9  UNL     1      -3.138  17.320  16.411  1.00  0.00     0.128 C
HETATM   11  N10 UNL     1      -1.940  17.929  15.879  1.00  0.00    -0.334 N
ATOM     12  H10 UNL     1      -1.766  17.928  14.874  1.00  0.00     0.164 HD
HETATM   13  C12 UNL     1      -1.012  18.525  16.764  1.00  0.00     0.337 C
HETATM   14  O2  UNL     1       0.206  18.672  16.475  1.00  0.00    -0.246 OA
ENDROOT
BRANCH   1  15
HETATM   15  C3  UNL     1       1.054  21.662  18.903  1.00  0.00     0.166 C
BRANCH  15  16
HETATM   16  C2  UNL     1       2.440  21.077  18.785  1.00  0.00     0.257 C
BRANCH  16  17
HETATM   17  N1  UNL     1       2.759  20.098  19.769  1.00  0.00    -0.069 N
HETATM   18  C1  UNL     1       2.453  18.723  19.418  1.00  0.00     0.272 C
HETATM   19  C13 UNL     1       4.047  20.171  20.410  1.00  0.00     0.238 C
HETATM   20  C14 UNL     1       3.463  21.123  21.431  1.00  0.00     0.056 C
HETATM   21  C15 UNL     1       2.149  20.499  21.049  1.00  0.00     0.238 C
ENDBRANCH  16  17
ENDBRANCH  15  16
ENDBRANCH   1  15
BRANCH   9  22
HETATM   22  N5  UNL     1      -4.244  19.276  17.388  1.00  0.00    -0.351 N
HETATM   23  C7  UNL     1      -5.621  19.503  17.599  1.00  0.00     0.243 C
HETATM   24  O1  UNL     1      -6.334  18.569  18.029  1.00  0.00    -0.272 OA
ATOM     25  H5  UNL     1      -3.671  20.044  17.037  1.00  0.00     0.163 HD
BRANCH  23  26
HETATM   26  C8  UNL     1      -6.225  20.822  17.319  1.00  0.00     0.332 C
BRANCH  26  27
HETATM   27  N6  UNL     1      -7.542  20.911  17.931  1.00  0.00    -0.071 N
ATOM     28  H63 UNL     1      -8.289  20.771  17.251  1.00  0.00     0.274 HD
ATOM     29  H62 UNL     1      -7.737  20.111  18.533  1.00  0.00     0.274 HD
ATOM     30  H61 UNL     1      -7.639  21.796  18.428  1.00  0.00     0.274 HD
ENDBRANCH  26  27
ENDBRANCH  23  26
ENDBRANCH   9  22
BRANCH  10  31
HETATM   31  C10 UNL     1      -2.772  15.874  16.716  1.00  0.00     0.149 C
BRANCH  31  32
HETATM   32  N7  UNL     1      -2.121  15.318  15.544  1.00  0.00    -0.363 N
HETATM   33  C11 UNL     1      -1.907  13.916  15.505  1.00  0.00     0.181 C
HETATM   34  N8  UNL     1      -2.493  13.219  14.607  1.00  0.00    -0.374 N
HETATM   35  N9  UNL     1      -1.048  13.344  16.471  1.00  0.00    -0.064 NA
ATOM     36  H82 UNL     1      -3.113  13.632  13.910  1.00  0.00     0.158 HD
ATOM     37  H81 UNL     1      -2.340  12.211  14.580  1.00  0.00     0.158 HD
ATOM     38  H7  UNL     1      -1.826  15.916  14.772  1.00  0.00     0.162 HD
ENDBRANCH  31  32
ENDBRANCH  10  31
TORSDOF 8
ENDMDL