MODEL 5
REMARK VINA RESULT: -7.834635441      1.857      3.132
REMARK  3 active torsions:
REMARK  status: ('A' for Active; 'I' for Inactive)
REMARK    1  A    between atoms: C3_3  and  C4_4
REMARK    2  A    between atoms: C4_4  and  S1_5
REMARK    3  A    between atoms: S1_5  and  C6_7
ROOT
HETATM    1  C1  UNL     1      52.394  12.811  55.355  1.00  0.00     0.112 C
HETATM    2  C2  UNL     1      52.491  11.938  54.173  1.00  0.00    -0.110 C
HETATM    3  C3  UNL     1      52.586  11.235  53.199  1.00  0.00    -0.097 C
ENDROOT
BRANCH   3   4
HETATM    4  C4  UNL     1      52.727  10.379  51.997  1.00  0.00     0.163 C
BRANCH   4   5
HETATM    5  S1  UNL     1      54.423  10.547  51.489  1.00  0.00    -0.163 SA
HETATM    6  C5  UNL     1      55.268   9.051  51.932  1.00  0.00     0.086 C
BRANCH   5   7
HETATM    7  C6  UNL     1      55.165  11.962  52.133  1.00  0.00     0.063 A
HETATM    8  C7  UNL     1      55.018  13.232  51.581  1.00  0.00     0.052 A
HETATM    9  C8  UNL     1      55.741  14.149  52.334  1.00  0.00     0.021 A
HETATM   10  C9  UNL     1      56.118  15.464  52.497  1.00  0.00     0.006 A
HETATM   11  C11 UNL     1      56.318  13.402  53.341  1.00  0.00     0.117 A
HETATM   12  C10 UNL     1      56.921  15.514  53.600  1.00  0.00     0.111 A
HETATM   13  C14 UNL     1      55.969  16.810  51.920  1.00  0.00     0.167 A
HETATM   14  N1  UNL     1      57.031  14.255  54.098  1.00  0.00    -0.337 N
HETATM   15  C12 UNL     1      57.319  16.900  53.772  1.00  0.00     0.271 A
ATOM     16  H1  UNL     1      57.572  13.995  54.923  1.00  0.00     0.167 HD
HETATM   17  O1  UNL     1      58.067  17.342  54.693  1.00  0.00    -0.266 OA
HETATM   18  N3  UNL     1      56.739  17.683  52.751  1.00  0.00    -0.347 N
HETATM   19  C13 UNL     1      56.875  19.118  52.546  1.00  0.00     0.153 C
HETATM   20  N2  UNL     1      55.970  12.104  53.215  1.00  0.00    -0.337 N
ATOM     21  H2  UNL     1      56.266  11.350  53.834  1.00  0.00     0.168 HD
ENDBRANCH   5   7
ENDBRANCH   4   5
ENDBRANCH   3   4
TORSDOF 3
ENDMDL