MODEL 4
REMARK VINA RESULT: -7.741046195      2.000      3.371
REMARK  4 active torsions:
REMARK  status: ('A' for Active; 'I' for Inactive)
REMARK    1  A    between atoms: C2_2  and  C3_3
REMARK    2  A    between atoms: C3_3  and  C4_4
REMARK    3  A    between atoms: C15_18  and  N3_19
REMARK    4  A    between atoms: N3_19  and  C16_21
ROOT
HETATM    1  C4  UNL     1      57.747  18.226  53.653  1.00  0.00     0.078 A
HETATM    2  C5  UNL     1      57.831  17.099  54.438  1.00  0.00     0.068 A
HETATM    3  C6  UNL     1      57.319  15.896  54.080  1.00  0.00     0.048 A
HETATM    4  N1  UNL     1      57.176  14.732  54.616  1.00  0.00    -0.355 N
ATOM      5  H1  UNL     1      57.546  14.505  55.539  1.00  0.00     0.166 HD
HETATM    6  C7  UNL     1      56.500  13.835  53.865  1.00  0.00     0.046 A
HETATM    7  C8  UNL     1      56.172  14.518  52.700  1.00  0.00     0.005 A
HETATM    8  C9  UNL     1      56.680  15.791  52.818  1.00  0.00     0.025 A
HETATM    9  C10 UNL     1      56.618  16.895  52.035  1.00  0.00     0.021 A
HETATM   10  C11 UNL     1      56.023  16.749  50.685  1.00  0.00     0.069 C
HETATM   11  N2  UNL     1      57.134  18.111  52.434  1.00  0.00    -0.348 N
HETATM   12  C12 UNL     1      57.008  19.196  51.509  1.00  0.00     0.157 C
HETATM   13  C13 UNL     1      55.151  13.931  51.795  1.00  0.00     0.017 C
HETATM   14  C14 UNL     1      54.601  12.765  52.278  1.00  0.00     0.030 C
HETATM   15  C15 UNL     1      55.026  12.224  53.566  1.00  0.00     0.030 C
HETATM   16  C18 UNL     1      56.212  12.584  53.987  1.00  0.00     0.059 C
ENDROOT
BRANCH  15  17
HETATM   17  N3  UNL     1      54.287  11.385  54.429  1.00  0.00    -0.390 N
ATOM     18  H3  UNL     1      54.821  10.667  54.919  1.00  0.00     0.159 HD
BRANCH  17  19
HETATM   19  C16 UNL     1      52.867  11.417  54.705  1.00  0.00     0.115 C
HETATM   20  C17 UNL     1      52.445  12.760  55.285  1.00  0.00     0.026 C
ENDBRANCH  17  19
ENDBRANCH  15  17
BRANCH   1  21
HETATM   21  C3  UNL     1      57.926  19.333  54.294  1.00  0.00    -0.127 C
BRANCH  21  22
HETATM   22  C2  UNL     1      58.109  20.542  54.965  1.00  0.00     0.083 C
HETATM   23  C1  UNL     1      58.580  21.662  53.954  1.00  0.00     0.017 C
ENDBRANCH  21  22
ENDBRANCH   1  21
TORSDOF 4
ENDMDL