MODEL 2
REMARK VINA RESULT: -7.986956285      1.133      1.305
REMARK  3 active torsions:
REMARK  status: ('A' for Active; 'I' for Inactive)
REMARK    1  A    between atoms: C3_3  and  C4_4
REMARK    2  A    between atoms: C8_8  and  C9_9
REMARK    3  A    between atoms: C12_12  and  C13_13
REMARK       I    between atoms: C13_13  and  N1_15
ROOT
HETATM    1  C1  UNL     1      56.091  16.675  58.765  1.00  0.00     0.112 C
HETATM    2  C2  UNL     1      56.326  16.565  57.316  1.00  0.00    -0.106 C
HETATM    3  C3  UNL     1      56.531  16.461  56.129  1.00  0.00    -0.072 C
ENDROOT
BRANCH   3   4
HETATM    4  C4  UNL     1      56.754  16.330  54.717  1.00  0.00    -0.004 A
HETATM    5  C5  UNL     1      57.645  16.963  53.972  1.00  0.00    -0.010 A
HETATM    6  C6  UNL     1      57.555  16.549  52.563  1.00  0.00     0.034 A
HETATM    7  C7  UNL     1      56.487  15.518  52.484  1.00  0.00     0.003 A
HETATM    8  C8  UNL     1      57.045  14.158  52.107  1.00  0.00    -0.005 C
HETATM    9  C17 UNL     1      55.953  15.403  53.868  1.00  0.00     0.036 A
HETATM   10  C11 UNL     1      56.332  13.169  52.994  1.00  0.00     0.008 C
HETATM   11  C12 UNL     1      54.848  13.079  52.855  1.00  0.00     0.083 C
HETATM   12  C16 UNL     1      56.097  13.980  54.276  1.00  0.00     0.001 C
HETATM   13  C15 UNL     1      54.762  13.243  54.381  1.00  0.00     0.020 C
BRANCH   8  14
HETATM   14  C9  UNL     1      56.848  13.926  50.645  1.00  0.00     0.001 C
HETATM   15  C10 UNL     1      57.234  12.509  50.314  1.00  0.00     0.005 C
ENDBRANCH   8  14
BRANCH  11  16
HETATM   16  C13 UNL     1      54.308  11.748  52.516  1.00  0.00     0.228 C
HETATM   17  O1  UNL     1      53.124  11.590  52.168  1.00  0.00    -0.273 OA
HETATM   18  N1  UNL     1      55.138  10.604  52.580  1.00  0.00    -0.303 N
HETATM   19  C14 UNL     1      54.836   9.485  52.024  1.00  0.00     0.203 C
ATOM     20  H1  UNL     1      56.019  10.671  53.091  1.00  0.00     0.171 HD
HETATM   21  N2  UNL     1      53.632   9.302  51.294  1.00  0.00    -0.066 NA
HETATM   22  N3  UNL     1      55.734   8.396  52.145  1.00  0.00    -0.066 NA
ENDBRANCH  11  16
ENDBRANCH   3   4
TORSDOF 3
ENDMDL