MODEL 4
REMARK VINA RESULT: -7.768056759      2.394      3.393
REMARK  3 active torsions:
REMARK  status: ('A' for Active; 'I' for Inactive)
REMARK       I    between atoms: C3_3  and  N1_5
REMARK    1  A    between atoms: N1_5  and  C4_7
REMARK    2  A    between atoms: C12_15  and  N2_16
REMARK       I    between atoms: N2_16  and  C13_18
REMARK    3  A    between atoms: C13_18  and  C14_20
ROOT
HETATM    1  C1  UNL     1      58.189  22.095  52.253  1.00  0.00     0.022 C
HETATM    2  C2  UNL     1      57.849  21.213  53.004  1.00  0.00    -0.017 C
HETATM    3  C3  UNL     1      57.448  20.150  53.899  1.00  0.00     0.295 C
HETATM    4  O1  UNL     1      57.338  20.461  55.126  1.00  0.00    -0.258 OA
HETATM    5  N1  UNL     1      57.189  18.836  53.435  1.00  0.00    -0.345 N
ATOM      6  H1  UNL     1      57.284  18.614  52.444  1.00  0.00     0.163 HD
ENDROOT
BRANCH   5   7
HETATM    7  C4  UNL     1      56.801  17.838  54.350  1.00  0.00     0.093 C
HETATM    8  C5  UNL     1      57.930  16.863  54.713  1.00  0.00     0.010 C
HETATM    9  C6  UNL     1      58.287  15.993  53.553  1.00  0.00     0.013 C
HETATM   10  C11 UNL     1      57.150  16.039  55.749  1.00  0.00     0.014 C
HETATM   11  C7  UNL     1      57.129  15.275  52.949  1.00  0.00     0.009 C
HETATM   12  C8  UNL     1      56.076  16.312  52.574  1.00  0.00     0.014 C
HETATM   13  C12 UNL     1      56.374  14.524  54.036  1.00  0.00     0.093 C
HETATM   14  C9  UNL     1      55.745  16.878  53.936  1.00  0.00     0.015 C
HETATM   15  C10 UNL     1      55.919  15.694  54.898  1.00  0.00     0.015 C
BRANCH  13  16
HETATM   16  N2  UNL     1      55.307  13.722  53.551  1.00  0.00    -0.355 N
HETATM   17  C13 UNL     1      55.334  12.302  53.661  1.00  0.00     0.225 C
HETATM   18  O2  UNL     1      56.327  11.749  54.200  1.00  0.00    -0.273 OA
ATOM     19  H2  UNL     1      54.503  14.173  53.114  1.00  0.00     0.162 HD
BRANCH  17  20
HETATM   20  C14 UNL     1      54.246  11.437  53.169  1.00  0.00     0.030 C
HETATM   21  C15 UNL     1      53.842  11.866  51.758  1.00  0.00     0.024 C
HETATM   22  C16 UNL     1      54.689   9.987  53.053  1.00  0.00     0.024 C
HETATM   23  C17 UNL     1      53.017  11.556  54.033  1.00  0.00     0.024 C
ENDBRANCH  17  20
ENDBRANCH  13  16
ENDBRANCH   5   7
TORSDOF 3
ENDMDL