MODEL 3
REMARK VINA RESULT: -7.497338748      1.849      6.892
REMARK  3 active torsions:
REMARK  status: ('A' for Active; 'I' for Inactive)
REMARK       I    between atoms: N1_3  and  C3_5
REMARK       I    between atoms: C3_5  and  N3_12
REMARK    1  A    between atoms: N2_6  and  C4_8
REMARK    2  A    between atoms: N3_12  and  C8_14
REMARK    3  A    between atoms: C8_14  and  C9_15
ROOT
HETATM    1  C1  UNL     1      52.966  12.437  54.723  1.00  0.00     0.124 C
HETATM    2  C2  UNL     1      53.105  12.137  53.545  1.00  0.00    -0.059 C
HETATM    3  N1  UNL     1      53.240  11.790  52.201  1.00  0.00    -0.161 N
ATOM      4  H1  UNL     1      52.409  11.694  51.617  1.00  0.00     0.194 HD
HETATM    5  C3  UNL     1      54.525  11.572  51.640  1.00  0.00     0.685 C
HETATM    6  N2  UNL     1      54.920  10.457  51.189  1.00  0.00    -0.217 N
ATOM      7  H2  UNL     1      55.868  10.436  50.812  1.00  0.00     0.178 HD
HETATM    8  N3  UNL     1      55.484  12.668  51.557  1.00  0.00    -0.201 N
ATOM      9  H3  UNL     1      55.477  13.298  50.755  1.00  0.00     0.183 HD
ENDROOT
BRANCH   6  10
HETATM   10  C4  UNL     1      54.199   9.226  51.144  1.00  0.00     0.036 C
HETATM   11  C5  UNL     1      55.164   8.109  50.734  1.00  0.00     0.038 C
HETATM   12  C6  UNL     1      53.078   9.242  50.122  1.00  0.00     0.038 C
HETATM   13  C7  UNL     1      53.597   8.816  52.460  1.00  0.00     0.038 C
ENDBRANCH   6  10
BRANCH   8  14
HETATM   14  C8  UNL     1      56.434  12.849  52.610  1.00  0.00     0.119 C
BRANCH  14  15
HETATM   15  C9  UNL     1      56.536  14.190  53.146  1.00  0.00     0.003 A
HETATM   16  C10 UNL     1      56.719  14.445  54.470  1.00  0.00     0.023 A
HETATM   17  C11 UNL     1      56.808  15.779  54.902  1.00  0.00    -0.045 A
HETATM   18  C12 UNL     1      57.009  15.998  56.373  1.00  0.00     0.049 C
HETATM   19  C13 UNL     1      56.715  16.815  54.022  1.00  0.00     0.097 A
HETATM   20  N4  UNL     1      56.535  16.525  52.720  1.00  0.00    -0.363 N
HETATM   21  C14 UNL     1      56.434  17.639  51.766  1.00  0.00     0.155 C
HETATM   22  C15 UNL     1      56.445  15.275  52.270  1.00  0.00     0.018 A
HETATM   23  C16 UNL     1      56.248  15.019  50.829  1.00  0.00     0.069 C
ENDBRANCH  14  15
ENDBRANCH   8  14
TORSDOF 3
ENDMDL