MODEL 4
REMARK VINA RESULT: -6.974022052      1.981      7.882
REMARK  6 active torsions:
REMARK  status: ('A' for Active; 'I' for Inactive)
REMARK    1  A    between atoms: N2_9  and  C7_11
REMARK    2  A    between atoms: C7_11  and  N3_13
REMARK    3  A    between atoms: N3_13  and  C8_15
REMARK    4  A    between atoms: C8_15  and  C9_16
REMARK    5  A    between atoms: C10_17  and  C11_18
REMARK    6  A    between atoms: C11_18  and  N4_19
ROOT
HETATM    1  C1  UNL     1      60.368  18.398  54.346  1.00  0.00     0.048 C
HETATM    2  C2  UNL     1      59.065  18.915  53.823  1.00  0.00    -0.057 A
HETATM    3  C3  UNL     1      58.871  20.262  53.658  1.00  0.00     0.031 A
HETATM    4  C4  UNL     1      57.640  20.679  53.166  1.00  0.00     0.007 A
HETATM    5  C5  UNL     1      57.450  22.143  52.993  1.00  0.00     0.068 C
HETATM    6  N1  UNL     1      56.662  19.823  52.857  1.00  0.00    -0.346 N
ATOM      7  H1  UNL     1      55.774  20.178  52.500  1.00  0.00     0.167 HD
HETATM    8  C6  UNL     1      56.835  18.506  53.011  1.00  0.00     0.107 A
HETATM    9  N2  UNL     1      55.885  17.700  52.706  1.00  0.00    -0.319 N
ATOM     10  H2  UNL     1      55.019  18.109  52.352  1.00  0.00     0.169 HD
HETATM   11  C14 UNL     1      58.050  18.047  53.499  1.00  0.00     0.055 A
ENDROOT
BRANCH   9  12
HETATM   12  C7  UNL     1      55.938  16.302  52.818  1.00  0.00     0.173 C
HETATM   13  S1  UNL     1      56.102  15.472  51.393  1.00  0.00    -0.041 SA
BRANCH  12  14
HETATM   14  N3  UNL     1      55.861  15.557  54.017  1.00  0.00    -0.357 N
ATOM     15  H3  UNL     1      55.053  15.664  54.631  1.00  0.00     0.162 HD
BRANCH  14  16
HETATM   16  C8  UNL     1      56.910  14.657  54.372  1.00  0.00     0.216 C
BRANCH  16  17
HETATM   17  C9  UNL     1      56.536  13.292  54.012  1.00  0.00    -0.085 C
HETATM   18  C10 UNL     1      56.223  12.191  53.698  1.00  0.00    -0.086 C
BRANCH  18  19
HETATM   19  C11 UNL     1      55.842  10.821  53.278  1.00  0.00     0.210 C
BRANCH  19  20
HETATM   20  N4  UNL     1      55.842  10.797  51.848  1.00  0.00    -0.411 N
HETATM   21  C12 UNL     1      57.110  10.870  51.241  1.00  0.00     0.143 C
HETATM   22  C13 UNL     1      54.755  11.424  51.204  1.00  0.00     0.143 C
ENDBRANCH  19  20
ENDBRANCH  18  19
ENDBRANCH  16  17
ENDBRANCH  14  16
ENDBRANCH  12  14
ENDBRANCH   9  12
TORSDOF 6
ENDMDL