MODEL 5
REMARK VINA RESULT: -6.878619006      1.659      3.012
REMARK  5 active torsions:
REMARK  status: ('A' for Active; 'I' for Inactive)
REMARK    1  A    between atoms: C2_2  and  N5_20
REMARK    2  A    between atoms: N1_3  and  N2_5
REMARK    3  A    between atoms: N2_5  and  C3_7
REMARK    4  A    between atoms: C3_7  and  N3_9
REMARK    5  A    between atoms: N3_9  and  N4_11
ROOT
HETATM    1  C3  UNL     1      56.396  13.134  53.276  1.00  0.00     0.205 C
HETATM    2  S1  UNL     1      57.436  12.600  52.174  1.00  0.00    -0.038 SA
ENDROOT
BRANCH   1   3
HETATM    3  N2  UNL     1      55.767  12.078  54.051  1.00  0.00    -0.274 N
ATOM      4  H2  UNL     1      56.360  11.404  54.535  1.00  0.00     0.189 HD
BRANCH   3   5
HETATM    5  N1  UNL     1      54.397  11.954  54.157  1.00  0.00    -0.287 N
HETATM    6  C2  UNL     1      53.657  11.226  53.409  1.00  0.00     0.089 C
HETATM    7  C1  UNL     1      52.190  11.211  53.664  1.00  0.00     0.090 C
ATOM      8  H1  UNL     1      53.935  12.489  54.893  1.00  0.00     0.188 HD
BRANCH   6   9
HETATM    9  N5  UNL     1      54.139  10.423  52.340  1.00  0.00    -0.379 N
HETATM   10  C12 UNL     1      54.247  11.019  51.003  1.00  0.00     0.150 C
HETATM   11  C13 UNL     1      54.530   9.040  52.504  1.00  0.00     0.150 C
ENDBRANCH   6   9
ENDBRANCH   3   5
ENDBRANCH   1   3
BRANCH   1  12
HETATM   12  N3  UNL     1      55.972  14.425  53.463  1.00  0.00    -0.268 N
ATOM     13  H3  UNL     1      54.964  14.446  53.620  1.00  0.00     0.190 HD
BRANCH  12  14
HETATM   14  N4  UNL     1      56.482  15.687  53.504  1.00  0.00    -0.263 N
HETATM   15  C4  UNL     1      56.361  16.387  52.308  1.00  0.00     0.031 A
HETATM   16  C5  UNL     1      55.782  15.681  51.111  1.00  0.00     0.070 C
HETATM   17  C6  UNL     1      56.760  17.690  52.179  1.00  0.00     0.033 A
HETATM   18  C7  UNL     1      57.305  18.377  53.235  1.00  0.00    -0.058 A
HETATM   19  C8  UNL     1      57.750  19.787  53.123  1.00  0.00     0.048 C
HETATM   20  C9  UNL     1      57.428  17.711  54.409  1.00  0.00     0.033 A
HETATM   21  C10 UNL     1      57.008  16.379  54.509  1.00  0.00     0.031 A
HETATM   22  C11 UNL     1      57.070  15.829  55.886  1.00  0.00     0.070 C
ENDBRANCH  12  14
ENDBRANCH   1  12
TORSDOF 5
ENDMDL