MODEL 2
REMARK VINA RESULT: -8.925340422      2.736      8.441
REMARK  4 active torsions:
REMARK  status: ('A' for Active; 'I' for Inactive)
REMARK    1  A    between atoms: C3_3  and  C4_4
REMARK    2  A    between atoms: C6_6  and  N1_7
REMARK       I    between atoms: N1_7  and  C7_9
REMARK    3  A    between atoms: C7_9  and  C8_11
REMARK    4  A    between atoms: C8_11  and  C9_12
ROOT
HETATM    1  C1  UNL     1      58.351  22.551  53.363  1.00  0.00     0.112 C
HETATM    2  C2  UNL     1      57.898  21.145  53.217  1.00  0.00    -0.104 C
HETATM    3  C3  UNL     1      57.507  20.018  53.077  1.00  0.00    -0.048 C
ENDROOT
BRANCH   3   4
HETATM    4  C4  UNL     1      57.028  18.657  52.869  1.00  0.00     0.104 A
HETATM    5  C5  UNL     1      57.237  17.573  53.673  1.00  0.00     0.090 A
HETATM    6  C6  UNL     1      56.632  16.460  53.061  1.00  0.00     0.125 A
HETATM    7  N2  UNL     1      56.083  16.901  51.921  1.00  0.00    -0.284 N
HETATM    8  N3  UNL     1      56.315  18.202  51.805  1.00  0.00    -0.291 N
ATOM      9  H2  UNL     1      55.570  16.328  51.251  1.00  0.00     0.188 HD
ATOM     10  H3  UNL     1      56.002  18.780  51.026  1.00  0.00     0.188 HD
BRANCH   6  11
HETATM   11  N1  UNL     1      56.686  15.334  53.593  1.00  0.00    -0.308 N
HETATM   12  C7  UNL     1      56.744  14.040  53.018  1.00  0.00     0.247 C
HETATM   13  O1  UNL     1      57.069  13.997  51.811  1.00  0.00    -0.268 OA
ATOM     14  H1  UNL     1      56.688  15.345  54.613  1.00  0.00     0.170 HD
BRANCH  12  15
HETATM   15  C8  UNL     1      56.448  12.887  53.781  1.00  0.00     0.087 C
BRANCH  15  16
HETATM   16  C9  UNL     1      55.895  11.654  53.328  1.00  0.00    -0.019 A
HETATM   17  C10 UNL     1      56.529  10.615  52.715  1.00  0.00    -0.051 A
HETATM   18  C11 UNL     1      57.943  10.726  52.384  1.00  0.00     0.049 C
HETATM   19  C12 UNL     1      55.796   9.452  52.397  1.00  0.00     0.014 A
HETATM   20  C13 UNL     1      54.465   9.313  52.677  1.00  0.00    -0.061 A
HETATM   21  C14 UNL     1      53.748   8.046  52.336  1.00  0.00     0.048 C
HETATM   22  C15 UNL     1      53.829  10.355  53.288  1.00  0.00     0.014 A
HETATM   23  C16 UNL     1      54.516  11.498  53.608  1.00  0.00    -0.051 A
HETATM   24  C17 UNL     1      53.755  12.590  54.250  1.00  0.00     0.049 C
ENDBRANCH  15  16
ENDBRANCH  12  15
ENDBRANCH   6  11
ENDBRANCH   3   4
TORSDOF 4
ENDMDL