MODEL 4
REMARK VINA RESULT: -7.562134885      1.128      1.675
REMARK  11 active torsions:
REMARK  status: ('A' for Active; 'I' for Inactive)
REMARK    1  A    between atoms: N1_2  and  C2_3
REMARK    2  A    between atoms: C2_3  and  C3_4
REMARK    3  A    between atoms: C3_4  and  C4_5
REMARK    4  A    between atoms: C4_5  and  C5_6
REMARK    5  A    between atoms: C5_6  and  C6_7
REMARK    6  A    between atoms: C6_7  and  C7_8
REMARK    7  A    between atoms: C7_8  and  C8_9
REMARK    8  A    between atoms: C8_9  and  C9_10
REMARK    9  A    between atoms: C9_10  and  C10_11
REMARK   10  A    between atoms: C10_11  and  C11_12
REMARK   11  A    between atoms: C12_13  and  C13_14
ROOT
HETATM    1  C4  UNL     1      55.689  14.441  52.567  1.00  0.00     0.002 C
ENDROOT
BRANCH   1   2
HETATM    2  C3  UNL     1      55.238  13.163  51.910  1.00  0.00     0.028 C
BRANCH   2   3
HETATM    3  C2  UNL     1      55.507  11.943  52.774  1.00  0.00     0.237 C
BRANCH   3   4
HETATM    4  N1  UNL     1      54.295  11.113  52.804  1.00  0.00    -0.071 N
HETATM    5  C1  UNL     1      54.003  10.625  51.463  1.00  0.00     0.272 C
HETATM    6  C14 UNL     1      53.172  11.935  53.200  1.00  0.00     0.237 C
HETATM    7  C15 UNL     1      53.116  12.191  54.672  1.00  0.00     0.028 C
HETATM    8  C16 UNL     1      52.244  11.209  55.413  1.00  0.00     0.002 C
HETATM    9  C17 UNL     1      52.798   9.814  55.389  1.00  0.00     0.002 C
HETATM   10  C18 UNL     1      53.179   9.360  53.990  1.00  0.00     0.028 C
HETATM   11  C19 UNL     1      54.521   9.999  53.670  1.00  0.00     0.237 C
ENDBRANCH   3   4
ENDBRANCH   2   3
ENDBRANCH   1   2
BRANCH   1  12
HETATM   12  C5  UNL     1      56.335  14.190  53.913  1.00  0.00     0.000 C
BRANCH  12  13
HETATM   13  C6  UNL     1      55.661  14.925  55.021  1.00  0.00     0.000 C
BRANCH  13  14
HETATM   14  C7  UNL     1      56.640  15.707  55.865  1.00  0.00     0.000 C
BRANCH  14  15
HETATM   15  C8  UNL     1      57.843  16.136  55.078  1.00  0.00     0.001 C
BRANCH  15  16
HETATM   16  C9  UNL     1      57.873  17.614  54.810  1.00  0.00     0.012 C
BRANCH  16  17
HETATM   17  C10 UNL     1      57.086  17.876  53.538  1.00  0.00     0.094 C
BRANCH  17  18
HETATM   18  C11 UNL     1      57.130  19.323  53.249  1.00  0.00    -0.097 C
HETATM   19  C12 UNL     1      57.156  20.512  53.030  1.00  0.00    -0.009 C
BRANCH  19  20
HETATM   20  C13 UNL     1      57.172  21.928  52.790  1.00  0.00     0.309 C
HETATM   21  N2  UNL     1      56.155  22.747  53.342  1.00  0.00    -0.049 NA
HETATM   22  O1  UNL     1      58.071  22.492  52.094  1.00  0.00    -0.262 OA
ENDBRANCH  19  20
ENDBRANCH  17  18
ENDBRANCH  16  17
ENDBRANCH  15  16
ENDBRANCH  14  15
ENDBRANCH  13  14
ENDBRANCH  12  13
ENDBRANCH   1  12
TORSDOF 11
ENDMDL