MODEL 3
REMARK VINA RESULT: -7.772908290      1.623      2.690
REMARK  10 active torsions:
REMARK  status: ('A' for Active; 'I' for Inactive)
REMARK    1  A    between atoms: C3_3  and  C4_4
REMARK    2  A    between atoms: C4_4  and  C5_5
REMARK    3  A    between atoms: C5_5  and  C6_6
REMARK    4  A    between atoms: C6_6  and  C7_7
REMARK    5  A    between atoms: C7_7  and  C8_8
REMARK    6  A    between atoms: N1_11  and  C11_12
REMARK    7  A    between atoms: C11_12  and  C12_13
REMARK    8  A    between atoms: C12_13  and  N2_14
REMARK    9  A    between atoms: N2_14  and  C13_16
REMARK   10  A    between atoms: C13_16  and  C14_17
ROOT
HETATM    1  C1  UNL     1      57.587  20.619  53.916  1.00  0.00     0.112 C
HETATM    2  C2  UNL     1      57.851  19.248  54.346  1.00  0.00    -0.111 C
HETATM    3  C3  UNL     1      58.080  18.110  54.683  1.00  0.00    -0.107 C
ENDROOT
BRANCH   3   4
HETATM    4  C4  UNL     1      58.380  16.714  55.074  1.00  0.00     0.094 C
BRANCH   4   5
HETATM    5  C5  UNL     1      57.190  16.173  55.800  1.00  0.00     0.012 C
BRANCH   5   6
HETATM    6  C6  UNL     1      56.430  15.121  55.059  1.00  0.00     0.001 C
BRANCH   6   7
HETATM    7  C7  UNL     1      56.910  14.914  53.649  1.00  0.00     0.005 C
BRANCH   7   8
HETATM    8  C8  UNL     1      56.128  13.813  52.951  1.00  0.00    -0.007 C
HETATM    9  C9  UNL     1      57.060  13.071  52.059  1.00  0.00     0.033 C
HETATM   10  C10 UNL     1      56.570  11.752  51.581  1.00  0.00     0.238 C
HETATM   11  N1  UNL     1      55.424  11.280  52.343  1.00  0.00    -0.065 N
HETATM   12  C17 UNL     1      54.269  12.145  52.077  1.00  0.00     0.238 C
HETATM   13  C20 UNL     1      55.760  11.460  53.732  1.00  0.00     0.242 C
HETATM   14  C18 UNL     1      53.950  12.844  53.403  1.00  0.00     0.034 C
HETATM   15  C19 UNL     1      55.395  12.941  53.927  1.00  0.00     0.017 C
BRANCH  11  16
HETATM   16  C11 UNL     1      55.019   9.966  51.978  1.00  0.00     0.256 C
BRANCH  16  17
HETATM   17  C12 UNL     1      53.738   9.821  51.256  1.00  0.00     0.142 C
BRANCH  17  18
HETATM   18  N2  UNL     1      52.880   8.880  51.887  1.00  0.00    -0.419 N
ATOM     19  H2  UNL     1      52.023   8.551  51.441  1.00  0.00     0.153 HD
BRANCH  18  20
HETATM   20  C13 UNL     1      53.279   8.420  53.178  1.00  0.00     0.118 C
BRANCH  20  21
HETATM   21  C14 UNL     1      52.246   8.771  54.239  1.00  0.00     0.003 A
HETATM   22  C15 UNL     1      52.628   9.572  55.400  1.00  0.00     0.007 A
HETATM   23  C16 UNL     1      51.861  10.281  54.294  1.00  0.00     0.007 A
ENDBRANCH  20  21
ENDBRANCH  18  20
ENDBRANCH  17  18
ENDBRANCH  16  17
ENDBRANCH  11  16
ENDBRANCH   7   8
ENDBRANCH   6   7
ENDBRANCH   5   6
ENDBRANCH   4   5
ENDBRANCH   3   4
TORSDOF 10
ENDMDL