MODEL 3
REMARK VINA RESULT: -7.879283829      3.423      5.191
REMARK  9 active torsions:
REMARK  status: ('A' for Active; 'I' for Inactive)
REMARK    1  A    between atoms: N1_2  and  C2_3
REMARK    2  A    between atoms: C2_3  and  C3_4
REMARK    3  A    between atoms: C3_4  and  C4_5
REMARK    4  A    between atoms: C4_5  and  C5_6
REMARK    5  A    between atoms: C5_6  and  N2_7
REMARK       I    between atoms: N2_7  and  C6_9
REMARK    6  A    between atoms: C6_9  and  C7_11
REMARK    7  A    between atoms: C7_11  and  C8_12
REMARK    8  A    between atoms: C8_12  and  C9_13
REMARK    9  A    between atoms: C9_13  and  C10_14
ROOT
HETATM    1  N2  UNL     1      56.722  14.546  53.787  1.00  0.00    -0.361 N
ATOM      2  H2  UNL     1      57.401  14.654  53.033  1.00  0.00     0.162 HD
HETATM    3  C6  UNL     1      56.822  15.386  54.922  1.00  0.00     0.217 C
HETATM    4  O1  UNL     1      55.980  15.233  55.841  1.00  0.00    -0.274 OA
ENDROOT
BRANCH   1   5
HETATM    5  C5  UNL     1      55.706  13.557  53.661  1.00  0.00     0.122 C
BRANCH   5   6
HETATM    6  C4  UNL     1      54.841  13.626  52.452  1.00  0.00     0.021 C
BRANCH   6   7
HETATM    7  C3  UNL     1      54.457  12.318  51.869  1.00  0.00     0.029 C
BRANCH   7   8
HETATM    8  C2  UNL     1      53.295  11.599  52.405  1.00  0.00     0.237 C
BRANCH   8   9
HETATM    9  N1  UNL     1      53.433  10.598  53.376  1.00  0.00    -0.071 N
HETATM   10  C1  UNL     1      54.698   9.898  53.230  1.00  0.00     0.272 C
HETATM   11  C16 UNL     1      52.426   9.562  53.072  1.00  0.00     0.237 C
HETATM   12  C17 UNL     1      52.164   8.836  54.344  1.00  0.00     0.029 C
HETATM   13  C18 UNL     1      52.549   9.781  55.444  1.00  0.00     0.029 C
HETATM   14  C19 UNL     1      53.258  10.930  54.750  1.00  0.00     0.237 C
ENDBRANCH   8   9
ENDBRANCH   7   8
ENDBRANCH   6   7
ENDBRANCH   5   6
ENDBRANCH   1   5
BRANCH   3  15
HETATM   15  C7  UNL     1      57.860  16.416  55.063  1.00  0.00     0.103 C
BRANCH  15  16
HETATM   16  C8  UNL     1      57.470  17.672  54.355  1.00  0.00     0.010 C
BRANCH  16  17
HETATM   17  C9  UNL     1      58.519  18.734  54.440  1.00  0.00     0.005 C
BRANCH  17  18
HETATM   18  C10 UNL     1      57.854  20.105  54.436  1.00  0.00    -0.014 C
HETATM   19  C11 UNL     1      58.961  21.123  54.363  1.00  0.00     0.004 C
HETATM   20  C12 UNL     1      58.510  22.502  53.996  1.00  0.00     0.000 C
HETATM   21  C13 UNL     1      57.756  22.424  52.675  1.00  0.00     0.000 C
HETATM   22  C14 UNL     1      56.529  21.598  52.892  1.00  0.00     0.000 C
HETATM   23  C15 UNL     1      56.937  20.197  53.267  1.00  0.00     0.004 C
ENDBRANCH  17  18
ENDBRANCH  16  17
ENDBRANCH  15  16
ENDBRANCH   3  15
TORSDOF 9
ENDMDL