MODEL 2
REMARK VINA RESULT: -8.620069057      1.822      2.702
REMARK  9 active torsions:
REMARK  status: ('A' for Active; 'I' for Inactive)
REMARK    1  A    between atoms: C4_4  and  C5_5
REMARK    2  A    between atoms: C5_5  and  C6_6
REMARK    3  A    between atoms: C6_6  and  C7_7
REMARK    4  A    between atoms: C7_7  and  C8_8
REMARK    5  A    between atoms: C8_8  and  C9_9
REMARK    6  A    between atoms: C9_9  and  C10_10
REMARK    7  A    between atoms: C11_11  and  N1_12
REMARK    8  A    between atoms: C11_11  and  C12_17
REMARK    9  A    between atoms: C17_22  and  C18_23
ROOT
HETATM    1  C10 UNL     1      57.145  15.333  54.578  1.00  0.00     0.000 C
HETATM    2  C11 UNL     1      56.363  14.933  53.429  1.00  0.00     0.026 C
ENDROOT
BRANCH   2   3
HETATM    3  N1  UNL     1      56.095  15.600  52.400  1.00  0.00    -0.311 N
HETATM    4  N2  UNL     1      55.554  16.534  51.746  1.00  0.00    -0.345 N
ATOM      5  H22 UNL     1      55.054  17.004  52.500  1.00  0.00     0.176 HD
ATOM      6  H21 UNL     1      55.337  17.076  50.909  1.00  0.00     0.176 HD
ATOM      7  H1  UNL     1      56.612  15.100  51.676  1.00  0.00     0.186 HD
ENDBRANCH   2   3
BRANCH   2   8
HETATM    8  C12 UNL     1      55.874  13.493  53.391  1.00  0.00     0.049 C
HETATM    9  C13 UNL     1      54.550  13.396  54.097  1.00  0.00     0.011 C
HETATM   10  C14 UNL     1      54.046  11.974  54.050  1.00  0.00     0.001 C
HETATM   11  C15 UNL     1      53.953  11.434  52.648  1.00  0.00     0.001 C
HETATM   12  C16 UNL     1      54.304  12.538  51.684  1.00  0.00     0.014 C
HETATM   13  C17 UNL     1      55.667  13.129  51.948  1.00  0.00     0.085 C
BRANCH  13  14
HETATM   14  C18 UNL     1      56.750  12.243  51.435  1.00  0.00     0.236 C
HETATM   15  N3  UNL     1      57.298  11.203  52.206  1.00  0.00    -0.062 NA
HETATM   16  O1  UNL     1      57.201  12.415  50.274  1.00  0.00    -0.276 OA
ENDBRANCH  13  14
ENDBRANCH   2   8
BRANCH   1  17
HETATM   17  C9  UNL     1      57.344  16.712  55.024  1.00  0.00     0.029 C
BRANCH  17  18
HETATM   18  C8  UNL     1      58.613  17.376  54.722  1.00  0.00     0.004 C
BRANCH  18  19
HETATM   19  C7  UNL     1      58.661  18.760  54.289  1.00  0.00     0.000 C
BRANCH  19  20
HETATM   20  C6  UNL     1      57.764  19.076  53.110  1.00  0.00     0.000 C
BRANCH  20  21
HETATM   21  C5  UNL     1      56.730  20.086  53.561  1.00  0.00     0.005 C
BRANCH  21  22
HETATM   22  C4  UNL     1      56.738  21.260  52.598  1.00  0.00    -0.010 A
HETATM   23  C2  UNL     1      57.590  22.435  52.834  1.00  0.00    -0.014 A
HETATM   24  C1  UNL     1      58.632  22.474  53.916  1.00  0.00     0.010 C
HETATM   25  C3  UNL     1      56.133  22.537  53.180  1.00  0.00     0.009 A
ENDBRANCH  21  22
ENDBRANCH  20  21
ENDBRANCH  19  20
ENDBRANCH  18  19
ENDBRANCH  17  18
ENDBRANCH   1  17
TORSDOF 9
ENDMDL