MODEL 1
REMARK VINA RESULT: -8.078616053      0.000      0.000
REMARK  9 active torsions:
REMARK  status: ('A' for Active; 'I' for Inactive)
REMARK    1  A    between atoms: C2_2  and  C3_3
REMARK    2  A    between atoms: C3_3  and  C4_4
REMARK    3  A    between atoms: C4_4  and  C5_5
REMARK    4  A    between atoms: C5_5  and  C6_6
REMARK    5  A    between atoms: C6_6  and  N1_7
REMARK    6  A    between atoms: N1_7  and  C7_8
REMARK    7  A    between atoms: C7_8  and  C8_9
REMARK    8  A    between atoms: C8_9  and  N2_10
REMARK       I    between atoms: N2_10  and  C9_12
REMARK    9  A    between atoms: C9_12  and  C10_14
ROOT
HETATM    1  C7  UNL     1      56.468  15.403  51.577  1.00  0.00     0.257 C
ENDROOT
BRANCH   1   2
HETATM    2  N1  UNL     1      56.262  14.217  52.428  1.00  0.00    -0.066 N
HETATM    3  C16 UNL     1      54.894  13.819  52.416  1.00  0.00     0.237 C
HETATM    4  C17 UNL     1      54.768  12.539  51.627  1.00  0.00     0.029 C
HETATM    5  C18 UNL     1      56.162  12.112  51.309  1.00  0.00     0.029 C
HETATM    6  C19 UNL     1      57.068  13.125  51.921  1.00  0.00     0.237 C
BRANCH   2   7
HETATM    7  C6  UNL     1      56.803  14.582  53.703  1.00  0.00     0.237 C
BRANCH   7   8
HETATM    8  C5  UNL     1      55.942  14.300  54.889  1.00  0.00     0.028 C
BRANCH   8   9
HETATM    9  C4  UNL     1      55.685  15.627  55.580  1.00  0.00     0.002 C
BRANCH   9  10
HETATM   10  C3  UNL     1      56.865  16.098  56.388  1.00  0.00    -0.000 C
BRANCH  10  11
HETATM   11  C2  UNL     1      56.384  16.487  57.765  1.00  0.00    -0.005 C
HETATM   12  C1  UNL     1      54.853  16.487  57.675  1.00  0.00     0.005 C
ENDBRANCH  10  11
ENDBRANCH   9  10
ENDBRANCH   8   9
ENDBRANCH   7   8
ENDBRANCH   2   7
ENDBRANCH   1   2
BRANCH   1  13
HETATM   13  C8  UNL     1      55.581  16.540  51.951  1.00  0.00     0.150 C
BRANCH  13  14
HETATM   14  N2  UNL     1      56.312  17.603  52.642  1.00  0.00    -0.359 N
HETATM   15  C9  UNL     1      56.785  18.750  51.994  1.00  0.00     0.221 C
HETATM   16  O1  UNL     1      56.623  18.967  50.751  1.00  0.00    -0.273 OA
ATOM     17  H2  UNL     1      56.485  17.504  53.642  1.00  0.00     0.162 HD
BRANCH  15  18
HETATM   18  C10 UNL     1      57.511  19.786  52.739  1.00  0.00     0.078 C
HETATM   19  C11 UNL     1      57.760  19.436  54.175  1.00  0.00     0.014 C
HETATM   20  C12 UNL     1      57.969  20.665  55.031  1.00  0.00     0.001 C
HETATM   21  C13 UNL     1      58.629  21.782  54.253  1.00  0.00     0.000 C
HETATM   22  C14 UNL     1      57.870  22.179  53.027  1.00  0.00     0.001 C
HETATM   23  C15 UNL     1      56.826  21.131  52.705  1.00  0.00     0.014 C
ENDBRANCH  15  18
ENDBRANCH  13  14
ENDBRANCH   1  13
TORSDOF 9
ENDMDL