MODEL 1
REMARK VINA RESULT: -8.016532652      0.000      0.000
REMARK  9 active torsions:
REMARK  status: ('A' for Active; 'I' for Inactive)
REMARK    1  A    between atoms: C2_2  and  C3_3
REMARK    2  A    between atoms: C3_3  and  C4_4
REMARK    3  A    between atoms: C4_4  and  C5_5
REMARK    4  A    between atoms: C5_5  and  C6_6
REMARK    5  A    between atoms: C6_6  and  C7_7
REMARK    6  A    between atoms: C7_7  and  C8_8
REMARK    7  A    between atoms: C8_8  and  C9_9
REMARK    8  A    between atoms: C9_9  and  C10_10
REMARK    9  A    between atoms: C10_10  and  N1_11
REMARK       I    between atoms: N1_11  and  C11_13
REMARK       I    between atoms: N3_15  and  C12_17
REMARK       I    between atoms: C12_17  and  N4_19
ROOT
HETATM    1  N1  UNL     1      56.296  11.229  51.648  1.00  0.00    -0.364 N
ATOM      2  H1  UNL     1      55.280  11.313  51.682  1.00  0.00     0.162 HD
HETATM    3  C11 UNL     1      56.916  10.106  52.239  1.00  0.00     0.192 C
HETATM    4  N2  UNL     1      58.280  10.161  52.630  1.00  0.00    -0.063 NA
HETATM    5  N3  UNL     1      56.261   9.032  52.428  1.00  0.00    -0.283 N
ATOM      6  H3  UNL     1      56.706   8.220  52.857  1.00  0.00     0.173 HD
HETATM    7  C12 UNL     1      54.895   8.983  52.030  1.00  0.00     0.324 C
HETATM    8  O1  UNL     1      54.559   8.517  50.901  1.00  0.00    -0.247 OA
HETATM    9  N4  UNL     1      53.871   9.453  52.880  1.00  0.00    -0.334 N
HETATM   10  C13 UNL     1      54.080  10.015  54.199  1.00  0.00     0.127 C
HETATM   11  C14 UNL     1      53.506  11.425  54.252  1.00  0.00     0.020 C
HETATM   12  C15 UNL     1      52.223  11.530  53.478  1.00  0.00     0.003 C
HETATM   13  C16 UNL     1      51.581  10.164  53.271  1.00  0.00     0.020 C
HETATM   14  C17 UNL     1      52.494   9.365  52.394  1.00  0.00     0.127 C
ENDROOT
BRANCH   1  15
HETATM   15  C10 UNL     1      57.080  12.279  50.985  1.00  0.00     0.122 C
BRANCH  15  16
HETATM   16  C9  UNL     1      57.237  13.403  51.981  1.00  0.00     0.020 C
BRANCH  16  17
HETATM   17  C8  UNL     1      55.879  13.799  52.518  1.00  0.00     0.002 C
BRANCH  17  18
HETATM   18  C7  UNL     1      55.343  14.949  51.733  1.00  0.00     0.000 C
BRANCH  18  19
HETATM   19  C6  UNL     1      56.104  16.235  52.062  1.00  0.00     0.000 C
BRANCH  19  20
HETATM   20  C5  UNL     1      55.844  16.604  53.484  1.00  0.00     0.000 C
BRANCH  20  21
HETATM   21  C4  UNL     1      57.109  17.098  54.144  1.00  0.00     0.000 C
BRANCH  21  22
HETATM   22  C3  UNL     1      57.723  16.044  55.015  1.00  0.00    -0.000 C
BRANCH  22  23
HETATM   23  C2  UNL     1      56.669  15.359  55.853  1.00  0.00    -0.005 C
HETATM   24  C1  UNL     1      56.682  16.028  57.223  1.00  0.00     0.005 C
ENDBRANCH  22  23
ENDBRANCH  21  22
ENDBRANCH  20  21
ENDBRANCH  19  20
ENDBRANCH  18  19
ENDBRANCH  17  18
ENDBRANCH  16  17
ENDBRANCH  15  16
ENDBRANCH   1  15
TORSDOF 9
ENDMDL