MODEL 3
REMARK VINA RESULT: -8.609226244      0.939      1.090
REMARK  9 active torsions:
REMARK  status: ('A' for Active; 'I' for Inactive)
REMARK    1  A    between atoms: N1_2  and  C2_3
REMARK    2  A    between atoms: C2_3  and  C3_4
REMARK    3  A    between atoms: C3_4  and  N2_5
REMARK       I    between atoms: N2_5  and  C4_7
REMARK    4  A    between atoms: C4_7  and  C5_9
REMARK    5  A    between atoms: C5_9  and  C6_10
REMARK    6  A    between atoms: C6_10  and  C7_11
REMARK    7  A    between atoms: C7_11  and  C8_12
REMARK    8  A    between atoms: C8_12  and  C9_13
REMARK    9  A    between atoms: C9_13  and  C10_14
ROOT
HETATM    1  N2  UNL     1      55.526  13.588  52.181  1.00  0.00    -0.359 N
ATOM      2  H2  UNL     1      56.196  13.809  51.444  1.00  0.00     0.162 HD
HETATM    3  C4  UNL     1      55.728  14.115  53.474  1.00  0.00     0.217 C
HETATM    4  O1  UNL     1      54.888  13.826  54.358  1.00  0.00    -0.274 OA
ENDROOT
BRANCH   3   5
HETATM    5  C5  UNL     1      56.874  14.962  53.756  1.00  0.00     0.103 C
BRANCH   5   6
HETATM    6  C6  UNL     1      56.974  15.517  55.132  1.00  0.00     0.009 C
BRANCH   6   7
HETATM    7  C7  UNL     1      57.852  16.708  55.301  1.00  0.00     0.000 C
BRANCH   7   8
HETATM    8  C8  UNL     1      57.515  17.720  54.234  1.00  0.00     0.000 C
BRANCH   8   9
HETATM    9  C9  UNL     1      58.415  18.906  54.180  1.00  0.00     0.004 C
BRANCH   9  10
HETATM   10  C10 UNL     1      57.732  20.223  54.484  1.00  0.00    -0.014 C
HETATM   11  C11 UNL     1      58.778  21.286  54.529  1.00  0.00     0.004 C
HETATM   12  C12 UNL     1      58.331  22.573  53.872  1.00  0.00     0.000 C
HETATM   13  C13 UNL     1      58.072  22.206  52.424  1.00  0.00     0.000 C
HETATM   14  C14 UNL     1      56.964  21.210  52.287  1.00  0.00     0.000 C
HETATM   15  C15 UNL     1      56.616  20.472  53.528  1.00  0.00     0.004 C
ENDBRANCH   9  10
ENDBRANCH   8   9
ENDBRANCH   7   8
ENDBRANCH   6   7
ENDBRANCH   5   6
ENDBRANCH   3   5
BRANCH   1  16
HETATM   16  C3  UNL     1      54.373  12.727  51.870  1.00  0.00     0.150 C
BRANCH  16  17
HETATM   17  C2  UNL     1      54.767  11.270  52.015  1.00  0.00     0.256 C
BRANCH  17  18
HETATM   18  N1  UNL     1      53.842  10.526  52.807  1.00  0.00    -0.069 N
HETATM   19  C1  UNL     1      53.543   9.213  52.280  1.00  0.00     0.272 C
HETATM   20  C16 UNL     1      52.613  11.262  52.957  1.00  0.00     0.237 C
HETATM   21  C17 UNL     1      51.865  10.426  53.995  1.00  0.00     0.029 C
HETATM   22  C18 UNL     1      52.992   9.968  54.877  1.00  0.00     0.029 C
HETATM   23  C19 UNL     1      54.274  10.349  54.178  1.00  0.00     0.237 C
ENDBRANCH  17  18
ENDBRANCH  16  17
ENDBRANCH   1  16
TORSDOF 9
ENDMDL