MODEL 3
REMARK VINA RESULT: -8.127493666      2.898      3.741
REMARK  11 active torsions:
REMARK  status: ('A' for Active; 'I' for Inactive)
REMARK    1  A    between atoms: C1_2  and  C2_4
REMARK    2  A    between atoms: C2_4  and  C3_5
REMARK    3  A    between atoms: C3_5  and  N1_6
REMARK    4  A    between atoms: N1_6  and  C4_7
REMARK    5  A    between atoms: C4_7  and  C5_8
REMARK    6  A    between atoms: C5_8  and  C6_9
REMARK    7  A    between atoms: C6_9  and  C7_10
REMARK    8  A    between atoms: C7_10  and  C8_11
REMARK    9  A    between atoms: C9_12  and  C10_13
REMARK   10  A    between atoms: C10_13  and  C11_14
REMARK   11  A    between atoms: C11_14  and  C12_15
ROOT
HETATM    1  C5  UNL     1      56.163  14.117  54.628  1.00  0.00     0.029 C
ENDROOT
BRANCH   1   2
HETATM    2  C4  UNL     1      55.225  13.442  53.711  1.00  0.00     0.237 C
BRANCH   2   3
HETATM    3  N1  UNL     1      55.457  13.534  52.312  1.00  0.00    -0.066 N
HETATM    4  C17 UNL     1      56.904  13.335  52.066  1.00  0.00     0.239 C
HETATM    5  C18 UNL     1      56.680  11.890  51.727  1.00  0.00     0.056 C
HETATM    6  C19 UNL     1      55.230  12.347  51.549  1.00  0.00     0.239 C
BRANCH   3   7
HETATM    7  C3  UNL     1      55.096  14.782  51.663  1.00  0.00     0.248 C
BRANCH   7   8
HETATM    8  C2  UNL     1      56.317  15.664  51.445  1.00  0.00     0.141 C
BRANCH   8   9
HETATM    9  C1  UNL     1      56.069  17.057  51.838  1.00  0.00     0.174 C
HETATM   10  O1  UNL     1      56.727  17.975  51.249  1.00  0.00    -0.648 OA
HETATM   11  O2  UNL     1      55.163  17.474  52.811  1.00  0.00    -0.648 OA
ENDBRANCH   8   9
ENDBRANCH   7   8
ENDBRANCH   3   7
ENDBRANCH   2   3
ENDBRANCH   1   2
BRANCH   1  12
HETATM   12  C6  UNL     1      55.644  15.264  55.414  1.00  0.00     0.014 C
BRANCH  12  13
HETATM   13  C7  UNL     1      56.790  15.777  56.305  1.00  0.00     0.094 C
BRANCH  13  14
HETATM   14  C8  UNL     1      57.533  16.756  55.482  1.00  0.00    -0.107 C
HETATM   15  C9  UNL     1      58.122  17.575  54.799  1.00  0.00    -0.107 C
BRANCH  15  16
HETATM   16  C10 UNL     1      58.766  18.594  54.010  1.00  0.00     0.094 C
BRANCH  16  17
HETATM   17  C11 UNL     1      58.850  19.923  54.616  1.00  0.00     0.017 C
BRANCH  17  18
HETATM   18  C12 UNL     1      57.844  20.922  54.296  1.00  0.00    -0.014 C
HETATM   19  C13 UNL     1      58.387  22.228  53.722  1.00  0.00     0.005 C
HETATM   20  C14 UNL     1      57.129  23.034  53.540  1.00  0.00     0.000 C
HETATM   21  C15 UNL     1      56.068  22.020  53.211  1.00  0.00     0.000 C
HETATM   22  C16 UNL     1      56.712  20.628  53.394  1.00  0.00     0.005 C
ENDBRANCH  17  18
ENDBRANCH  16  17
ENDBRANCH  15  16
ENDBRANCH  13  14
ENDBRANCH  12  13
ENDBRANCH   1  12
TORSDOF 11
ENDMDL