MODEL 1
REMARK VINA RESULT: -7.789583228      0.000      0.000
REMARK  9 active torsions:
REMARK  status: ('A' for Active; 'I' for Inactive)
REMARK    1  A    between atoms: N1_2  and  C2_3
REMARK    2  A    between atoms: C2_3  and  C3_4
REMARK    3  A    between atoms: C3_4  and  C4_5
REMARK    4  A    between atoms: C4_5  and  C5_6
REMARK    5  A    between atoms: C5_6  and  C6_7
REMARK    6  A    between atoms: C6_7  and  C7_8
REMARK    7  A    between atoms: C7_8  and  C8_9
REMARK    8  A    between atoms: C8_9  and  N2_10
REMARK    9  A    between atoms: N2_10  and  C9_11
ROOT
HETATM    1  C9  UNL     1      54.389  12.743  52.084  1.00  0.00     0.360 C
HETATM    2  C10 UNL     1      53.368  11.979  52.802  1.00  0.00     0.087 C
HETATM    3  N3  UNL     1      52.549  11.373  53.351  1.00  0.00    -0.196 NA
ENDROOT
BRANCH   1   4
HETATM    4  N2  UNL     1      55.721  12.502  52.587  1.00  0.00    -0.055 N
HETATM    5  C11 UNL     1      56.645  13.181  51.705  1.00  0.00     0.238 C
HETATM    6  C12 UNL     1      57.187  12.271  50.629  1.00  0.00     0.028 C
HETATM    7  C13 UNL     1      58.033  11.219  51.282  1.00  0.00     0.003 C
HETATM    8  C14 UNL     1      57.509  10.819  52.642  1.00  0.00     0.028 C
HETATM    9  C15 UNL     1      56.026  11.114  52.775  1.00  0.00     0.238 C
BRANCH   4  10
HETATM   10  C8  UNL     1      55.868  13.151  53.900  1.00  0.00     0.238 C
BRANCH  10  11
HETATM   11  C7  UNL     1      56.237  14.599  53.754  1.00  0.00     0.028 C
BRANCH  11  12
HETATM   12  C6  UNL     1      56.671  15.133  55.093  1.00  0.00     0.002 C
BRANCH  12  13
HETATM   13  C5  UNL     1      57.826  16.106  55.015  1.00  0.00     0.000 C
BRANCH  13  14
HETATM   14  C4  UNL     1      57.345  17.521  55.078  1.00  0.00     0.002 C
BRANCH  14  15
HETATM   15  C3  UNL     1      57.998  18.447  54.090  1.00  0.00     0.028 C
BRANCH  15  16
HETATM   16  C2  UNL     1      56.959  19.194  53.320  1.00  0.00     0.237 C
BRANCH  16  17
HETATM   17  N1  UNL     1      57.175  20.629  53.338  1.00  0.00    -0.071 N
HETATM   18  C1  UNL     1      55.951  21.342  53.718  1.00  0.00     0.272 C
HETATM   19  C16 UNL     1      57.574  21.142  52.041  1.00  0.00     0.237 C
HETATM   20  C17 UNL     1      58.145  22.505  52.341  1.00  0.00     0.029 C
HETATM   21  C18 UNL     1      58.526  22.461  53.808  1.00  0.00     0.029 C
HETATM   22  C19 UNL     1      58.215  21.026  54.244  1.00  0.00     0.237 C
ENDBRANCH  16  17
ENDBRANCH  15  16
ENDBRANCH  14  15
ENDBRANCH  13  14
ENDBRANCH  12  13
ENDBRANCH  11  12
ENDBRANCH  10  11
ENDBRANCH   4  10
ENDBRANCH   1   4
TORSDOF 9
ENDMDL