MODEL 5
REMARK VINA RESULT: -4.972809927      1.566      2.161
REMARK  2 active torsions:
REMARK  status: ('A' for Active; 'I' for Inactive)
REMARK    1  A    between atoms: O1_2  and  C2_3
REMARK       I    between atoms: C2_3  and  N1_5
REMARK    2  A    between atoms: N1_5  and  N2_7
ROOT
HETATM    1  N2  UNL     1     -35.907 -10.577 -48.562  1.00  0.00    -0.294 N
ATOM      2  H2  UNL     1     -36.765 -11.120 -48.661  1.00  0.00     0.187 HD
HETATM    3  C3  UNL     1     -35.426  -9.955 -49.601  1.00  0.00     0.062 C
HETATM    4  C4  UNL     1     -34.177  -9.163 -49.461  1.00  0.00     0.066 C
HETATM    5  C5  UNL     1     -33.763  -8.643 -50.821  1.00  0.00     0.007 C
HETATM    6  C6  UNL     1     -34.910  -7.760 -51.314  1.00  0.00     0.011 C
HETATM    7  C7  UNL     1     -35.765  -8.678 -52.196  1.00  0.00     0.080 C
HETATM    8  S1  UNL     1     -36.281 -10.071 -51.163  1.00  0.00    -0.115 SA
ENDROOT
BRANCH   1   9
HETATM    9  N1  UNL     1     -35.280 -10.520 -47.316  1.00  0.00    -0.245 N
HETATM   10  C2  UNL     1     -34.823 -11.679 -46.678  1.00  0.00     0.379 C
HETATM   11  O2  UNL     1     -34.977 -12.785 -47.226  1.00  0.00    -0.237 OA
ATOM     12  H1  UNL     1     -35.153  -9.615 -46.861  1.00  0.00     0.192 HD
BRANCH  10  13
HETATM   13  O1  UNL     1     -34.207 -11.618 -45.454  1.00  0.00    -0.308 OA
HETATM   14  C1  UNL     1     -34.859 -11.289 -44.262  1.00  0.00     0.215 C
ENDBRANCH  10  13
ENDBRANCH   1   9
TORSDOF 2
ENDMDL