MODEL 1
REMARK VINA RESULT: -5.790906251      0.000      0.000
REMARK  1 active torsions:
REMARK  status: ('A' for Active; 'I' for Inactive)
REMARK    1  A    between atoms: O1_2  and  C2_3
ROOT
HETATM    1  C2  UNL     1     -36.593 -11.396 -47.209  1.00  0.00     0.126 C
HETATM    2  C3  UNL     1     -35.563 -12.472 -47.584  1.00  0.00     0.060 C
HETATM    3  S1  UNL     1     -37.417 -11.982 -45.703  1.00  0.00    -0.078 SA
HETATM    4  C4  UNL     1     -36.483 -11.387 -44.314  1.00  0.00     0.043 C
HETATM    5  N1  UNL     1     -36.482 -12.044 -43.240  1.00  0.00    -0.397 N
ATOM      6  H11 UNL     1     -35.945 -11.702 -42.442  1.00  0.00     0.156 HD
ATOM      7  H12 UNL     1     -37.003 -12.915 -43.137  1.00  0.00     0.156 HD
HETATM    8  C5  UNL     1     -35.728 -10.125 -44.464  1.00  0.00     0.070 C
HETATM    9  C6  UNL     1     -36.246  -9.423 -45.698  1.00  0.00     0.009 C
HETATM   10  C7  UNL     1     -35.607  -8.043 -45.729  1.00  0.00     0.012 C
HETATM   11  C8  UNL     1     -35.853 -10.121 -46.973  1.00  0.00     0.142 C
HETATM   12  C9  UNL     1     -34.403 -10.314 -47.048  1.00  0.00     0.068 C
HETATM   13  N2  UNL     1     -33.246 -10.486 -47.118  1.00  0.00    -0.197 NA
ENDROOT
BRANCH   1  14
HETATM   14  O1  UNL     1     -37.475 -11.332 -48.283  1.00  0.00    -0.373 OA
HETATM   15  C1  UNL     1     -38.770 -11.045 -47.889  1.00  0.00     0.204 C
ENDBRANCH   1  14
TORSDOF 1
ENDMDL