MODEL 2
REMARK VINA RESULT: -4.421792751      2.297      4.972
REMARK  1 active torsions:
REMARK  status: ('A' for Active; 'I' for Inactive)
REMARK    1  A    between atoms: C4_7  and  C5_8
ROOT
HETATM    1  C1  UNL     1     -36.394 -11.888 -43.825  1.00  0.00     0.019 C
HETATM    2  C2  UNL     1     -35.266 -10.961 -44.130  1.00  0.00     0.051 C
HETATM    3  C3  UNL     1     -34.745 -11.346 -45.512  1.00  0.00     0.271 C
HETATM    4  N1  UNL     1     -35.042 -10.266 -46.389  1.00  0.00    -0.043 N
ATOM      5  H11 UNL     1     -34.477  -9.443 -46.182  1.00  0.00     0.280 HD
ATOM      6  H12 UNL     1     -35.963  -9.869 -46.203  1.00  0.00     0.280 HD
HETATM    7  C4  UNL     1     -34.906 -10.670 -47.744  1.00  0.00     0.278 C
HETATM    8  S2  UNL     1     -35.667 -12.342 -47.642  1.00  0.00    -0.046 SA
HETATM    9  N2  UNL     1     -35.535 -12.493 -45.868  1.00  0.00    -0.227 NA
HETATM   10  C7  UNL     1     -36.813 -12.360 -45.226  1.00  0.00     0.105 C
ENDROOT
BRANCH   7  11
HETATM   11  C5  UNL     1     -35.711  -9.770 -48.627  1.00  0.00     0.098 A
HETATM   12  C6  UNL     1     -36.238 -10.420 -49.883  1.00  0.00     0.092 A
HETATM   13  S1  UNL     1     -34.936  -9.201 -50.164  1.00  0.00    -0.159 SA
ENDBRANCH   7  11
TORSDOF 1
ENDMDL