MODEL 2
REMARK VINA RESULT: -4.756491526      3.227      4.067
REMARK  1 active torsions:
REMARK  status: ('A' for Active; 'I' for Inactive)
REMARK    1  A    between atoms: C2_4  and  C3_5
ROOT
HETATM    1  C3  UNL     1     -34.879  -9.987 -46.935  1.00  0.00     0.077 C
HETATM    2  C4  UNL     1     -36.341  -9.770 -46.647  1.00  0.00     0.284 C
HETATM    3  N1  UNL     1     -36.850 -10.869 -45.834  1.00  0.00     0.089 N
HETATM    4  C5  UNL     1     -36.958 -12.077 -46.621  1.00  0.00     0.273 C
HETATM    5  C6  UNL     1     -35.622 -12.374 -47.257  1.00  0.00     0.036 C
HETATM    6  C7  UNL     1     -34.565 -11.448 -46.703  1.00  0.00     0.001 C
HETATM    7  C8  UNL     1     -34.601 -11.642 -45.181  1.00  0.00     0.036 C
HETATM    8  C9  UNL     1     -35.949 -11.121 -44.734  1.00  0.00     0.273 C
ENDROOT
BRANCH   1   9
HETATM    9  C2  UNL     1     -34.486  -9.523 -48.298  1.00  0.00     0.077 A
HETATM   10  C1  UNL     1     -35.242  -9.334 -49.422  1.00  0.00     0.109 A
HETATM   11  S1  UNL     1     -33.857  -8.849 -50.241  1.00  0.00     0.026 SA
HETATM   12  O1  UNL     1     -33.282  -9.177 -48.744  1.00  0.00    -0.278 OA
ENDBRANCH   1   9
TORSDOF 1
ENDMDL