MODEL 2
REMARK VINA RESULT: -4.828539071      1.243      1.685
REMARK  1 active torsions:
REMARK  status: ('A' for Active; 'I' for Inactive)
REMARK    1  A    between atoms: C8_10  and  C9_11
ROOT
HETATM    1  C1  UNL     1     -35.977 -10.981 -44.059  1.00  0.00     0.011 C
HETATM    2  C2  UNL     1     -35.822 -11.928 -45.220  1.00  0.00     0.002 C
HETATM    3  C3  UNL     1     -34.529 -11.735 -45.907  1.00  0.00     0.008 C
HETATM    4  C4  UNL     1     -34.545 -10.906 -47.135  1.00  0.00     0.035 C
HETATM    5  C5  UNL     1     -35.844 -11.112 -47.904  1.00  0.00     0.152 C
HETATM    6  O1  UNL     1     -36.036 -12.494 -47.964  1.00  0.00    -0.298 OA
HETATM    7  N1  UNL     1     -37.039 -12.818 -47.156  1.00  0.00    -0.195 NA
HETATM    8  C6  UNL     1     -37.050 -14.155 -46.694  1.00  0.00     0.144 C
HETATM    9  C7  UNL     1     -37.035 -11.826 -46.085  1.00  0.00     0.097 C
HETATM   10  C8  UNL     1     -36.944 -10.591 -46.999  1.00  0.00     0.047 C
ENDROOT
BRANCH  10  11
HETATM   11  C9  UNL     1     -38.245 -10.543 -47.763  1.00  0.00     0.095 C
HETATM   12  S1  UNL     1     -38.065  -9.857 -49.404  1.00  0.00    -0.097 SA
ENDBRANCH  10  11
TORSDOF 1
ENDMDL