MODEL 1
REMARK VINA RESULT: -5.663295538      0.000      0.000
REMARK  3 active torsions:
REMARK  status: ('A' for Active; 'I' for Inactive)
REMARK    1  A    between atoms: C2_2  and  C4_4
REMARK    2  A    between atoms: C4_4  and  C5_9
REMARK    3  A    between atoms: N1_5  and  O1_7
ROOT
HETATM    1  C5  UNL     1     -34.618 -10.618 -47.082  1.00  0.00     0.205 C
HETATM    2  O2  UNL     1     -33.458  -9.927 -46.832  1.00  0.00    -0.347 OA
HETATM    3  C6  UNL     1     -33.717  -8.580 -47.016  1.00  0.00     0.261 C
HETATM    4  C7  UNL     1     -33.338  -8.099 -48.399  1.00  0.00     0.061 C
HETATM    5  C8  UNL     1     -33.879  -9.034 -49.424  1.00  0.00     0.007 C
HETATM    6  C9  UNL     1     -35.325  -9.345 -49.114  1.00  0.00     0.035 C
HETATM    7  C10 UNL     1     -35.537  -9.571 -47.628  1.00  0.00     0.159 C
HETATM    8  O3  UNL     1     -35.098  -8.427 -46.907  1.00  0.00    -0.353 OA
ENDROOT
BRANCH   1   9
HETATM    9  C4  UNL     1     -35.215 -11.139 -45.798  1.00  0.00     0.068 C
HETATM   10  N1  UNL     1     -34.587 -10.917 -44.717  1.00  0.00    -0.270 N
ATOM     11  H1  UNL     1     -33.699 -10.421 -44.799  1.00  0.00     0.194 HD
BRANCH   9  12
HETATM   12  C2  UNL     1     -36.478 -11.825 -45.868  1.00  0.00    -0.044 C
HETATM   13  C1  UNL     1     -36.630 -13.008 -46.462  1.00  0.00     0.020 C
HETATM   14  C3  UNL     1     -37.687 -11.199 -45.267  1.00  0.00     0.049 C
ENDBRANCH   9  12
BRANCH  10  15
HETATM   15  O1  UNL     1     -34.969 -11.269 -43.470  1.00  0.00    -0.290 OA
ATOM     16  H1  UNL     1     -35.636 -10.852 -42.939  1.00  0.00     0.244 HD
ENDBRANCH  10  15
ENDBRANCH   1   9
TORSDOF 3
ENDMDL