MODEL 4
REMARK VINA RESULT: -4.633152882      2.192      4.878
REMARK  3 active torsions:
REMARK  status: ('A' for Active; 'I' for Inactive)
REMARK    1  A    between atoms: C2_2  and  O1_4
REMARK    2  A    between atoms: O1_4  and  N1_5
REMARK    3  A    between atoms: N1_5  and  C4_7
ROOT
HETATM    1  C4  UNL     1     -34.405  -9.123 -48.720  1.00  0.00     0.106 C
HETATM    2  N2  UNL     1     -33.610  -9.184 -49.721  1.00  0.00    -0.378 N
ATOM      3  H2  UNL     1     -32.676  -9.489 -49.446  1.00  0.00     0.160 HD
HETATM    4  C5  UNL     1     -33.696  -8.935 -51.116  1.00  0.00     0.121 C
HETATM    5  C6  UNL     1     -35.089  -8.912 -51.669  1.00  0.00     0.030 C
HETATM    6  C7  UNL     1     -35.893 -10.130 -51.329  1.00  0.00     0.076 C
HETATM    7  S1  UNL     1     -36.801  -9.909 -49.752  1.00  0.00    -0.162 SA
HETATM    8  C8  UNL     1     -35.836  -8.717 -48.772  1.00  0.00     0.151 C
ENDROOT
BRANCH   1   9
HETATM    9  N1  UNL     1     -33.934  -9.463 -47.423  1.00  0.00    -0.254 N
ATOM     10  H1  UNL     1     -33.764  -8.707 -46.760  1.00  0.00     0.195 HD
BRANCH   9  11
HETATM   11  O1  UNL     1     -33.700 -10.725 -47.019  1.00  0.00    -0.274 OA
BRANCH  11  12
HETATM   12  C2  UNL     1     -34.830 -11.225 -46.385  1.00  0.00     0.144 C
HETATM   13  C1  UNL     1     -35.366 -12.389 -47.227  1.00  0.00     0.042 C
HETATM   14  C3  UNL     1     -34.567 -11.646 -44.964  1.00  0.00     0.042 C
ENDBRANCH  11  12
ENDBRANCH   9  11
ENDBRANCH   1   9
TORSDOF 3
ENDMDL