MODEL 5
REMARK VINA RESULT: -3.767877364      1.516      2.145
REMARK  2 active torsions:
REMARK  status: ('A' for Active; 'I' for Inactive)
REMARK    1  A    between atoms: N1_2  and  C2_4
REMARK    2  A    between atoms: C3_7  and  S1_8
ROOT
HETATM    1  C2  UNL     1     -34.943 -10.137 -46.171  1.00  0.00     0.152 C
HETATM    2  N2  UNL     1     -34.737  -9.231 -47.000  1.00  0.00    -0.325 N
ATOM      3  H2  UNL     1     -34.465  -8.318 -46.636  1.00  0.00     0.169 HD
HETATM    4  C3  UNL     1     -34.846  -9.359 -48.361  1.00  0.00     0.110 C
HETATM    5  S2  UNL     1     -35.875 -10.767 -48.793  1.00  0.00    -0.025 SA
HETATM    6  S3  UNL     1     -35.431 -11.711 -46.885  1.00  0.00    -0.014 SA
ENDROOT
BRANCH   1   7
HETATM    7  N1  UNL     1     -34.842 -10.060 -44.716  1.00  0.00    -0.374 N
HETATM    8  C1  UNL     1     -35.927  -9.582 -43.910  1.00  0.00     0.148 C
ATOM      9  H1  UNL     1     -33.978 -10.355 -44.261  1.00  0.00     0.161 HD
ENDBRANCH   1   7
BRANCH   4  10
HETATM   10  S1  UNL     1     -34.167  -8.408 -49.538  1.00  0.00    -0.170 SA
HETATM   11  C4  UNL     1     -33.126  -6.973 -49.010  1.00  0.00     0.085 C
HETATM   12  C5  UNL     1     -33.807  -9.085 -51.190  1.00  0.00     0.085 C
ENDBRANCH   4  10
TORSDOF 2
ENDMDL