MODEL 2
REMARK VINA RESULT: -4.761267855      0.366      1.260
REMARK  3 active torsions:
REMARK  status: ('A' for Active; 'I' for Inactive)
REMARK    1  A    between atoms: C4_4  and  N1_5
REMARK    2  A    between atoms: N1_5  and  N2_7
REMARK    3  A    between atoms: N2_7  and  C5_9
ROOT
HETATM    1  N1  UNL     1     -34.726 -11.234 -44.152  1.00  0.00    -0.307 N
ATOM      2  H1  UNL     1     -33.833 -11.299 -43.664  1.00  0.00     0.186 HD
ENDROOT
BRANCH   1   3
HETATM    3  C4  UNL     1     -34.972 -10.177 -44.804  1.00  0.00     0.004 C
HETATM    4  C3  UNL     1     -35.764  -9.019 -44.314  1.00  0.00     0.054 C
HETATM    5  C2  UNL     1     -36.299  -8.480 -45.649  1.00  0.00     0.006 C
HETATM    6  C1  UNL     1     -35.003  -8.450 -46.441  1.00  0.00     0.006 C
HETATM    7  C6  UNL     1     -34.515  -9.887 -46.189  1.00  0.00     0.054 C
ENDBRANCH   1   3
BRANCH   1   8
HETATM    8  N2  UNL     1     -35.596 -12.310 -44.059  1.00  0.00    -0.279 N
ATOM      9  H2  UNL     1     -35.403 -13.048 -43.382  1.00  0.00     0.189 HD
BRANCH   8  10
HETATM   10  C5  UNL     1     -36.685 -12.406 -44.838  1.00  0.00     0.178 A
HETATM   11  N3  UNL     1     -37.902 -12.005 -44.590  1.00  0.00    -0.299 N
HETATM   12  S1  UNL     1     -38.674 -12.449 -45.967  1.00  0.00     0.030 SA
ATOM     13  H3  UNL     1     -38.274 -11.540 -43.762  1.00  0.00     0.177 HD
HETATM   14  S2  UNL     1     -36.845 -13.062 -46.357  1.00  0.00     0.003 SA
ENDBRANCH   8  10
ENDBRANCH   1   8
TORSDOF 3
ENDMDL