MODEL 1
REMARK VINA RESULT: -6.168492667      0.000      0.000
REMARK  1 active torsions:
REMARK  status: ('A' for Active; 'I' for Inactive)
REMARK    1  A    between atoms: C2_2  and  C3_3
ROOT
HETATM    1  C3  UNL     1     -36.358 -10.178 -46.687  1.00  0.00     0.103 C
HETATM    2  C4  UNL     1     -36.812 -10.555 -48.050  1.00  0.00     0.074 C
HETATM    3  N1  UNL     1     -37.151 -10.860 -49.113  1.00  0.00    -0.196 NA
HETATM    4  C5  UNL     1     -36.107 -11.447 -45.947  1.00  0.00     0.192 C
HETATM    5  C6  UNL     1     -35.831 -12.538 -46.898  1.00  0.00     0.074 C
HETATM    6  N2  UNL     1     -35.604 -13.412 -47.636  1.00  0.00    -0.196 NA
HETATM    7  C7  UNL     1     -34.840 -11.187 -45.228  1.00  0.00     0.132 C
HETATM    8  N3  UNL     1     -34.419 -11.662 -44.105  1.00  0.00    -0.382 N
ATOM      9  H31 UNL     1     -33.546 -11.483 -43.609  1.00  0.00     0.158 HD
ATOM     10  H32 UNL     1     -34.952 -12.322 -43.539  1.00  0.00     0.158 HD
HETATM   11  O1  UNL     1     -34.120 -10.297 -45.991  1.00  0.00    -0.326 OA
HETATM   12  C8  UNL     1     -35.019  -9.563 -46.821  1.00  0.00     0.084 C
HETATM   13  C9  UNL     1     -34.462  -9.710 -48.243  1.00  0.00     0.048 C
HETATM   14  C10 UNL     1     -34.922  -8.124 -46.459  1.00  0.00     0.048 C
ENDROOT
BRANCH   1  15
HETATM   15  C2  UNL     1     -37.419  -9.313 -46.107  1.00  0.00     0.025 C
HETATM   16  C1  UNL     1     -38.342  -9.957 -45.152  1.00  0.00     0.007 C
ENDBRANCH   1  15
TORSDOF 1
ENDMDL