MODEL 5
REMARK VINA RESULT: -8.396123621      1.078      1.715
REMARK  10 active torsions:
REMARK  status: ('A' for Active; 'I' for Inactive)
REMARK    1  A    between atoms: C11_11  and  N1_12
REMARK       I    between atoms: N1_12  and  C12_14
REMARK    2  A    between atoms: C12_14  and  C13_16
REMARK    3  A    between atoms: C13_16  and  C14_17
REMARK    4  A    between atoms: C14_17  and  C15_18
REMARK    5  A    between atoms: C18_24  and  N3_25
REMARK       I    between atoms: N3_25  and  C19_27
REMARK    6  A    between atoms: C19_27  and  C20_29
REMARK    7  A    between atoms: C20_29  and  C21_30
REMARK    8  A    between atoms: C21_30  and  C22_31
REMARK    9  A    between atoms: C22_31  and  C23_32
REMARK   10  A    between atoms: C23_32  and  N4_33
ROOT
HETATM    1  C15 UNL     1       4.765  -6.959  17.750  1.00  0.00     0.038 C
HETATM    2  C16 UNL     1       4.203  -8.165  17.036  1.00  0.00     0.036 C
HETATM    3  C17 UNL     1       4.140  -9.245  18.064  1.00  0.00     0.235 C
HETATM    4  N2  UNL     1       4.679  -8.739  19.307  1.00  0.00    -0.054 N
ATOM      5  H21 UNL     1       5.258  -9.422  19.796  1.00  0.00     0.279 HD
ATOM      6  H22 UNL     1       3.968  -8.625  20.030  1.00  0.00     0.279 HD
HETATM    7  C18 UNL     1       5.380  -7.518  19.014  1.00  0.00     0.290 C
ENDROOT
BRANCH   1   8
HETATM    8  C14 UNL     1       3.750  -5.901  18.015  1.00  0.00     0.017 C
BRANCH   8   9
HETATM    9  C13 UNL     1       2.794  -5.724  16.884  1.00  0.00     0.103 C
BRANCH   9  10
HETATM   10  C12 UNL     1       3.298  -4.780  15.829  1.00  0.00     0.218 C
HETATM   11  N1  UNL     1       3.965  -3.614  16.223  1.00  0.00    -0.351 N
ATOM     12  H1  UNL     1       4.078  -3.471  17.227  1.00  0.00     0.163 HD
HETATM   13  O1  UNL     1       3.055  -5.155  14.656  1.00  0.00    -0.274 OA
BRANCH  11  14
HETATM   14  C11 UNL     1       4.513  -2.588  15.361  1.00  0.00     0.041 C
HETATM   15  C8  UNL     1       5.795  -2.072  15.977  1.00  0.00    -0.022 C
HETATM   16  C7  UNL     1       6.676  -1.356  14.980  1.00  0.00     0.016 C
HETATM   17  C9  UNL     1       6.607  -3.285  16.456  1.00  0.00     0.017 C
HETATM   18  C10 UNL     1       5.583  -1.244  17.197  1.00  0.00     0.017 C
HETATM   19  C6  UNL     1       5.968  -0.920  13.742  1.00  0.00    -0.005 C
HETATM   20  C2  UNL     1       5.177  -1.986  13.059  1.00  0.00    -0.038 C
HETATM   21  C5  UNL     1       5.015   0.185  14.132  1.00  0.00     0.010 C
HETATM   22  C1  UNL     1       5.790  -2.485  11.789  1.00  0.00     0.015 C
HETATM   23  C3  UNL     1       3.826  -1.298  12.799  1.00  0.00     0.014 C
HETATM   24  C31 UNL     1       4.817  -3.147  13.992  1.00  0.00     0.041 C
HETATM   25  C4  UNL     1       3.712  -0.522  14.122  1.00  0.00    -0.011 C
HETATM   26  C30 UNL     1       3.478  -1.515  15.204  1.00  0.00     0.036 C
ENDBRANCH  11  14
ENDBRANCH   9  10
ENDBRANCH   8   9
ENDBRANCH   1   8
BRANCH   7  27
HETATM   27  N3  UNL     1       6.778  -7.854  18.822  1.00  0.00    -0.333 N
HETATM   28  C19 UNL     1       7.825  -6.961  19.098  1.00  0.00     0.219 C
HETATM   29  O2  UNL     1       7.593  -5.812  19.528  1.00  0.00    -0.274 OA
ATOM     30  H3  UNL     1       7.011  -8.782  18.470  1.00  0.00     0.164 HD
BRANCH  28  31
HETATM   31  C20 UNL     1       9.239  -7.380  18.878  1.00  0.00     0.103 C
BRANCH  31  32
HETATM   32  C21 UNL     1      10.139  -6.181  18.821  1.00  0.00     0.011 C
BRANCH  32  33
HETATM   33  C22 UNL     1      10.653  -5.970  17.436  1.00  0.00     0.031 C
BRANCH  33  34
HETATM   34  C23 UNL     1      10.229  -4.660  16.828  1.00  0.00     0.272 C
BRANCH  34  35
HETATM   35  N4  UNL     1       9.799  -4.879  15.477  1.00  0.00     0.088 N
HETATM   36  C24 UNL     1      10.549  -4.221  14.465  1.00  0.00     0.272 C
HETATM   37  C25 UNL     1       9.541  -3.474  13.583  1.00  0.00     0.030 C
HETATM   38  C26 UNL     1       8.306  -4.357  13.544  1.00  0.00     0.002 C
HETATM   39  C27 UNL     1       8.642  -5.667  12.905  1.00  0.00     0.002 C
HETATM   40  C28 UNL     1       9.465  -6.587  13.742  1.00  0.00     0.030 C
HETATM   41  C29 UNL     1       9.488  -6.263  15.201  1.00  0.00     0.272 C
ENDBRANCH  34  35
ENDBRANCH  33  34
ENDBRANCH  32  33
ENDBRANCH  31  32
ENDBRANCH  28  31
ENDBRANCH   7  27
TORSDOF 10
ENDMDL