MODEL 4
REMARK VINA RESULT: -8.431282621      1.119      1.577
REMARK  11 active torsions:
REMARK  status: ('A' for Active; 'I' for Inactive)
REMARK    1  A    between atoms: C2_2  and  N1_3
REMARK    2  A    between atoms: C2_2  and  C29_37
REMARK       I    between atoms: N1_3  and  C3_5
REMARK    3  A    between atoms: C3_5  and  C4_7
REMARK    4  A    between atoms: C4_7  and  C5_8
REMARK    5  A    between atoms: C5_8  and  C6_9
REMARK    6  A    between atoms: C5_8  and  C18_26
REMARK    7  A    between atoms: C5_8  and  C24_32
REMARK    8  A    between atoms: C6_9  and  C7_10
REMARK    9  A    between atoms: C7_10  and  C8_11
REMARK   10  A    between atoms: C8_11  and  C9_12
REMARK       I    between atoms: N2_15  and  C12_16
REMARK   11  A    between atoms: C12_16  and  C13_18
ROOT
HETATM    1  C5  UNL     1       8.732  -4.886  15.007  1.00  0.00    -0.010 C
ENDROOT
BRANCH   1   2
HETATM    2  C4  UNL     1       7.337  -5.316  15.050  1.00  0.00     0.057 C
BRANCH   2   3
HETATM    3  C3  UNL     1       6.335  -4.812  15.958  1.00  0.00     0.238 C
HETATM    4  N1  UNL     1       4.982  -4.580  15.573  1.00  0.00    -0.345 N
ATOM      5  H1  UNL     1       4.737  -4.785  14.605  1.00  0.00     0.163 HD
HETATM    6  O1  UNL     1       6.515  -4.533  17.142  1.00  0.00    -0.269 OA
BRANCH   4   7
HETATM    7  C2  UNL     1       3.941  -4.090  16.412  1.00  0.00     0.170 C
HETATM    8  C1  UNL     1       3.314  -2.869  15.785  1.00  0.00     0.042 C
BRANCH   7   9
HETATM    9  C29 UNL     1       2.931  -5.180  16.635  1.00  0.00     0.253 C
HETATM   10  N4  UNL     1       3.267  -6.313  17.415  1.00  0.00    -0.060 NA
HETATM   11  O3  UNL     1       1.771  -5.110  16.134  1.00  0.00    -0.275 OA
ENDBRANCH   7   9
ENDBRANCH   4   7
ENDBRANCH   2   3
ENDBRANCH   1   2
BRANCH   1  12
HETATM   12  C6  UNL     1       8.883  -3.392  15.230  1.00  0.00     0.014 C
BRANCH  12  13
HETATM   13  C7  UNL     1       8.525  -2.518  14.092  1.00  0.00     0.003 C
BRANCH  13  14
HETATM   14  C8  UNL     1       7.774  -1.277  14.615  1.00  0.00     0.033 C
BRANCH  14  15
HETATM   15  C9  UNL     1       6.304  -1.382  14.265  1.00  0.00     0.189 C
HETATM   16  C10 UNL     1       6.136  -2.212  13.030  1.00  0.00     0.053 C
HETATM   17  C11 UNL     1       4.851  -1.884  12.275  1.00  0.00     0.129 C
HETATM   18  N2  UNL     1       4.879  -0.461  12.023  1.00  0.00    -0.328 N
HETATM   19  C12 UNL     1       3.961   0.111  11.131  1.00  0.00     0.228 C
HETATM   20  C17 UNL     1       5.867   0.314  12.707  1.00  0.00     0.359 C
HETATM   21  O2  UNL     1       3.126  -0.702  10.570  1.00  0.00    -0.273 OA
HETATM   22  N3  UNL     1       5.770  -0.047  14.135  1.00  0.00    -0.055 N
ATOM     23  H32 UNL     1       4.827   0.047  14.511  1.00  0.00     0.279 HD
ATOM     24  H31 UNL     1       6.222   0.628  14.752  1.00  0.00     0.279 HD
BRANCH  19  25
HETATM   25  C13 UNL     1       3.848   1.537  10.766  1.00  0.00     0.030 C
HETATM   26  C14 UNL     1       2.700   1.698   9.776  1.00  0.00     0.025 C
HETATM   27  C15 UNL     1       3.441   2.339  11.990  1.00  0.00     0.025 C
HETATM   28  C16 UNL     1       5.084   2.095  10.119  1.00  0.00     0.025 C
ENDBRANCH  19  25
ENDBRANCH  14  15
ENDBRANCH  13  14
ENDBRANCH  12  13
ENDBRANCH   1  12
BRANCH   1  29
HETATM   29  C18 UNL     1       9.738  -5.519  15.905  1.00  0.00    -0.002 C
HETATM   30  C19 UNL     1       9.388  -6.890  16.437  1.00  0.00     0.005 C
HETATM   31  C20 UNL     1      10.475  -7.196  17.486  1.00  0.00     0.000 C
HETATM   32  C21 UNL     1      10.061  -6.402  18.694  1.00  0.00     0.000 C
HETATM   33  C22 UNL     1      10.150  -4.950  18.342  1.00  0.00     0.000 C
HETATM   34  C23 UNL     1      10.461  -4.689  16.881  1.00  0.00     0.005 C
ENDBRANCH   1  29
BRANCH   1  35
HETATM   35  C24 UNL     1       9.160  -5.014  13.525  1.00  0.00    -0.002 C
HETATM   36  C25 UNL     1       8.103  -5.724  12.743  1.00  0.00     0.005 C
HETATM   37  C26 UNL     1       8.790  -6.683  11.791  1.00  0.00     0.000 C
HETATM   38  C27 UNL     1      10.197  -6.811  12.231  1.00  0.00     0.000 C
HETATM   39  C28 UNL     1      10.427  -5.753  13.290  1.00  0.00     0.005 C
ENDBRANCH   1  35
TORSDOF 11
ENDMDL