MODEL 4
REMARK VINA RESULT: -8.981986822      1.735      2.597
REMARK  11 active torsions:
REMARK  status: ('A' for Active; 'I' for Inactive)
REMARK    1  A    between atoms: C2_2  and  C4_4
REMARK    2  A    between atoms: C4_4  and  N1_5
REMARK    3  A    between atoms: C4_4  and  C30_36
REMARK       I    between atoms: N1_5  and  C5_7
REMARK    4  A    between atoms: C5_7  and  C6_9
REMARK    5  A    between atoms: C9_12  and  N2_13
REMARK    6  A    between atoms: N2_13  and  C10_14
REMARK    7  A    between atoms: N2_13  and  C16_20
REMARK    8  A    between atoms: C10_14  and  C11_15
REMARK    9  A    between atoms: C24_28  and  C25_29
REMARK   10  A    between atoms: C25_29  and  C26_30
REMARK   11  A    between atoms: C26_30  and  O2_31
ROOT
HETATM    1  N2  UNL     1       6.407  -3.268  15.522  1.00  0.00    -0.359 N
ENDROOT
BRANCH   1   2
HETATM    2  C9  UNL     1       5.742  -2.104  15.111  1.00  0.00    -0.011 C
HETATM    3  C8  UNL     1       4.422  -2.499  14.359  1.00  0.00     0.053 C
HETATM    4  C7  UNL     1       3.414  -1.454  14.543  1.00  0.00     0.020 C
HETATM    5  C6  UNL     1       3.899  -0.046  14.447  1.00  0.00     0.078 C
HETATM    6  C29 UNL     1       5.308   0.215  14.820  1.00  0.00     0.020 C
HETATM    7  C28 UNL     1       6.234  -0.941  14.414  1.00  0.00     0.053 C
BRANCH   5   8
HETATM    8  C5  UNL     1       3.646   0.545  13.112  1.00  0.00     0.222 C
HETATM    9  N1  UNL     1       2.361   1.033  12.686  1.00  0.00    -0.346 N
ATOM     10  H1  UNL     1       1.533   0.996  13.282  1.00  0.00     0.163 HD
HETATM   11  O1  UNL     1       4.646   0.607  12.321  1.00  0.00    -0.273 OA
BRANCH   9  12
HETATM   12  C4  UNL     1       2.334   1.588  11.332  1.00  0.00     0.189 C
BRANCH  12  13
HETATM   13  C2  UNL     1       1.280   0.807  10.573  1.00  0.00     0.010 C
HETATM   14  C1  UNL     1       1.974  -0.043   9.498  1.00  0.00     0.012 C
HETATM   15  C3  UNL     1       0.540  -0.146  11.457  1.00  0.00     0.012 C
ENDBRANCH  12  13
BRANCH  12  16
HETATM   16  C30 UNL     1       1.814   2.979  11.549  1.00  0.00     0.197 C
HETATM   17  O3  UNL     1       2.606   3.951  11.323  1.00  0.00    -0.646 OA
HETATM   18  O4  UNL     1       0.531   3.216  11.963  1.00  0.00    -0.646 OA
ENDBRANCH  12  16
ENDBRANCH   9  12
ENDBRANCH   5   8
ENDBRANCH   1   2
BRANCH   1  19
HETATM   19  C10 UNL     1       5.522  -4.353  15.841  1.00  0.00     0.133 C
BRANCH  19  20
HETATM   20  C11 UNL     1       5.168  -4.453  17.306  1.00  0.00     0.004 C
HETATM   21  C12 UNL     1       5.306  -5.914  17.676  1.00  0.00     0.006 C
HETATM   22  C13 UNL     1       4.206  -6.206  18.678  1.00  0.00     0.000 C
HETATM   23  C14 UNL     1       3.343  -4.990  18.799  1.00  0.00     0.000 C
HETATM   24  C15 UNL     1       3.715  -4.203  17.560  1.00  0.00     0.006 C
ENDBRANCH  19  20
ENDBRANCH   1  19
BRANCH   1  25
HETATM   25  C16 UNL     1       7.745  -3.501  15.255  1.00  0.00     0.002 C
HETATM   26  C17 UNL     1       8.045  -3.688  13.760  1.00  0.00     0.033 C
HETATM   27  C18 UNL     1       8.220  -5.112  13.371  1.00  0.00     0.015 C
HETATM   28  C22 UNL     1       9.370  -3.021  13.480  1.00  0.00     0.015 C
HETATM   29  C19 UNL     1       9.376  -5.744  14.143  1.00  0.00    -0.012 C
HETATM   30  C20 UNL     1      10.666  -5.049  13.885  1.00  0.00     0.009 C
HETATM   31  C27 UNL     1       8.933  -5.666  15.588  1.00  0.00     0.020 C
HETATM   32  C21 UNL     1      10.473  -3.604  14.326  1.00  0.00    -0.012 C
HETATM   33  C23 UNL     1      10.128  -3.624  15.787  1.00  0.00     0.020 C
HETATM   34  C24 UNL     1       8.744  -4.205  16.040  1.00  0.00     0.001 C
BRANCH  34  35
HETATM   35  C25 UNL     1       8.585  -4.251  17.537  1.00  0.00     0.041 C
BRANCH  35  36
HETATM   36  C26 UNL     1       9.131  -5.490  18.183  1.00  0.00     0.165 C
BRANCH  36  37
HETATM   37  O2  UNL     1      10.223  -5.086  19.003  1.00  0.00    -0.401 OA
ATOM     38  H2  UNL     1      11.007  -5.145  18.471  1.00  0.00     0.209 HD
ENDBRANCH  36  37
ENDBRANCH  35  36
ENDBRANCH  34  35
ENDBRANCH   1  25
TORSDOF 11
ENDMDL