MODEL 4
REMARK VINA RESULT: -8.136415585      1.203      1.636
REMARK  11 active torsions:
REMARK  status: ('A' for Active; 'I' for Inactive)
REMARK    1  A    between atoms: C2_2  and  C3_3
REMARK    2  A    between atoms: C3_3  and  C5_5
REMARK    3  A    between atoms: C5_5  and  N1_6
REMARK    4  A    between atoms: C5_5  and  C22_29
REMARK       I    between atoms: N1_6  and  C6_8
REMARK    5  A    between atoms: C6_8  and  C7_10
REMARK    6  A    between atoms: C12_15  and  C13_16
REMARK    7  A    between atoms: C13_16  and  C14_17
REMARK    8  A    between atoms: C14_17  and  N2_19
REMARK    9  A    between atoms: N2_19  and  C15_21
REMARK   10  A    between atoms: C15_21  and  C16_22
REMARK       I    between atoms: C22_29  and  N3_31
REMARK   11  A    between atoms: N3_31  and  C23_33
ROOT
HETATM    1  C7  UNL     1       7.432  -3.143  13.745  1.00  0.00     0.082 C
HETATM    2  C8  UNL     1       6.521  -3.818  12.709  1.00  0.00     0.014 C
HETATM    3  C9  UNL     1       7.248  -4.968  12.044  1.00  0.00     0.001 C
HETATM    4  C10 UNL     1       8.374  -5.351  12.967  1.00  0.00     0.000 C
HETATM    5  C11 UNL     1       7.959  -5.409  14.419  1.00  0.00     0.006 C
HETATM    6  C12 UNL     1       7.468  -4.063  14.943  1.00  0.00     0.005 C
ENDROOT
BRANCH   1   7
HETATM    7  C6  UNL     1       6.804  -1.841  14.035  1.00  0.00     0.223 C
HETATM    8  N1  UNL     1       6.365  -1.033  12.966  1.00  0.00    -0.347 N
ATOM      9  H1  UNL     1       6.491  -1.366  12.011  1.00  0.00     0.163 HD
HETATM   10  O1  UNL     1       6.649  -1.434  15.204  1.00  0.00    -0.273 OA
BRANCH   8  11
HETATM   11  C5  UNL     1       5.730   0.277  13.188  1.00  0.00     0.180 C
BRANCH  11  12
HETATM   12  C3  UNL     1       6.651   1.354  12.679  1.00  0.00     0.013 C
HETATM   13  C4  UNL     1       7.666   1.803  13.709  1.00  0.00     0.012 C
BRANCH  12  14
HETATM   14  C2  UNL     1       7.315   1.090  11.375  1.00  0.00     0.002 C
HETATM   15  C1  UNL     1       7.237   2.385  10.554  1.00  0.00     0.005 C
ENDBRANCH  12  14
ENDBRANCH  11  12
BRANCH  11  16
HETATM   16  C22 UNL     1       4.495   0.264  12.393  1.00  0.00     0.241 C
HETATM   17  O3  UNL     1       4.287  -0.618  11.502  1.00  0.00    -0.271 OA
HETATM   18  N3  UNL     1       3.471   1.216  12.569  1.00  0.00    -0.355 N
ATOM     19  H3  UNL     1       3.596   1.936  13.280  1.00  0.00     0.162 HD
BRANCH  18  20
HETATM   20  C23 UNL     1       2.246   1.223  11.789  1.00  0.00     0.084 C
HETATM   21  C24 UNL     1       1.771   2.634  11.519  1.00  0.00     0.025 C
HETATM   22  C25 UNL     1       0.601   2.500  10.537  1.00  0.00     0.002 C
HETATM   23  C26 UNL     1      -0.528   1.814  11.309  1.00  0.00     0.000 C
HETATM   24  C27 UNL     1      -0.105   0.436  11.760  1.00  0.00     0.002 C
HETATM   25  C28 UNL     1       1.183   0.524  12.576  1.00  0.00     0.025 C
ENDBRANCH  18  20
ENDBRANCH  11  16
ENDBRANCH   8  11
ENDBRANCH   1   7
BRANCH   6  26
HETATM   26  C13 UNL     1       8.450  -3.602  15.985  1.00  0.00     0.074 C
BRANCH  26  27
HETATM   27  C14 UNL     1       8.233  -4.267  17.276  1.00  0.00     0.073 C
HETATM   28  S1  UNL     1       9.421  -5.203  17.909  1.00  0.00    -0.066 SA
BRANCH  27  29
HETATM   29  N2  UNL     1       7.029  -4.154  18.023  1.00  0.00    -0.382 N
ATOM     30  H2  UNL     1       6.880  -3.321  18.592  1.00  0.00     0.160 HD
BRANCH  29  31
HETATM   31  C15 UNL     1       6.024  -5.163  18.007  1.00  0.00     0.152 C
BRANCH  31  32
HETATM   32  C16 UNL     1       4.834  -4.813  17.151  1.00  0.00     0.139 C
HETATM   33  C17 UNL     1       4.521  -3.344  17.158  1.00  0.00     0.034 C
HETATM   34  C18 UNL     1       3.435  -3.069  16.172  1.00  0.00     0.003 C
HETATM   35  C19 UNL     1       3.474  -3.941  14.954  1.00  0.00     0.002 C
HETATM   36  C20 UNL     1       3.106  -5.363  15.209  1.00  0.00     0.026 C
HETATM   37  C21 UNL     1       2.725  -5.650  16.636  1.00  0.00     0.168 C
HETATM   38  O2  UNL     1       3.736  -5.531  17.547  1.00  0.00    -0.384 OA
ENDBRANCH  31  32
ENDBRANCH  29  31
ENDBRANCH  27  29
ENDBRANCH  26  27
ENDBRANCH   6  26
TORSDOF 11
ENDMDL