MODEL 3
REMARK VINA RESULT: -8.295286075      1.143      1.671
REMARK  12 active torsions:
REMARK  status: ('A' for Active; 'I' for Inactive)
REMARK    1  A    between atoms: C2_2  and  C4_4
REMARK    2  A    between atoms: C4_4  and  C5_5
REMARK    3  A    between atoms: C5_5  and  N1_6
REMARK    4  A    between atoms: C5_5  and  C19_23
REMARK       I    between atoms: N1_6  and  C6_8
REMARK       I    between atoms: C6_8  and  N2_10
REMARK    5  A    between atoms: C10_14  and  C11_15
REMARK    6  A    between atoms: C11_15  and  C12_16
REMARK    7  A    between atoms: C12_16  and  C13_17
REMARK       I    between atoms: C19_23  and  N3_25
REMARK    8  A    between atoms: N3_25  and  C20_27
REMARK    9  A    between atoms: C20_27  and  C21_28
REMARK   10  A    between atoms: C20_27  and  C24_31
REMARK   11  A    between atoms: C24_31  and  O3_32
REMARK   12  A    between atoms: C24_31  and  C25_34
ROOT
HETATM    1  C5  UNL     1       6.630  -1.644  14.507  1.00  0.00     0.178 C
ENDROOT
BRANCH   1   2
HETATM    2  C4  UNL     1       8.031  -1.710  14.898  1.00  0.00     0.038 C
BRANCH   2   3
HETATM    3  C2  UNL     1       8.797  -2.951  14.933  1.00  0.00    -0.020 C
HETATM    4  C1  UNL     1       9.908  -2.743  15.997  1.00  0.00     0.009 C
HETATM    5  C3  UNL     1       9.509  -3.412  13.709  1.00  0.00     0.009 C
ENDBRANCH   2   3
ENDBRANCH   1   2
BRANCH   1   6
HETATM    6  N1  UNL     1       6.410  -0.936  13.278  1.00  0.00    -0.330 N
HETATM    7  C6  UNL     1       5.571   0.182  13.095  1.00  0.00     0.319 C
HETATM    8  O1  UNL     1       4.905   0.672  14.069  1.00  0.00    -0.247 OA
HETATM    9  N2  UNL     1       5.450   0.780  11.838  1.00  0.00    -0.330 N
HETATM   10  C7  UNL     1       6.125   0.413  10.619  1.00  0.00     0.128 C
HETATM   11  C10 UNL     1       4.585   1.910  11.511  1.00  0.00     0.089 C
HETATM   12  C8  UNL     1       5.952   1.574   9.657  1.00  0.00     0.022 C
HETATM   13  C9  UNL     1       5.432   2.696  10.545  1.00  0.00     0.027 C
ATOM     14  H1  UNL     1       6.909  -1.276  12.455  1.00  0.00     0.165 HD
BRANCH  11  15
HETATM   15  C11 UNL     1       3.359   1.360  10.839  1.00  0.00     0.026 C
BRANCH  15  16
HETATM   16  C12 UNL     1       2.151   2.122  11.298  1.00  0.00     0.007 C
BRANCH  16  17
HETATM   17  C13 UNL     1       0.966   1.172  11.177  1.00  0.00    -0.010 C
HETATM   18  C14 UNL     1      -0.103   1.535  12.232  1.00  0.00     0.009 C
HETATM   19  C15 UNL     1      -0.169   0.232  12.963  1.00  0.00    -0.013 C
HETATM   20  C16 UNL     1      -0.123  -0.786  11.819  1.00  0.00     0.009 C
HETATM   21  C18 UNL     1       1.315  -0.096  13.134  1.00  0.00     0.009 C
HETATM   22  C17 UNL     1       1.291  -0.212  11.626  1.00  0.00    -0.010 C
ENDBRANCH  16  17
ENDBRANCH  15  16
ENDBRANCH  11  15
ENDBRANCH   1   6
BRANCH   1  23
HETATM   23  C19 UNL     1       5.828  -2.881  14.600  1.00  0.00     0.240 C
HETATM   24  O2  UNL     1       5.505  -3.553  13.564  1.00  0.00    -0.271 OA
HETATM   25  N3  UNL     1       5.394  -3.363  15.836  1.00  0.00    -0.352 N
ATOM     26  H3  UNL     1       5.645  -2.848  16.680  1.00  0.00     0.163 HD
BRANCH  25  27
HETATM   27  C20 UNL     1       4.585  -4.588  15.965  1.00  0.00     0.116 C
BRANCH  27  28
HETATM   28  C21 UNL     1       3.265  -4.185  16.471  1.00  0.00     0.003 C
HETATM   29  C22 UNL     1       3.396  -4.015  17.999  1.00  0.00     0.011 C
HETATM   30  C23 UNL     1       2.143  -5.127  16.213  1.00  0.00     0.011 C
ENDBRANCH  27  28
BRANCH  27  31
HETATM   31  C24 UNL     1       5.349  -5.605  16.778  1.00  0.00     0.145 C
BRANCH  31  32
HETATM   32  O3  UNL     1       5.223  -6.903  16.370  1.00  0.00    -0.393 OA
ATOM     33  H3  UNL     1       5.349  -7.055  15.441  1.00  0.00     0.210 HD
ENDBRANCH  31  32
BRANCH  31  34
HETATM   34  C25 UNL     1       6.734  -5.260  17.154  1.00  0.00     0.016 C
HETATM   35  C26 UNL     1       6.796  -5.383  18.692  1.00  0.00     0.007 C
HETATM   36  C27 UNL     1       7.296  -6.752  19.091  1.00  0.00     0.000 C
HETATM   37  C28 UNL     1       8.801  -6.731  18.892  1.00  0.00     0.000 C
HETATM   38  C29 UNL     1       9.041  -6.008  17.589  1.00  0.00     0.000 C
HETATM   39  C30 UNL     1       7.836  -6.109  16.639  1.00  0.00     0.007 C
ENDBRANCH  31  34
ENDBRANCH  27  31
ENDBRANCH  25  27
ENDBRANCH   1  23
TORSDOF 12
ENDMDL