MODEL 2
REMARK VINA RESULT: -7.575334944      1.715      5.409
REMARK  11 active torsions:
REMARK  status: ('A' for Active; 'I' for Inactive)
REMARK    1  A    between atoms: C2_2  and  C4_4
REMARK    2  A    between atoms: C4_4  and  C5_5
REMARK    3  A    between atoms: C5_5  and  C6_6
REMARK    4  A    between atoms: C6_6  and  N1_7
REMARK    5  A    between atoms: N2_10  and  C9_11
REMARK    6  A    between atoms: C9_11  and  C10_12
REMARK    7  A    between atoms: C10_12  and  N3_13
REMARK    8  A    between atoms: N3_13  and  C11_15
REMARK    9  A    between atoms: C11_15  and  C12_16
REMARK   10  A    between atoms: C12_16  and  N4_17
REMARK   11  A    between atoms: N4_17  and  C13_18
ROOT
HETATM    1  C13 UNL     1       4.887  -3.495  14.199  1.00  0.00     0.133 A
HETATM    2  C14 UNL     1       4.364  -4.298  15.266  1.00  0.00     0.033 A
HETATM    3  C15 UNL     1       4.787  -5.566  15.501  1.00  0.00     0.025 A
HETATM    4  C16 UNL     1       4.313  -6.331  16.552  1.00  0.00    -0.051 A
HETATM    5  C17 UNL     1       3.353  -5.753  17.410  1.00  0.00    -0.050 A
HETATM    6  C18 UNL     1       2.922  -4.488  17.180  1.00  0.00     0.038 A
HETATM    7  C19 UNL     1       3.431  -3.744  16.102  1.00  0.00     0.048 A
HETATM    8  N5  UNL     1       2.981  -2.504  15.975  1.00  0.00    -0.341 N
ATOM      9  H5  UNL     1       2.282  -2.134  16.619  1.00  0.00     0.167 HD
HETATM   10  C20 UNL     1       3.473  -1.736  14.965  1.00  0.00     0.120 A
HETATM   11  N6  UNL     1       3.213  -0.463  14.639  1.00  0.00    -0.341 N
ATOM     12  H6  UNL     1       2.545   0.135  15.124  1.00  0.00     0.167 HD
HETATM   13  C21 UNL     1       3.947  -0.080  13.593  1.00  0.00     0.045 A
HETATM   14  C22 UNL     1       4.077   1.116  12.918  1.00  0.00     0.030 A
HETATM   15  C23 UNL     1       4.975   1.250  11.871  1.00  0.00     0.002 A
HETATM   16  C24 UNL     1       5.737   0.192  11.499  1.00  0.00     0.001 A
HETATM   17  C25 UNL     1       5.629  -1.015  12.157  1.00  0.00     0.015 A
HETATM   18  C26 UNL     1       4.747  -1.151  13.193  1.00  0.00     0.008 A
HETATM   19  C27 UNL     1       4.422  -2.205  14.079  1.00  0.00     0.062 A
HETATM   20  C28 UNL     1       3.008  -6.761  18.461  1.00  0.00     0.039 C
HETATM   21  C29 UNL     1       4.345  -7.469  18.566  1.00  0.00     0.009 C
HETATM   22  C30 UNL     1       4.616  -7.724  17.077  1.00  0.00     0.039 C
ENDROOT
BRANCH   1  23
HETATM   23  N4  UNL     1       5.661  -4.034  13.469  1.00  0.00    -0.415 NA
BRANCH  23  24
HETATM   24  C12 UNL     1       6.595  -4.578  12.662  1.00  0.00     0.199 C
BRANCH  24  25
HETATM   25  C11 UNL     1       7.720  -5.365  13.323  1.00  0.00     0.115 C
BRANCH  25  26
HETATM   26  N3  UNL     1       8.996  -5.353  12.806  1.00  0.00    -0.395 N
ATOM     27  H3  UNL     1       9.167  -5.347  11.801  1.00  0.00     0.159 HD
BRANCH  26  28
HETATM   28  C10 UNL     1      10.106  -5.347  13.785  1.00  0.00     0.149 C
BRANCH  28  29
HETATM   29  C9  UNL     1      10.357  -3.919  14.183  1.00  0.00     0.292 C
BRANCH  29  30
HETATM   30  N2  UNL     1      10.194  -3.726  15.583  1.00  0.00     0.093 N
HETATM   31  C8  UNL     1      10.075  -5.037  16.257  1.00  0.00     0.302 C
HETATM   32  C7  UNL     1       9.752  -4.762  17.698  1.00  0.00     0.302 C
HETATM   33  N1  UNL     1       8.342  -4.398  17.777  1.00  0.00     0.091 N
HETATM   34  C32 UNL     1       7.926  -3.744  16.552  1.00  0.00     0.302 C
HETATM   35  C31 UNL     1       9.018  -2.943  15.917  1.00  0.00     0.302 C
BRANCH  33  36
HETATM   36  C6  UNL     1       7.509  -5.524  18.114  1.00  0.00     0.273 C
BRANCH  36  37
HETATM   37  C5  UNL     1       8.187  -6.435  19.067  1.00  0.00     0.034 C
BRANCH  37  38
HETATM   38  C4  UNL     1       7.949  -7.891  18.865  1.00  0.00     0.034 C
BRANCH  38  39
HETATM   39  C2  UNL     1       8.876  -8.718  18.137  1.00  0.00    -0.093 C
HETATM   40  C1  UNL     1      10.161  -8.407  17.931  1.00  0.00     0.014 C
HETATM   41  C3  UNL     1       8.420  -9.965  17.424  1.00  0.00     0.042 C
ENDBRANCH  38  39
ENDBRANCH  37  38
ENDBRANCH  36  37
ENDBRANCH  33  36
ENDBRANCH  29  30
ENDBRANCH  28  29
ENDBRANCH  26  28
ENDBRANCH  25  26
ENDBRANCH  24  25
ENDBRANCH  23  24
ENDBRANCH   1  23
TORSDOF 11
ENDMDL