MODEL 5
REMARK VINA RESULT: -8.823736555      0.835      1.313
REMARK  10 active torsions:
REMARK  status: ('A' for Active; 'I' for Inactive)
REMARK    1  A    between atoms: C6_6  and  C7_7
REMARK    2  A    between atoms: C7_7  and  S1_8
REMARK    3  A    between atoms: S1_8  and  C8_9
REMARK    4  A    between atoms: C8_9  and  C9_10
REMARK    5  A    between atoms: C9_10  and  C10_11
REMARK    6  A    between atoms: C11_15  and  C12_16
REMARK    7  A    between atoms: C12_16  and  N2_17
REMARK    8  A    between atoms: N5_23  and  C15_24
REMARK    9  A    between atoms: C15_24  and  C16_25
REMARK   10  A    between atoms: C16_25  and  C17_26
ROOT
HETATM    1  C10 UNL     1       6.042  -2.331  13.707  1.00  0.00     0.214 C
HETATM    2  N1  UNL     1       5.390  -3.390  14.517  1.00  0.00    -0.061 N
ATOM      3  H11 UNL     1       6.009  -4.154  14.792  1.00  0.00     0.278 HD
ATOM      4  H12 UNL     1       4.728  -3.970  14.002  1.00  0.00     0.278 HD
HETATM    5  C11 UNL     1       4.805  -2.652  15.636  1.00  0.00     0.221 C
HETATM    6  C14 UNL     1       3.685  -1.864  15.058  1.00  0.00     0.152 C
HETATM    7  N5  UNL     1       3.848  -1.318  13.767  1.00  0.00    -0.400 N
HETATM    8  C27 UNL     1       5.122  -1.348  13.140  1.00  0.00     0.049 C
HETATM    9  C28 UNL     1       4.865  -1.437  11.648  1.00  0.00     0.040 C
HETATM   10  C29 UNL     1       5.842   0.021  13.290  1.00  0.00     0.040 C
ENDROOT
BRANCH   7  11
HETATM   11  C15 UNL     1       3.129  -0.078  13.709  1.00  0.00     0.118 C
BRANCH  11  12
HETATM   12  C16 UNL     1       1.810  -0.202  12.955  1.00  0.00     0.029 C
BRANCH  12  13
HETATM   13  C17 UNL     1       1.737   0.768  11.826  1.00  0.00    -0.038 C
HETATM   14  C18 UNL     1       0.433   1.551  12.007  1.00  0.00     0.014 C
HETATM   15  C19 UNL     1       0.261   2.619  10.957  1.00  0.00    -0.013 C
HETATM   16  C20 UNL     1       0.312   2.031   9.579  1.00  0.00     0.009 C
HETATM   17  C24 UNL     1       1.372   3.649  11.062  1.00  0.00     0.009 C
HETATM   18  C21 UNL     1       1.628   1.307   9.440  1.00  0.00    -0.013 C
HETATM   19  C22 UNL     1       2.817   2.191   9.605  1.00  0.00     0.009 C
HETATM   20  C26 UNL     1       1.742   0.175  10.463  1.00  0.00     0.014 C
HETATM   21  C23 UNL     1       2.673   2.905  10.943  1.00  0.00    -0.013 C
HETATM   22  C25 UNL     1       2.834   1.827  11.996  1.00  0.00     0.014 C
ENDBRANCH  12  13
ENDBRANCH  11  12
ENDBRANCH   7  11
BRANCH   5  23
HETATM   23  C12 UNL     1       4.314  -3.630  16.696  1.00  0.00     0.156 C
BRANCH  23  24
HETATM   24  N2  UNL     1       5.354  -3.897  17.667  1.00  0.00    -0.365 N
HETATM   25  C13 UNL     1       6.080  -4.950  17.541  1.00  0.00     0.197 C
HETATM   26  N3  UNL     1       7.085  -5.165  18.520  1.00  0.00    -0.067 NA
HETATM   27  N4  UNL     1       5.914  -5.881  16.483  1.00  0.00    -0.067 NA
ATOM     28  H2  UNL     1       5.509  -3.255  18.444  1.00  0.00     0.161 HD
ENDBRANCH  23  24
ENDBRANCH   5  23
BRANCH   1  29
HETATM   29  C9  UNL     1       7.075  -3.023  12.915  1.00  0.00     0.045 C
BRANCH  29  30
HETATM   30  C8  UNL     1       6.906  -4.499  12.695  1.00  0.00     0.076 C
BRANCH  30  31
HETATM   31  S1  UNL     1       8.255  -5.459  13.403  1.00  0.00    -0.164 SA
BRANCH  31  32
HETATM   32  C7  UNL     1       9.409  -4.450  14.313  1.00  0.00     0.112 C
BRANCH  32  33
HETATM   33  C6  UNL     1       9.773  -5.106  15.581  1.00  0.00    -0.048 A
HETATM   34  C5  UNL     1      10.460  -4.448  16.569  1.00  0.00     0.008 A
HETATM   35  C4  UNL     1      10.810  -5.102  17.753  1.00  0.00     0.001 A
HETATM   36  C3  UNL     1      10.430  -6.425  17.874  1.00  0.00     0.007 A
HETATM   37  C2  UNL     1       9.743  -7.079  16.889  1.00  0.00    -0.061 A
HETATM   38  C1  UNL     1       9.343  -8.501  17.045  1.00  0.00     0.048 C
HETATM   39  C30 UNL     1       9.409  -6.435  15.743  1.00  0.00     0.014 A
ENDBRANCH  32  33
ENDBRANCH  31  32
ENDBRANCH  30  31
ENDBRANCH  29  30
ENDBRANCH   1  29
TORSDOF 10
ENDMDL