MODEL 2
REMARK VINA RESULT: -9.053605634      1.182      1.686
REMARK  10 active torsions:
REMARK  status: ('A' for Active; 'I' for Inactive)
REMARK    1  A    between atoms: C2_2  and  C3_3
REMARK    2  A    between atoms: C3_3  and  C4_4
REMARK    3  A    between atoms: C4_4  and  C5_5
REMARK    4  A    between atoms: C7_7  and  C8_8
REMARK    5  A    between atoms: C17_17  and  C18_18
REMARK    6  A    between atoms: C18_18  and  C20_20
REMARK    7  A    between atoms: C20_20  and  C21_21
REMARK    8  A    between atoms: C21_21  and  C22_22
REMARK       I    between atoms: C22_22  and  N1_24
REMARK    9  A    between atoms: N1_24  and  C23_26
REMARK   10  A    between atoms: C23_26  and  C24_27
ROOT
HETATM    1  C5  UNL     1       3.517  -0.144  13.285  1.00  0.00    -0.009 C
HETATM    2  C6  UNL     1       3.877  -0.467  11.840  1.00  0.00     0.010 C
HETATM    3  C7  UNL     1       5.370  -0.678  11.888  1.00  0.00    -0.006 C
HETATM    4  C10 UNL     1       5.768  -0.697  13.321  1.00  0.00    -0.032 C
HETATM    5  C11 UNL     1       6.168   0.704  13.741  1.00  0.00     0.016 C
HETATM    6  C12 UNL     1       4.489  -1.010  14.046  1.00  0.00    -0.002 C
HETATM    7  C13 UNL     1       4.149  -2.450  14.101  1.00  0.00     0.006 C
HETATM    8  C14 UNL     1       5.301  -3.218  14.685  1.00  0.00     0.010 C
HETATM    9  C15 UNL     1       6.555  -3.063  13.805  1.00  0.00    -0.036 C
HETATM   10  C16 UNL     1       6.323  -3.940  12.626  1.00  0.00     0.016 C
HETATM   11  C17 UNL     1       7.674  -3.666  14.647  1.00  0.00    -0.002 C
HETATM   12  C28 UNL     1       8.051  -2.495  15.517  1.00  0.00     0.006 C
HETATM   13  C29 UNL     1       7.709  -1.234  14.793  1.00  0.00     0.006 C
HETATM   14  C30 UNL     1       6.887  -1.650  13.559  1.00  0.00     0.003 C
ENDROOT
BRANCH  11  15
HETATM   15  C18 UNL     1       8.803  -4.247  13.904  1.00  0.00    -0.013 C
HETATM   16  C19 UNL     1      10.131  -3.546  14.025  1.00  0.00     0.010 C
BRANCH  15  17
HETATM   17  C20 UNL     1       9.030  -5.672  14.344  1.00  0.00     0.014 C
BRANCH  17  18
HETATM   18  C21 UNL     1       9.880  -5.831  15.555  1.00  0.00     0.103 C
BRANCH  18  19
HETATM   19  C22 UNL     1       9.187  -6.823  16.474  1.00  0.00     0.221 C
HETATM   20  O1  UNL     1       9.906  -7.630  17.058  1.00  0.00    -0.273 OA
HETATM   21  N1  UNL     1       7.795  -6.782  16.619  1.00  0.00    -0.340 N
ATOM     22  H1  UNL     1       7.350  -6.059  16.054  1.00  0.00     0.167 HD
BRANCH  21  23
HETATM   23  C23 UNL     1       6.881  -7.533  17.384  1.00  0.00     0.087 C
BRANCH  23  24
HETATM   24  C24 UNL     1       6.763  -7.374  18.841  1.00  0.00     0.209 C
HETATM   25  C25 UNL     1       6.757  -5.874  19.092  1.00  0.00     0.243 C
HETATM   26  O2  UNL     1       7.739  -5.345  19.615  1.00  0.00    -0.272 OA
HETATM   27  N2  UNL     1       5.626  -5.146  18.716  1.00  0.00    -0.278 N
HETATM   28  C26 UNL     1       4.337  -5.758  18.667  1.00  0.00     0.329 C
ATOM     29  H2  UNL     1       5.723  -4.160  18.474  1.00  0.00     0.173 HD
HETATM   30  O3  UNL     1       3.318  -5.109  18.331  1.00  0.00    -0.247 OA
HETATM   31  N3  UNL     1       4.289  -7.128  19.020  1.00  0.00    -0.278 N
HETATM   32  C27 UNL     1       5.486  -7.840  19.402  1.00  0.00     0.243 C
ATOM     33  H3  UNL     1       3.396  -7.621  19.004  1.00  0.00     0.173 HD
HETATM   34  O4  UNL     1       5.393  -8.818  20.194  1.00  0.00    -0.272 OA
ENDBRANCH  23  24
ENDBRANCH  21  23
ENDBRANCH  18  19
ENDBRANCH  17  18
ENDBRANCH  15  17
ENDBRANCH  11  15
BRANCH   3  35
HETATM   35  C8  UNL     1       6.126   0.268  11.009  1.00  0.00     0.001 C
HETATM   36  C9  UNL     1       5.152   1.105  10.170  1.00  0.00     0.005 C
ENDBRANCH   3  35
BRANCH   1  37
HETATM   37  C4  UNL     1       2.090  -0.441  13.521  1.00  0.00     0.005 C
BRANCH  37  38
HETATM   38  C3  UNL     1       1.219  -0.265  12.297  1.00  0.00     0.000 C
BRANCH  38  39
HETATM   39  C2  UNL     1      -0.059   0.461  12.739  1.00  0.00    -0.005 C
HETATM   40  C1  UNL     1      -0.268   1.718  11.960  1.00  0.00     0.005 C
ENDBRANCH  38  39
ENDBRANCH  37  38
ENDBRANCH   1  37
TORSDOF 10
ENDMDL