MODEL 4
REMARK VINA RESULT: -8.843868200      1.875      3.724
REMARK  10 active torsions:
REMARK  status: ('A' for Active; 'I' for Inactive)
REMARK    1  A    between atoms: C2_2  and  N1_3
REMARK    2  A    between atoms: C2_2  and  C28_36
REMARK       I    between atoms: N1_3  and  C3_5
REMARK    3  A    between atoms: C3_5  and  C4_7
REMARK    4  A    between atoms: C4_7  and  C5_8
REMARK    5  A    between atoms: C6_11  and  C7_12
REMARK    6  A    between atoms: C18_23  and  C19_24
REMARK    7  A    between atoms: C19_24  and  S1_25
REMARK    8  A    between atoms: S1_25  and  C20_28
REMARK    9  A    between atoms: C20_28  and  C21_29
REMARK   10  A    between atoms: C21_29  and  C22_30
ROOT
HETATM    1  C5  UNL     1       5.314  -0.863  14.612  1.00  0.00     0.025 A
HETATM    2  N2  UNL     1       4.247  -0.123  14.320  1.00  0.00    -0.361 N
ATOM      3  H2  UNL     1       3.705   0.438  14.978  1.00  0.00     0.165 HD
HETATM    4  C6  UNL     1       4.012  -0.248  12.994  1.00  0.00     0.018 A
HETATM    5  C17 UNL     1       4.952  -1.087  12.450  1.00  0.00     0.035 A
HETATM    6  C18 UNL     1       5.806  -1.503  13.452  1.00  0.00    -0.019 A
ENDROOT
BRANCH   6   7
HETATM    7  C19 UNL     1       6.981  -2.391  13.434  1.00  0.00     0.180 C
BRANCH   7   8
HETATM    8  S1  UNL     1       6.506  -4.034  13.029  1.00  0.00     0.148 S
HETATM    9  O2  UNL     1       5.062  -4.262  13.294  1.00  0.00    -0.228 OA
HETATM   10  O3  UNL     1       6.910  -4.321  11.606  1.00  0.00    -0.228 OA
BRANCH   8  11
HETATM   11  C20 UNL     1       7.404  -5.207  14.046  1.00  0.00     0.141 C
BRANCH  11  12
HETATM   12  C21 UNL     1       8.692  -5.597  13.367  1.00  0.00     0.019 C
BRANCH  12  13
HETATM   13  C22 UNL     1       9.810  -5.506  14.371  1.00  0.00    -0.014 C
HETATM   14  C23 UNL     1       9.349  -5.186  15.763  1.00  0.00     0.005 C
HETATM   15  C24 UNL     1      10.435  -4.384  16.471  1.00  0.00     0.000 C
HETATM   16  C25 UNL     1      10.581  -3.016  15.838  1.00  0.00     0.000 C
HETATM   17  C26 UNL     1      10.530  -3.111  14.325  1.00  0.00     0.000 C
HETATM   18  C27 UNL     1      10.886  -4.537  13.895  1.00  0.00     0.005 C
ENDBRANCH  12  13
ENDBRANCH  11  12
ENDBRANCH   8  11
ENDBRANCH   7   8
ENDBRANCH   6   7
BRANCH   1  19
HETATM   19  C4  UNL     1       5.955  -1.002  15.945  1.00  0.00     0.160 C
BRANCH  19  20
HETATM   20  C3  UNL     1       5.586  -2.309  16.591  1.00  0.00     0.224 C
HETATM   21  N1  UNL     1       4.224  -2.706  16.663  1.00  0.00    -0.347 N
ATOM     22  H1  UNL     1       3.527  -2.086  16.251  1.00  0.00     0.163 HD
HETATM   23  O1  UNL     1       6.462  -3.039  17.057  1.00  0.00    -0.273 OA
BRANCH  21  24
HETATM   24  C2  UNL     1       3.762  -3.916  17.275  1.00  0.00     0.181 C
HETATM   25  C1  UNL     1       2.449  -3.629  17.959  1.00  0.00     0.043 C
BRANCH  24  26
HETATM   26  C28 UNL     1       3.651  -5.029  16.273  1.00  0.00     0.196 C
HETATM   27  O4  UNL     1       4.529  -5.915  16.172  1.00  0.00    -0.646 OA
HETATM   28  O5  UNL     1       2.553  -5.090  15.429  1.00  0.00    -0.646 OA
ENDBRANCH  24  26
ENDBRANCH  21  24
ENDBRANCH  19  20
ENDBRANCH   1  19
BRANCH   4  29
HETATM   29  C7  UNL     1       2.934   0.407  12.195  1.00  0.00     0.003 C
HETATM   30  C8  UNL     1       2.961  -0.286  10.847  1.00  0.00     0.020 C
HETATM   31  C9  UNL     1       1.817   0.235  10.001  1.00  0.00    -0.013 C
HETATM   32  C10 UNL     1       0.530  -0.059  10.716  1.00  0.00     0.009 C
HETATM   33  C14 UNL     1       2.033   1.717   9.834  1.00  0.00     0.009 C
HETATM   34  C11 UNL     1       0.493   0.661  12.048  1.00  0.00    -0.013 C
HETATM   35  C12 UNL     1       0.644   2.136  11.779  1.00  0.00     0.009 C
HETATM   36  C16 UNL     1       1.623   0.135  12.895  1.00  0.00     0.020 C
HETATM   37  C13 UNL     1       2.009   2.406  11.171  1.00  0.00    -0.013 C
HETATM   38  C15 UNL     1       3.091   1.888  12.097  1.00  0.00     0.020 C
ENDBRANCH   4  29
TORSDOF 10
ENDMDL