MODEL 5
REMARK VINA RESULT: -8.008499803      2.868      5.137
REMARK  12 active torsions:
REMARK  status: ('A' for Active; 'I' for Inactive)
REMARK       I    between atoms: C2_2  and  N1_4
REMARK    1  A    between atoms: N1_4  and  C3_5
REMARK    2  A    between atoms: N1_4  and  C10_18
REMARK    3  A    between atoms: C3_5  and  C4_6
REMARK    4  A    between atoms: C4_6  and  C5_7
REMARK    5  A    between atoms: C5_7  and  N2_8
REMARK    6  A    between atoms: N2_8  and  C6_10
REMARK    7  A    between atoms: C6_10  and  C7_11
REMARK    8  A    between atoms: C7_11  and  C8_12
REMARK    9  A    between atoms: C8_12  and  C9_13
REMARK   10  A    between atoms: C9_13  and  N3_14
REMARK   11  A    between atoms: C10_18  and  C11_19
REMARK   12  A    between atoms: C16_24  and  O2_25
ROOT
HETATM    1  C11 UNL     1       4.945  -0.177  12.876  1.00  0.00     0.012 C
HETATM    2  C12 UNL     1       5.302   0.698  14.013  1.00  0.00     0.007 C
HETATM    3  C13 UNL     1       6.485  -0.031  14.698  1.00  0.00     0.006 C
HETATM    4  C14 UNL     1       5.916  -1.441  14.642  1.00  0.00     0.001 C
HETATM    5  C15 UNL     1       6.845  -2.511  15.063  1.00  0.00     0.024 C
HETATM    6  C16 UNL     1       7.761  -1.914  16.142  1.00  0.00     0.123 C
HETATM    7  C17 UNL     1       8.855  -2.848  16.552  1.00  0.00     0.038 C
HETATM    8  C18 UNL     1       8.704  -4.167  15.873  1.00  0.00     0.004 C
HETATM    9  C19 UNL     1       9.644  -5.193  16.434  1.00  0.00    -0.043 C
HETATM   10  C20 UNL     1      11.082  -4.846  16.426  1.00  0.00     0.015 C
HETATM   11  C21 UNL     1       9.233  -5.364  17.908  1.00  0.00     0.015 C
HETATM   12  C22 UNL     1       9.415  -6.538  15.799  1.00  0.00     0.009 C
HETATM   13  C23 UNL     1       9.254  -6.516  14.322  1.00  0.00     0.002 C
HETATM   14  C24 UNL     1       8.381  -5.417  13.785  1.00  0.00     0.010 C
HETATM   15  C25 UNL     1       8.689  -4.065  14.380  1.00  0.00    -0.035 C
HETATM   16  C26 UNL     1      10.043  -3.647  13.812  1.00  0.00     0.016 C
HETATM   17  C27 UNL     1       7.687  -3.054  13.940  1.00  0.00     0.001 C
HETATM   18  C28 UNL     1       6.723  -3.582  12.882  1.00  0.00     0.007 C
HETATM   19  C29 UNL     1       6.078  -2.308  12.293  1.00  0.00     0.010 C
HETATM   20  C30 UNL     1       5.262  -1.599  13.302  1.00  0.00    -0.035 C
HETATM   21  C31 UNL     1       3.967  -2.380  13.479  1.00  0.00     0.016 C
ENDROOT
BRANCH   1  22
HETATM   22  C10 UNL     1       5.522   0.185  11.572  1.00  0.00     0.131 C
BRANCH  22  23
HETATM   23  N1  UNL     1       5.771   1.642  11.410  1.00  0.00    -0.352 N
HETATM   24  C2  UNL     1       7.072   2.118  11.554  1.00  0.00     0.215 C
HETATM   25  C1  UNL     1       7.504   3.538  11.633  1.00  0.00     0.117 C
HETATM   26  O1  UNL     1       8.020   1.260  11.632  1.00  0.00    -0.274 OA
BRANCH  23  27
HETATM   27  C3  UNL     1       4.595   2.445  11.172  1.00  0.00     0.127 C
BRANCH  27  28
HETATM   28  C4  UNL     1       3.915   2.262   9.878  1.00  0.00     0.039 C
BRANCH  28  29
HETATM   29  C5  UNL     1       2.454   2.080   9.811  1.00  0.00     0.115 C
BRANCH  29  30
HETATM   30  N2  UNL     1       1.966   0.874   9.247  1.00  0.00    -0.421 N
ATOM     31  H2  UNL     1       1.588   0.832   8.300  1.00  0.00     0.153 HD
BRANCH  30  32
HETATM   32  C6  UNL     1       2.036  -0.271  10.084  1.00  0.00     0.113 C
BRANCH  32  33
HETATM   33  C7  UNL     1       1.714   0.058  11.529  1.00  0.00     0.021 C
BRANCH  33  34
HETATM   34  C8  UNL     1       0.267  -0.288  11.806  1.00  0.00     0.029 C
BRANCH  34  35
HETATM   35  C9  UNL     1      -0.268   0.749  12.778  1.00  0.00     0.229 C
BRANCH  35  36
HETATM   36  N3  UNL     1      -0.518   2.011  12.136  1.00  0.00    -0.079 N
ATOM     37  H33 UNL     1       0.279   2.641  12.234  1.00  0.00     0.274 HD
ATOM     38  H32 UNL     1      -0.523   1.914  11.121  1.00  0.00     0.274 HD
ATOM     39  H31 UNL     1      -1.376   2.447  12.472  1.00  0.00     0.274 HD
ENDBRANCH  35  36
ENDBRANCH  34  35
ENDBRANCH  33  34
ENDBRANCH  32  33
ENDBRANCH  30  32
ENDBRANCH  29  30
ENDBRANCH  28  29
ENDBRANCH  27  28
ENDBRANCH  23  27
ENDBRANCH  22  23
ENDBRANCH   1  22
BRANCH   6  40
HETATM   40  O2  UNL     1       6.915  -1.591  17.216  1.00  0.00    -0.395 OA
ATOM     41  H2  UNL     1       7.130  -0.695  17.447  1.00  0.00     0.210 HD
ENDBRANCH   6  40
TORSDOF 12
ENDMDL