MODEL 1
REMARK VINA RESULT: -4.763358559      0.000      0.000
REMARK  5 active torsions:
REMARK  status: ('A' for Active; 'I' for Inactive)
REMARK    1  A    between atoms: N1_1  and  C1_4
REMARK    2  A    between atoms: C4_11  and  O1_12
REMARK    3  A    between atoms: N5_18  and  C7_20
REMARK    4  A    between atoms: C7_20  and  C8_21
REMARK    5  A    between atoms: C8_21  and  N6_22
ROOT
HETATM    1  C1  UNL     1      71.311  14.291  33.060  1.00  0.00     0.679 A
HETATM    2  N2  UNL     1      71.740  13.215  33.847  1.00  0.00    -0.174 N
ATOM      3  H2  UNL     1      71.240  13.031  34.717  1.00  0.00     0.186 HD
HETATM    4  C2  UNL     1      72.729  12.442  33.543  1.00  0.00     0.153 A
HETATM    5  N3  UNL     1      73.264  11.382  34.177  1.00  0.00    -0.325 N
ATOM      6  H3  UNL     1      72.948  10.993  35.066  1.00  0.00     0.169 HD
HETATM    7  C3  UNL     1      74.284  10.929  33.436  1.00  0.00     0.129 A
HETATM    8  C4  UNL     1      75.045   9.894  33.748  1.00  0.00     0.179 C
HETATM    9  N4  UNL     1      74.405  11.703  32.319  1.00  0.00    -0.335 N
ATOM     10  H4  UNL     1      75.095  11.590  31.576  1.00  0.00     0.168 HD
HETATM   11  C5  UNL     1      73.451  12.636  32.379  1.00  0.00     0.123 A
HETATM   12  C6  UNL     1      73.096  13.730  31.473  1.00  0.00     0.147 A
HETATM   13  N5  UNL     1      73.679  14.000  30.391  1.00  0.00    -0.372 N
ATOM     14  H5  UNL     1      73.297  14.799  29.884  1.00  0.00     0.161 HD
HETATM   15  N7  UNL     1      71.987  14.568  31.849  1.00  0.00    -0.175 N
ATOM     16  H7  UNL     1      71.696  15.345  31.255  1.00  0.00     0.186 HD
ENDROOT
BRANCH  13  17
HETATM   17  C7  UNL     1      74.792  13.361  29.761  1.00  0.00     0.148 C
BRANCH  17  18
HETATM   18  C8  UNL     1      74.867  13.916  28.331  1.00  0.00     0.249 C
BRANCH  18  19
HETATM   19  N6  UNL     1      73.851  13.196  27.582  1.00  0.00    -0.078 N
ATOM     20  H63 UNL     1      73.457  12.401  28.086  1.00  0.00     0.274 HD
ATOM     21  H62 UNL     1      72.978  13.713  27.472  1.00  0.00     0.274 HD
ATOM     22  H61 UNL     1      74.292  12.943  26.698  1.00  0.00     0.274 HD
ENDBRANCH  18  19
ENDBRANCH  17  18
ENDBRANCH  13  17
BRANCH   1  23
HETATM   23  N1  UNL     1      70.313  15.059  33.381  1.00  0.00    -0.234 N
ATOM     24  H12 UNL     1      69.524  15.104  32.736  1.00  0.00     0.174 HD
ATOM     25  H11 UNL     1      70.283  15.612  34.238  1.00  0.00     0.174 HD
ENDBRANCH   1  23
BRANCH   8  26
HETATM   26  O1  UNL     1      74.787   9.215  34.923  1.00  0.00    -0.369 OA
ATOM     27  H1  UNL     1      75.112   8.327  35.014  1.00  0.00     0.216 HD
ENDBRANCH   8  26
TORSDOF 5
ENDMDL