MODEL 2
REMARK VINA RESULT: -4.273108889      2.507      4.543
REMARK  5 active torsions:
REMARK  status: ('A' for Active; 'I' for Inactive)
REMARK    1  A    between atoms: C4_7  and  C5_8
REMARK    2  A    between atoms: C5_8  and  N2_9
REMARK    3  A    between atoms: C5_8  and  N3_13
REMARK    4  A    between atoms: N5_19  and  N6_20
REMARK    5  A    between atoms: C6_23  and  C7_24
ROOT
HETATM    1  C1  UNL     1      73.870  19.287  25.223  1.00  0.00     0.028 C
HETATM    2  C2  UNL     1      74.178  18.030  25.107  1.00  0.00     0.016 A
HETATM    3  C3  UNL     1      75.252  17.631  24.162  1.00  0.00     0.066 A
HETATM    4  N1  UNL     1      75.857  18.493  23.483  1.00  0.00    -0.397 N
ATOM      5  H11 UNL     1      76.595  18.218  22.834  1.00  0.00     0.156 HD
ATOM      6  H12 UNL     1      75.600  19.474  23.587  1.00  0.00     0.156 HD
HETATM    7  C4  UNL     1      75.623  16.210  24.010  1.00  0.00     0.112 A
HETATM    8  N4  UNL     1      74.978  15.401  24.720  1.00  0.00    -0.278 N
ATOM      9  H4  UNL     1      75.221  14.414  24.628  1.00  0.00     0.189 HD
HETATM   10  N5  UNL     1      73.944  15.720  25.639  1.00  0.00    -0.200 N
HETATM   11  C6  UNL     1      73.535  16.946  25.853  1.00  0.00     0.121 A
ENDROOT
BRANCH   7  12
HETATM   12  C5  UNL     1      76.702  15.846  23.056  1.00  0.00     0.431 C
BRANCH  12  13
HETATM   13  N2  UNL     1      76.161  15.311  21.813  1.00  0.00    -0.045 N
ATOM     14  H23 UNL     1      76.227  14.293  21.786  1.00  0.00     0.277 HD
ATOM     15  H22 UNL     1      75.146  15.405  21.779  1.00  0.00     0.277 HD
ATOM     16  H21 UNL     1      76.603  15.735  20.998  1.00  0.00     0.277 HD
ENDBRANCH  12  13
BRANCH  12  17
HETATM   17  N3  UNL     1      77.499  14.808  23.689  1.00  0.00    -0.045 N
ATOM     18  H33 UNL     1      78.484  15.056  23.775  1.00  0.00     0.277 HD
ATOM     19  H32 UNL     1      77.303  14.704  24.684  1.00  0.00     0.277 HD
ATOM     20  H31 UNL     1      77.347  13.950  23.159  1.00  0.00     0.277 HD
ENDBRANCH  12  17
ENDBRANCH   7  12
BRANCH  10  21
HETATM   21  N6  UNL     1      73.365  14.653  26.322  1.00  0.00    -0.324 N
ATOM     22  H62 UNL     1      72.484  14.777  26.821  1.00  0.00     0.179 HD
ATOM     23  H61 UNL     1      73.865  13.765  26.291  1.00  0.00     0.179 HD
ENDBRANCH  10  21
BRANCH  11  24
HETATM   24  C7  UNL     1      72.471  17.181  26.811  1.00  0.00     0.144 C
HETATM   25  N7  UNL     1      71.094  16.991  26.543  1.00  0.00    -0.087 NA
HETATM   26  S1  UNL     1      72.832  17.703  28.329  1.00  0.00    -0.061 SA
ENDBRANCH  11  24
TORSDOF 5
ENDMDL