MODEL 3
REMARK VINA RESULT: -5.249115300      2.119      2.268
REMARK  3 active torsions:
REMARK  status: ('A' for Active; 'I' for Inactive)
REMARK    1  A    between atoms: C2_3  and  O1_4
REMARK    2  A    between atoms: C2_3  and  C3_6
REMARK    3  A    between atoms: C3_6  and  N2_7
ROOT
HETATM    1  N1  UNL     1      74.983  13.246  29.671  1.00  0.00    -0.194 NA
HETATM    2  C1  UNL     1      74.902  13.425  28.529  1.00  0.00     0.092 C
HETATM    3  C2  UNL     1      74.822  13.648  27.098  1.00  0.00     0.242 C
ENDROOT
BRANCH   3   4
HETATM    4  O1  UNL     1      73.476  13.688  26.739  1.00  0.00    -0.380 OA
ATOM      5  H1  UNL     1      73.423  13.737  25.792  1.00  0.00     0.211 HD
ENDBRANCH   3   4
BRANCH   3   6
HETATM    6  C3  UNL     1      75.463  15.003  26.750  1.00  0.00     0.168 C
BRANCH   6   7
HETATM    7  N2  UNL     1      76.431  14.869  25.728  1.00  0.00    -0.368 N
HETATM    8  C4  UNL     1      76.429  15.339  24.542  1.00  0.00     0.173 C
HETATM    9  N3  UNL     1      77.513  15.048  23.756  1.00  0.00    -0.312 N
HETATM   10  C7  UNL     1      75.370  16.102  24.101  1.00  0.00     0.293 C
HETATM   11  C5  UNL     1      78.046  15.854  22.795  1.00  0.00     0.198 C
ATOM     12  H3  UNL     1      77.962  14.144  23.903  1.00  0.00     0.170 HD
HETATM   13  N4  UNL     1      79.316  15.485  22.283  1.00  0.00    -0.063 NA
HETATM   14  N5  UNL     1      77.549  16.973  22.239  1.00  0.00    -0.282 N
HETATM   15  C6  UNL     1      76.362  17.583  22.424  1.00  0.00     0.329 C
ATOM     16  H5  UNL     1      78.168  17.433  21.572  1.00  0.00     0.173 HD
HETATM   17  O2  UNL     1      76.159  18.654  21.760  1.00  0.00    -0.247 OA
HETATM   18  N6  UNL     1      75.383  17.160  23.243  1.00  0.00    -0.272 N
ATOM     19  H6  UNL     1      74.526  17.713  23.219  1.00  0.00     0.174 HD
HETATM   20  O3  UNL     1      74.259  15.747  24.573  1.00  0.00    -0.264 OA
ATOM     21  H2  UNL     1      77.252  14.315  25.975  1.00  0.00     0.161 HD
ENDBRANCH   6   7
ENDBRANCH   3   6
TORSDOF 3
ENDMDL