MODEL 3
REMARK VINA RESULT: -4.946475540      6.630      8.011
REMARK  5 active torsions:
REMARK  status: ('A' for Active; 'I' for Inactive)
REMARK    1  A    between atoms: N1_4  and  N2_6
REMARK    2  A    between atoms: N2_6  and  C4_8
REMARK    3  A    between atoms: C5_11  and  O1_12
REMARK    4  A    between atoms: C7_16  and  N5_17
REMARK    5  A    between atoms: C8_20  and  N6_21
ROOT
HETATM    1  C1  UNL     1      77.604   7.672  33.677  1.00  0.00     0.018 C
HETATM    2  C2  UNL     1      76.778   8.470  34.050  1.00  0.00    -0.071 C
HETATM    3  C3  UNL     1      75.765   9.424  34.484  1.00  0.00     0.171 C
HETATM    4  N1  UNL     1      74.792   9.736  33.724  1.00  0.00    -0.290 N
ATOM      5  H1  UNL     1      74.718   9.313  32.798  1.00  0.00     0.187 HD
ENDROOT
BRANCH   4   6
HETATM    6  N2  UNL     1      73.837  10.637  34.139  1.00  0.00    -0.132 N
ATOM      7  H2  UNL     1      73.369  10.446  35.025  1.00  0.00     0.205 HD
BRANCH   6   8
HETATM    8  C4  UNL     1      73.489  11.692  33.509  1.00  0.00     0.701 C
HETATM    9  N3  UNL     1      74.406  12.666  33.464  1.00  0.00    -0.153 N
HETATM   10  C5  UNL     1      74.348  13.912  32.908  1.00  0.00     0.239 C
ATOM     11  H3  UNL     1      75.291  12.441  33.918  1.00  0.00     0.188 HD
HETATM   12  N4  UNL     1      73.274  14.399  32.270  1.00  0.00    -0.305 N
HETATM   13  C7  UNL     1      72.002  13.922  32.180  1.00  0.00     0.147 C
ATOM     14  H4  UNL     1      73.437  15.272  31.769  1.00  0.00     0.171 HD
HETATM   15  C8  UNL     1      71.609  12.602  32.247  1.00  0.00     0.159 C
HETATM   16  N7  UNL     1      72.254  11.654  32.992  1.00  0.00    -0.172 N
ATOM     17  H7  UNL     1      71.723  10.802  33.179  1.00  0.00     0.186 HD
BRANCH  10  18
HETATM   18  O1  UNL     1      75.473  14.717  33.015  1.00  0.00    -0.327 OA
HETATM   19  C6  UNL     1      76.651  14.104  33.504  1.00  0.00     0.213 C
ENDBRANCH  10  18
BRANCH  13  20
HETATM   20  N5  UNL     1      71.069  14.777  32.015  1.00  0.00    -0.382 N
ATOM     21  H52 UNL     1      71.123  15.616  32.591  1.00  0.00     0.157 HD
ATOM     22  H51 UNL     1      70.350  14.555  31.326  1.00  0.00     0.157 HD
ENDBRANCH  13  20
BRANCH  15  23
HETATM   23  N6  UNL     1      70.590  12.226  31.574  1.00  0.00    -0.382 N
ATOM     24  H62 UNL     1      70.585  11.266  31.230  1.00  0.00     0.157 HD
ATOM     25  H61 UNL     1      69.836  12.892  31.406  1.00  0.00     0.157 HD
ENDBRANCH  15  23
ENDBRANCH   6   8
ENDBRANCH   4   6
TORSDOF 5
ENDMDL