MODEL 1
REMARK VINA RESULT: -5.483485958      0.000      0.000
REMARK  3 active torsions:
REMARK  status: ('A' for Active; 'I' for Inactive)
REMARK    1  A    between atoms: N1_1  and  C1_4
REMARK    2  A    between atoms: C4_15  and  C5_16
REMARK    3  A    between atoms: N5_17  and  N6_19
ROOT
HETATM    1  C1  UNL     1      77.043  15.342  23.825  1.00  0.00     0.131 C
HETATM    2  N2  UNL     1      76.548  14.516  24.794  1.00  0.00    -0.293 N
ATOM      3  H2  UNL     1      77.017  13.622  24.940  1.00  0.00     0.172 HD
HETATM    4  C2  UNL     1      75.481  14.802  25.572  1.00  0.00     0.329 C
HETATM    5  O1  UNL     1      75.277  13.953  26.495  1.00  0.00    -0.246 OA
HETATM    6  N3  UNL     1      74.614  15.853  25.502  1.00  0.00    -0.260 N
ATOM      7  H3  UNL     1      73.787  15.762  26.093  1.00  0.00     0.175 HD
HETATM    8  C3  UNL     1      74.668  16.988  24.784  1.00  0.00     0.328 C
HETATM    9  O2  UNL     1      74.000  17.982  25.172  1.00  0.00    -0.247 OA
HETATM   10  N4  UNL     1      75.412  17.139  23.644  1.00  0.00    -0.304 N
ATOM     11  H4  UNL     1      75.196  17.966  23.086  1.00  0.00     0.171 HD
HETATM   12  C4  UNL     1      76.384  16.354  23.159  1.00  0.00     0.097 C
ENDROOT
BRANCH  12  13
HETATM   13  C5  UNL     1      76.779  16.589  21.787  1.00  0.00     0.140 C
HETATM   14  N5  UNL     1      76.839  15.656  20.901  1.00  0.00    -0.307 N
ATOM     15  H5  UNL     1      76.598  14.704  21.175  1.00  0.00     0.186 HD
BRANCH  14  16
HETATM   16  N6  UNL     1      77.221  15.896  19.585  1.00  0.00    -0.276 N
HETATM   17  C6  UNL     1      77.185  14.970  18.694  1.00  0.00     0.215 C
HETATM   18  N7  UNL     1      76.745  13.686  19.079  1.00  0.00    -0.065 NA
HETATM   19  N8  UNL     1      77.578  15.219  17.343  1.00  0.00    -0.065 NA
ATOM     20  H6  UNL     1      77.536  16.828  19.321  1.00  0.00     0.189 HD
ENDBRANCH  14  16
ENDBRANCH  12  13
BRANCH   1  21
HETATM   21  N1  UNL     1      78.252  15.123  23.530  1.00  0.00    -0.383 N
ATOM     22  H12 UNL     1      78.936  15.109  24.286  1.00  0.00     0.157 HD
ATOM     23  H11 UNL     1      78.416  14.978  22.534  1.00  0.00     0.157 HD
ENDBRANCH   1  21
TORSDOF 3
ENDMDL