MODEL 1
REMARK VINA RESULT: -4.875801897      0.000      0.000
REMARK  3 active torsions:
REMARK  status: ('A' for Active; 'I' for Inactive)
REMARK    1  A    between atoms: C3_5  and  C4_6
REMARK    2  A    between atoms: C5_9  and  N4_10
REMARK    3  A    between atoms: C7_17  and  C8_18
ROOT
HETATM    1  N1  UNL     1      76.545  16.171  20.695  1.00  0.00    -0.190 NA
HETATM    2  C1  UNL     1      76.371  15.874  21.799  1.00  0.00     0.114 C
HETATM    3  C2  UNL     1      76.148  15.527  23.184  1.00  0.00     0.128 C
HETATM    4  N2  UNL     1      76.848  14.348  23.623  1.00  0.00    -0.090 NA
HETATM    5  C3  UNL     1      75.357  16.230  23.972  1.00  0.00     0.069 C
ENDROOT
BRANCH   5   6
HETATM    6  C4  UNL     1      75.145  15.868  25.362  1.00  0.00     0.072 A
HETATM    7  N3  UNL     1      74.454  14.715  25.662  1.00  0.00    -0.191 N
HETATM    8  C5  UNL     1      74.205  14.330  26.923  1.00  0.00     0.679 A
ATOM      9  H3  UNL     1      74.119  14.131  24.896  1.00  0.00     0.184 HD
HETATM   10  N5  UNL     1      74.656  15.113  27.913  1.00  0.00    -0.155 N
HETATM   11  C6  UNL     1      75.327  16.236  27.729  1.00  0.00     0.277 A
ATOM     12  H5  UNL     1      74.469  14.824  28.873  1.00  0.00     0.187 HD
HETATM   13  O1  UNL     1      75.750  16.969  28.665  1.00  0.00    -0.267 OA
HETATM   14  C7  UNL     1      75.589  16.643  26.407  1.00  0.00     0.124 A
BRANCH   8  15
HETATM   15  N4  UNL     1      73.549  13.242  27.142  1.00  0.00    -0.234 N
ATOM     16  H42 UNL     1      73.768  12.613  27.916  1.00  0.00     0.174 HD
ATOM     17  H41 UNL     1      72.776  12.984  26.529  1.00  0.00     0.174 HD
ENDBRANCH   8  15
BRANCH  14  18
HETATM   18  C8  UNL     1      76.299  17.884  26.183  1.00  0.00     0.272 C
HETATM   19  N6  UNL     1      75.568  19.092  26.083  1.00  0.00    -0.057 NA
HETATM   20  O2  UNL     1      77.529  17.933  26.072  1.00  0.00    -0.271 OA
ENDBRANCH  14  18
ENDBRANCH   5   6
TORSDOF 3
ENDMDL