MODEL 5
REMARK VINA RESULT: -5.097963945      2.191      5.607
REMARK  3 active torsions:
REMARK  status: ('A' for Active; 'I' for Inactive)
REMARK    1  A    between atoms: N1_1  and  C1_4
REMARK    2  A    between atoms: N3_9  and  C3_10
REMARK    3  A    between atoms: C3_10  and  C4_11
ROOT
HETATM    1  C1  UNL     1      77.422  16.732  21.715  1.00  0.00     0.683 A
HETATM    2  N2  UNL     1      76.409  17.565  22.065  1.00  0.00    -0.141 N
ATOM      3  H2  UNL     1      76.306  18.482  21.630  1.00  0.00     0.189 HD
HETATM    4  C2  UNL     1      75.551  17.143  23.000  1.00  0.00     0.348 A
HETATM    5  O1  UNL     1      74.608  17.877  23.352  1.00  0.00    -0.245 OA
HETATM    6  N3  UNL     1      75.635  15.950  23.604  1.00  0.00    -0.227 N
HETATM    7  C7  UNL     1      76.643  15.138  23.245  1.00  0.00     0.348 A
HETATM    8  O2  UNL     1      76.857  13.995  23.720  1.00  0.00    -0.245 OA
HETATM    9  N7  UNL     1      77.540  15.527  22.300  1.00  0.00    -0.141 N
ATOM     10  H7  UNL     1      78.302  14.903  22.033  1.00  0.00     0.189 HD
ENDROOT
BRANCH   6  11
HETATM   11  C3  UNL     1      74.721  15.571  24.586  1.00  0.00     0.106 C
BRANCH  11  12
HETATM   12  C4  UNL     1      75.046  15.416  25.986  1.00  0.00     0.141 C
HETATM   13  C5  UNL     1      74.029  15.867  27.011  1.00  0.00     0.152 C
HETATM   14  N4  UNL     1      74.347  15.017  28.192  1.00  0.00    -0.362 N
HETATM   15  C6  UNL     1      74.915  13.921  27.757  1.00  0.00     0.184 C
ATOM     16  H4  UNL     1      74.155  15.248  29.167  1.00  0.00     0.162 HD
HETATM   17  N5  UNL     1      75.358  12.870  28.595  1.00  0.00    -0.064 NA
HETATM   18  N6  UNL     1      75.009  13.976  26.325  1.00  0.00    -0.354 N
ATOM     19  H6  UNL     1      75.044  13.188  25.678  1.00  0.00     0.163 HD
ENDBRANCH  11  12
ENDBRANCH   6  11
BRANCH   1  20
HETATM   20  N1  UNL     1      78.300  17.061  20.817  1.00  0.00    -0.234 N
ATOM     21  H12 UNL     1      78.015  17.714  20.087  1.00  0.00     0.174 HD
ATOM     22  H11 UNL     1      79.248  16.686  20.829  1.00  0.00     0.174 HD
ENDBRANCH   1  20
TORSDOF 3
ENDMDL