MODEL 2
REMARK VINA RESULT: -4.995405767      3.174      5.041
REMARK  3 active torsions:
REMARK  status: ('A' for Active; 'I' for Inactive)
REMARK    1  A    between atoms: C2_5  and  C3_7
REMARK    2  A    between atoms: C4_8  and  C5_9
REMARK    3  A    between atoms: C7_18  and  N7_19
ROOT
HETATM    1  N1  UNL     1      74.611  12.706  27.843  1.00  0.00    -0.172 NA
HETATM    2  C1  UNL     1      74.586  13.499  27.003  1.00  0.00     0.183 C
HETATM    3  N2  UNL     1      74.562  14.465  25.993  1.00  0.00    -0.281 N
ATOM      4  H2  UNL     1      73.954  14.322  25.188  1.00  0.00     0.179 HD
HETATM    5  C2  UNL     1      75.291  15.543  26.046  1.00  0.00     0.141 C
HETATM    6  N3  UNL     1      76.088  15.660  27.174  1.00  0.00    -0.081 NA
ENDROOT
BRANCH   5   7
HETATM    7  C3  UNL     1      75.270  16.448  24.927  1.00  0.00     0.081 A
HETATM    8  C4  UNL     1      75.831  16.268  23.697  1.00  0.00     0.119 A
HETATM    9  N5  UNL     1      75.564  17.195  22.711  1.00  0.00    -0.303 N
HETATM   10  C6  UNL     1      74.796  18.268  22.874  1.00  0.00     0.326 A
ATOM     11  H5  UNL     1      75.986  17.048  21.794  1.00  0.00     0.171 HD
HETATM   12  O2  UNL     1      74.589  19.083  21.930  1.00  0.00    -0.247 OA
HETATM   13  N6  UNL     1      74.239  18.466  24.081  1.00  0.00    -0.294 N
HETATM   14  C7  UNL     1      74.457  17.607  25.070  1.00  0.00     0.118 A
ATOM     15  H6  UNL     1      73.645  19.281  24.238  1.00  0.00     0.172 HD
BRANCH   8  16
HETATM   16  C5  UNL     1      76.792  15.246  23.400  1.00  0.00     0.282 C
HETATM   17  N4  UNL     1      77.992  15.654  22.703  1.00  0.00    -0.056 NA
HETATM   18  O1  UNL     1      76.704  14.069  23.672  1.00  0.00    -0.269 OA
ENDBRANCH   8  16
BRANCH  14  19
HETATM   19  N7  UNL     1      73.915  17.824  26.209  1.00  0.00    -0.385 N
ATOM     20  H72 UNL     1      73.963  17.099  26.923  1.00  0.00     0.157 HD
ATOM     21  H71 UNL     1      73.454  18.721  26.356  1.00  0.00     0.157 HD
ENDBRANCH  14  19
ENDBRANCH   5   7
TORSDOF 3
ENDMDL