MODEL 1
REMARK VINA RESULT: -4.277576690      0.000      0.000
REMARK  2 active torsions:
REMARK  status: ('A' for Active; 'I' for Inactive)
REMARK    1  A    between atoms: N1_1  and  C1_5
REMARK    2  A    between atoms: C1_5  and  C2_6
ROOT
HETATM    1  C1  UNL     1      74.696  15.909  25.913  1.00  0.00     0.291 C
HETATM    2  C3  UNL     1      73.561  14.977  26.126  1.00  0.00     0.272 C
HETATM    3  O1  UNL     1      72.412  15.216  25.673  1.00  0.00    -0.270 OA
HETATM    4  N2  UNL     1      73.732  13.760  26.862  1.00  0.00    -0.276 N
ATOM      5  H2  UNL     1      73.001  13.048  26.843  1.00  0.00     0.173 HD
HETATM    6  C4  UNL     1      74.913  13.540  27.616  1.00  0.00     0.329 C
HETATM    7  O2  UNL     1      75.079  12.464  28.274  1.00  0.00    -0.247 OA
HETATM    8  N3  UNL     1      75.940  14.518  27.655  1.00  0.00    -0.276 N
ATOM      9  H3  UNL     1      76.789  14.360  28.197  1.00  0.00     0.173 HD
HETATM   10  C5  UNL     1      75.761  15.730  26.918  1.00  0.00     0.272 C
HETATM   11  O3  UNL     1      76.576  16.658  27.176  1.00  0.00    -0.270 OA
ENDROOT
BRANCH   1  12
HETATM   12  N1  UNL     1      74.181  17.259  26.068  1.00  0.00    -0.052 N
ATOM     13  H13 UNL     1      74.879  17.905  26.435  1.00  0.00     0.276 HD
ATOM     14  H12 UNL     1      74.021  17.723  25.174  1.00  0.00     0.276 HD
ATOM     15  H11 UNL     1      73.342  17.218  26.645  1.00  0.00     0.276 HD
ENDBRANCH   1  12
BRANCH   1  16
HETATM   16  C2  UNL     1      75.264  15.773  24.511  1.00  0.00     0.145 C
HETATM   17  S1  UNL     1      75.376  17.388  23.708  1.00  0.00    -0.094 SA
ENDBRANCH   1  16
TORSDOF 2
ENDMDL