MODEL 5
REMARK VINA RESULT: -4.550783516      3.441      5.641
REMARK  5 active torsions:
REMARK  status: ('A' for Active; 'I' for Inactive)
REMARK    1  A    between atoms: N1_1  and  C1_5
REMARK    2  A    between atoms: C1_5  and  C2_6
REMARK    3  A    between atoms: C2_6  and  N2_7
REMARK    4  A    between atoms: C2_6  and  N3_11
REMARK    5  A    between atoms: N3_11  and  C3_13
ROOT
HETATM    1  C3  UNL     1      76.226  15.827  25.896  1.00  0.00     0.133 A
HETATM    2  N4  UNL     1      76.898  16.934  26.240  1.00  0.00    -0.337 N
ATOM      3  H4  UNL     1      77.370  17.490  25.526  1.00  0.00     0.168 HD
HETATM    4  C4  UNL     1      76.950  17.314  27.542  1.00  0.00     0.182 A
HETATM    5  N5  UNL     1      76.330  16.582  28.483  1.00  0.00    -0.346 N
ATOM      6  H5  UNL     1      76.380  16.880  29.458  1.00  0.00     0.167 HD
HETATM    7  C5  UNL     1      75.647  15.466  28.172  1.00  0.00     0.132 A
HETATM    8  C6  UNL     1      75.007  14.713  29.155  1.00  0.00     0.275 A
HETATM    9  O1  UNL     1      75.069  15.084  30.356  1.00  0.00    -0.266 OA
HETATM   10  N6  UNL     1      74.330  13.590  28.779  1.00  0.00    -0.318 N
ATOM     11  H6  UNL     1      73.859  13.032  29.492  1.00  0.00     0.169 HD
HETATM   12  C7  UNL     1      74.267  13.198  27.493  1.00  0.00     0.184 A
HETATM   13  N7  UNL     1      74.889  13.931  26.546  1.00  0.00    -0.347 N
ATOM     14  H7  UNL     1      74.844  13.636  25.571  1.00  0.00     0.167 HD
HETATM   15  C8  UNL     1      75.571  15.050  26.876  1.00  0.00     0.110 A
ENDROOT
BRANCH   1  16
HETATM   16  N3  UNL     1      76.106  15.372  24.716  1.00  0.00    -0.346 N
ATOM     17  H3  UNL     1      75.405  14.644  24.581  1.00  0.00     0.163 HD
BRANCH  16  18
HETATM   18  C2  UNL     1      76.828  15.757  23.579  1.00  0.00     0.308 C
BRANCH  18  19
HETATM   19  C1  UNL     1      75.965  15.869  22.337  1.00  0.00     0.283 C
BRANCH  19  20
HETATM   20  N1  UNL     1      76.597  15.172  21.210  1.00  0.00    -0.076 N
ATOM     21  H13 UNL     1      77.303  15.750  20.754  1.00  0.00     0.274 HD
ATOM     22  H12 UNL     1      77.202  14.414  21.525  1.00  0.00     0.274 HD
ATOM     23  H11 UNL     1      75.889  14.846  20.553  1.00  0.00     0.274 HD
ENDBRANCH  19  20
ENDBRANCH  18  19
BRANCH  18  24
HETATM   24  N2  UNL     1      78.045  15.041  23.298  1.00  0.00    -0.057 N
ATOM     25  H23 UNL     1      77.914  14.033  23.375  1.00  0.00     0.276 HD
ATOM     26  H22 UNL     1      78.291  15.090  22.309  1.00  0.00     0.276 HD
ATOM     27  H21 UNL     1      78.807  15.368  23.892  1.00  0.00     0.276 HD
ENDBRANCH  18  24
ENDBRANCH  16  18
ENDBRANCH   1  16
TORSDOF 5
ENDMDL