MODEL 5
REMARK VINA RESULT: -5.393636660      3.980      7.699
REMARK  12 active torsions:
REMARK  status: ('A' for Active; 'I' for Inactive)
REMARK    1  A    between atoms: N1_1  and  C1_4
REMARK    2  A    between atoms: C2_5  and  C3_6
REMARK       I    between atoms: C3_6  and  N2_8
REMARK    3  A    between atoms: N2_8  and  N3_10
REMARK       I    between atoms: N3_10  and  C4_11
REMARK    4  A    between atoms: C4_11  and  C5_13
REMARK    5  A    between atoms: C6_15  and  C7_16
REMARK    6  A    between atoms: C7_16  and  O4_17
REMARK    7  A    between atoms: C8_19  and  C9_20
REMARK    8  A    between atoms: C9_20  and  N4_21
REMARK    9  A    between atoms: C9_20  and  O5_25
REMARK   10  A    between atoms: C11_29  and  C12_30
REMARK   11  A    between atoms: C12_30  and  O7_31
REMARK   12  A    between atoms: C12_30  and  O8_33
ROOT
HETATM    1  C5  UNL     1      16.619 -37.981  29.874  1.00  0.00     0.174 A
HETATM    2  O3  UNL     1      17.588 -38.886  29.831  1.00  0.00    -0.304 OA
HETATM    3  C6  UNL     1      18.694 -38.873  30.513  1.00  0.00     0.091 A
HETATM    4  C8  UNL     1      18.863 -37.796  31.366  1.00  0.00     0.080 A
HETATM    5  C10 UNL     1      17.902 -36.819  31.453  1.00  0.00     0.199 A
HETATM    6  O6  UNL     1      18.033 -35.814  32.214  1.00  0.00    -0.287 OA
HETATM    7  C11 UNL     1      16.730 -36.878  30.702  1.00  0.00     0.087 A
ENDROOT
BRANCH   1   8
HETATM    8  C4  UNL     1      15.420 -38.149  29.041  1.00  0.00     0.370 C
HETATM    9  N3  UNL     1      14.117 -38.105  29.435  1.00  0.00    -0.276 NA
HETATM   10  O2  UNL     1      15.750 -38.357  27.807  1.00  0.00    -0.247 OA
BRANCH   9  11
HETATM   11  N2  UNL     1      12.854 -38.063  29.810  1.00  0.00    -0.188 N
HETATM   12  C3  UNL     1      12.414 -37.974  31.208  1.00  0.00     0.327 C
HETATM   13  O1  UNL     1      13.258 -37.951  32.093  1.00  0.00    -0.255 OA
ATOM     14  H2  UNL     1      12.138 -38.094  29.085  1.00  0.00     0.206 HD
BRANCH  12  15
HETATM   15  C2  UNL     1      10.970 -37.925  31.440  1.00  0.00     0.020 C
HETATM   16  C1  UNL     1       9.766 -37.889  31.613  1.00  0.00     0.013 C
BRANCH  16  17
HETATM   17  N1  UNL     1       8.446 -37.901  31.728  1.00  0.00    -0.359 N
ATOM     18  H12 UNL     1       8.656 -38.687  31.113  1.00  0.00     0.166 HD
ATOM     19  H11 UNL     1       7.435 -37.856  31.858  1.00  0.00     0.166 HD
ENDBRANCH  16  17
ENDBRANCH  12  15
ENDBRANCH   9  11
ENDBRANCH   1   8
BRANCH   7  20
HETATM   20  C12 UNL     1      15.736 -35.807  30.765  1.00  0.00     0.295 C
BRANCH  20  21
HETATM   21  O7  UNL     1      15.270 -35.777  32.081  1.00  0.00    -0.367 OA
ATOM     22  H7  UNL     1      16.017 -35.558  32.626  1.00  0.00     0.213 HD
ENDBRANCH  20  21
BRANCH  20  23
HETATM   23  O8  UNL     1      16.329 -34.547  30.446  1.00  0.00    -0.367 OA
ATOM     24  H8  UNL     1      17.270 -34.579  30.569  1.00  0.00     0.213 HD
ENDBRANCH  20  23
ENDBRANCH   7  20
BRANCH   3  25
HETATM   25  C7  UNL     1      19.665 -39.968  30.340  1.00  0.00     0.230 C
BRANCH  25  26
HETATM   26  O4  UNL     1      20.683 -39.600  29.430  1.00  0.00    -0.394 OA
ATOM     27  H4  UNL     1      20.808 -40.272  28.771  1.00  0.00     0.209 HD
ENDBRANCH  25  26
ENDBRANCH   3  25
BRANCH   4  28
HETATM   28  C9  UNL     1      20.054 -37.724  32.216  1.00  0.00     0.357 C
BRANCH  28  29
HETATM   29  N4  UNL     1      19.868 -37.781  33.611  1.00  0.00    -0.049 N
ATOM     30  H43 UNL     1      18.871 -37.856  33.814  1.00  0.00     0.277 HD
ATOM     31  H42 UNL     1      20.204 -38.680  33.958  1.00  0.00     0.277 HD
ATOM     32  H41 UNL     1      20.271 -37.032  34.175  1.00  0.00     0.277 HD
ENDBRANCH  28  29
BRANCH  28  33
HETATM   33  O5  UNL     1      20.928 -36.708  31.760  1.00  0.00    -0.366 OA
ATOM     34  H5  UNL     1      21.805 -37.052  31.640  1.00  0.00     0.212 HD
ENDBRANCH  28  33
ENDBRANCH   4  28
TORSDOF 12
ENDMDL