MODEL 1
REMARK VINA RESULT: -6.425079866      0.000      0.000
REMARK  6 active torsions:
REMARK  status: ('A' for Active; 'I' for Inactive)
REMARK    1  A    between atoms: C2_7  and  C3_8
REMARK    2  A    between atoms: C3_8  and  N3_9
REMARK    3  A    between atoms: N3_9  and  C4_11
REMARK       I    between atoms: N4_14  and  C7_15
REMARK    4  A    between atoms: C7_15  and  C8_17
REMARK    5  A    between atoms: C9_23  and  C10_24
REMARK    6  A    between atoms: C10_24  and  O2_25
ROOT
HETATM    1  C4  UNL     1      19.770 -37.615  32.624  1.00  0.00     0.184 C
HETATM    2  C5  UNL     1      19.357 -37.946  34.023  1.00  0.00     0.066 C
HETATM    3  C6  UNL     1      18.008 -38.221  33.295  1.00  0.00     0.132 C
HETATM    4  N4  UNL     1      18.478 -37.186  32.315  1.00  0.00    -0.328 N
HETATM    5  C7  UNL     1      17.868 -36.119  31.642  1.00  0.00     0.261 C
HETATM    6  O1  UNL     1      18.429 -34.965  31.585  1.00  0.00    -0.269 OA
ENDROOT
BRANCH   1   7
HETATM    7  N3  UNL     1      20.972 -37.011  32.378  1.00  0.00    -0.394 N
ATOM      8  H3  UNL     1      21.047 -36.071  31.989  1.00  0.00     0.155 HD
BRANCH   7   9
HETATM    9  C3  UNL     1      22.162 -37.834  32.722  1.00  0.00     0.201 C
BRANCH   9  10
HETATM   10  C2  UNL     1      23.188 -36.729  32.848  1.00  0.00     0.161 A
HETATM   11  N2  UNL     1      22.993 -35.696  33.610  1.00  0.00    -0.172 N
HETATM   12  C1  UNL     1      23.965 -34.704  33.684  1.00  0.00     0.682 A
ATOM     13  H2  UNL     1      22.133 -35.613  34.152  1.00  0.00     0.186 HD
HETATM   14  N1  UNL     1      23.675 -33.693  34.427  1.00  0.00    -0.234 N
HETATM   15  N9  UNL     1      25.047 -34.875  32.956  1.00  0.00    -0.135 N
ATOM     16  H12 UNL     1      22.835 -33.560  34.991  1.00  0.00     0.174 HD
ATOM     17  H11 UNL     1      24.387 -32.964  34.480  1.00  0.00     0.174 HD
HETATM   18  C11 UNL     1      25.223 -35.969  32.168  1.00  0.00     0.385 A
ATOM     19  H9  UNL     1      25.778 -34.164  32.984  1.00  0.00     0.189 HD
HETATM   20  O3  UNL     1      24.295 -36.873  32.131  1.00  0.00    -0.245 OA
HETATM   21  O4  UNL     1      26.294 -36.097  31.482  1.00  0.00    -0.237 OA
ENDBRANCH   9  10
ENDBRANCH   7   9
ENDBRANCH   1   7
BRANCH   5  22
HETATM   22  C8  UNL     1      16.574 -36.203  30.956  1.00  0.00     0.288 C
HETATM   23  N5  UNL     1      15.412 -36.462  31.735  1.00  0.00    -0.091 NA
HETATM   24  N6  UNL     1      14.298 -36.432  30.858  1.00  0.00    -0.247 N
HETATM   25  N7  UNL     1      14.411 -37.179  29.709  1.00  0.00    -0.300 N
ATOM     26  H6  UNL     1      13.462 -35.888  31.068  1.00  0.00     0.203 HD
HETATM   27  C9  UNL     1      15.635 -37.907  29.524  1.00  0.00     0.219 C
ATOM     28  H7  UNL     1      13.659 -37.214  29.020  1.00  0.00     0.183 HD
HETATM   29  N8  UNL     1      16.734 -36.995  29.803  1.00  0.00    -0.372 N
ATOM     30  H8  UNL     1      17.559 -36.934  29.207  1.00  0.00     0.157 HD
BRANCH  27  31
HETATM   31  C10 UNL     1      15.829 -38.249  28.050  1.00  0.00     0.211 C
BRANCH  31  32
HETATM   32  O2  UNL     1      16.574 -39.368  27.818  1.00  0.00    -0.397 OA
ATOM     33  H2  UNL     1      16.147 -40.024  27.279  1.00  0.00     0.209 HD
ENDBRANCH  31  32
ENDBRANCH  27  31
ENDBRANCH   5  22
TORSDOF 6
ENDMDL