MODEL 5
REMARK VINA RESULT: -5.739639196      5.023      8.070
REMARK  7 active torsions:
REMARK  status: ('A' for Active; 'I' for Inactive)
REMARK    1  A    between atoms: C3_7  and  C4_8
REMARK       I    between atoms: C4_8  and  N4_10
REMARK    2  A    between atoms: N4_10  and  S1_12
REMARK    3  A    between atoms: S1_12  and  C5_15
REMARK    4  A    between atoms: C6_18  and  O4_19
REMARK    5  A    between atoms: C7_21  and  C8_22
REMARK    6  A    between atoms: C8_22  and  O5_23
REMARK    7  A    between atoms: C8_22  and  O6_25
ROOT
HETATM    1  S1  UNL     1      20.306 -37.572  32.949  1.00  0.00     0.276 S
HETATM    2  O2  UNL     1      19.743 -37.603  34.341  1.00  0.00    -0.201 OA
HETATM    3  O3  UNL     1      20.388 -38.938  32.377  1.00  0.00    -0.201 OA
ENDROOT
BRANCH   1   4
HETATM    4  N4  UNL     1      21.832 -36.772  32.994  1.00  0.00    -0.250 N
HETATM    5  C4  UNL     1      22.903 -37.368  33.698  1.00  0.00     0.243 C
HETATM    6  O1  UNL     1      22.730 -38.466  34.277  1.00  0.00    -0.272 OA
ATOM      7  H4  UNL     1      21.961 -35.879  32.518  1.00  0.00     0.181 HD
BRANCH   5   8
HETATM    8  C3  UNL     1      24.209 -36.659  33.722  1.00  0.00     0.160 C
HETATM    9  C1  UNL     1      24.045 -35.183  33.679  1.00  0.00     0.119 C
HETATM   10  N1  UNL     1      23.590 -34.353  34.726  1.00  0.00    -0.086 NA
HETATM   11  N2  UNL     1      24.387 -34.773  32.521  1.00  0.00    -0.294 N
HETATM   12  N3  UNL     1      24.797 -35.785  31.674  1.00  0.00    -0.139 NA
ATOM     13  H2  UNL     1      24.362 -33.791  32.246  1.00  0.00     0.183 HD
HETATM   14  C2  UNL     1      24.958 -36.985  32.470  1.00  0.00     0.156 C
ENDBRANCH   5   8
ENDBRANCH   1   4
BRANCH   1  15
HETATM   15  C5  UNL     1      19.268 -36.593  31.874  1.00  0.00     0.375 C
HETATM   16  N5  UNL     1      19.265 -37.084  30.526  1.00  0.00    -0.096 NA
HETATM   17  N6  UNL     1      18.314 -38.078  30.341  1.00  0.00    -0.110 NA
HETATM   18  C6  UNL     1      17.001 -37.440  30.500  1.00  0.00     0.261 C
HETATM   19  C7  UNL     1      17.113 -36.238  31.420  1.00  0.00     0.225 C
HETATM   20  O7  UNL     1      17.992 -36.610  32.436  1.00  0.00    -0.340 OA
BRANCH  18  21
HETATM   21  O4  UNL     1      16.609 -36.971  29.249  1.00  0.00    -0.376 OA
ATOM     22  H4  UNL     1      15.954 -36.297  29.388  1.00  0.00     0.211 HD
ENDBRANCH  18  21
BRANCH  19  23
HETATM   23  C8  UNL     1      15.793 -35.883  32.058  1.00  0.00     0.286 C
BRANCH  23  24
HETATM   24  O5  UNL     1      14.770 -36.002  31.120  1.00  0.00    -0.369 OA
ATOM     25  H5  UNL     1      14.755 -35.234  30.561  1.00  0.00     0.212 HD
ENDBRANCH  23  24
BRANCH  23  26
HETATM   26  O6  UNL     1      15.795 -34.589  32.575  1.00  0.00    -0.369 OA
ATOM     27  H6  UNL     1      14.939 -34.181  32.516  1.00  0.00     0.212 HD
ENDBRANCH  23  26
ENDBRANCH  19  23
ENDBRANCH   1  15
TORSDOF 7
ENDMDL