MODEL 5
REMARK VINA RESULT: -5.355155569      1.944      5.719
REMARK  9 active torsions:
REMARK  status: ('A' for Active; 'I' for Inactive)
REMARK    1  A    between atoms: N1_1  and  C1_4
REMARK    2  A    between atoms: N3_12  and  C5_13
REMARK    3  A    between atoms: C5_13  and  C6_14
REMARK    4  A    between atoms: C6_14  and  O3_15
REMARK    5  A    between atoms: C6_14  and  C7_17
REMARK    6  A    between atoms: C7_17  and  O4_18
REMARK    7  A    between atoms: N4_20  and  O5_21
REMARK    8  A    between atoms: N5_24  and  C9_25
REMARK    9  A    between atoms: C11_29  and  O6_30
ROOT
HETATM    1  C1  UNL     1      19.052 -39.430  30.791  1.00  0.00     0.683 A
HETATM    2  N2  UNL     1      19.139 -40.695  30.303  1.00  0.00    -0.155 N
ATOM      3  H2  UNL     1      19.968 -41.259  30.491  1.00  0.00     0.187 HD
HETATM    4  C2  UNL     1      18.141 -41.199  29.576  1.00  0.00     0.279 A
HETATM    5  O1  UNL     1      18.171 -42.353  29.105  1.00  0.00    -0.266 OA
HETATM    6  C3  UNL     1      17.025 -40.405  29.336  1.00  0.00     0.150 A
HETATM    7  C4  UNL     1      15.861 -40.631  28.638  1.00  0.00     0.283 A
HETATM    8  O2  UNL     1      15.561 -41.691  28.037  1.00  0.00    -0.265 OA
HETATM    9  N3  UNL     1      15.092 -39.519  28.709  1.00  0.00    -0.226 N
HETATM   10  N4  UNL     1      15.772 -38.653  29.427  1.00  0.00    -0.139 N
HETATM   11  C8  UNL     1      16.960 -39.113  29.846  1.00  0.00     0.191 A
HETATM   12  N5  UNL     1      18.004 -38.614  30.595  1.00  0.00    -0.153 N
ENDROOT
BRANCH   9  13
HETATM   13  C5  UNL     1      13.759 -39.415  28.096  1.00  0.00     0.189 C
BRANCH  13  14
HETATM   14  C6  UNL     1      12.656 -39.878  28.986  1.00  0.00     0.161 C
BRANCH  14  15
HETATM   15  O3  UNL     1      11.834 -38.820  29.424  1.00  0.00    -0.392 OA
ATOM     16  H3  UNL     1      10.911 -38.988  29.270  1.00  0.00     0.210 HD
ENDBRANCH  14  15
BRANCH  14  17
HETATM   17  C7  UNL     1      11.731 -40.840  28.287  1.00  0.00     0.197 C
BRANCH  17  18
HETATM   18  O4  UNL     1      11.374 -40.384  27.017  1.00  0.00    -0.398 OA
ATOM     19  H4  UNL     1      11.591 -39.467  26.898  1.00  0.00     0.209 HD
ENDBRANCH  17  18
ENDBRANCH  14  17
ENDBRANCH  13  14
ENDBRANCH   9  13
BRANCH  10  20
HETATM   20  O5  UNL     1      15.288 -37.403  29.728  1.00  0.00    -0.266 OA
ATOM     21  H5  UNL     1      14.855 -37.208  30.551  1.00  0.00     0.247 HD
ENDBRANCH  10  20
BRANCH  12  22
HETATM   22  C9  UNL     1      17.902 -37.322  31.089  1.00  0.00     0.171 C
HETATM   23  C10 UNL     1      17.415 -37.100  32.512  1.00  0.00     0.160 C
HETATM   24  N6  UNL     1      17.406 -35.603  32.419  1.00  0.00    -0.144 NA
HETATM   25  N7  UNL     1      18.620 -35.286  31.773  1.00  0.00    -0.114 NA
HETATM   26  C11 UNL     1      19.195 -36.556  31.306  1.00  0.00     0.252 C
BRANCH  26  27
HETATM   27  O6  UNL     1      20.025 -36.451  30.250  1.00  0.00    -0.376 OA
ATOM     28  H6  UNL     1      20.957 -36.455  30.435  1.00  0.00     0.211 HD
ENDBRANCH  26  27
ENDBRANCH  12  22
BRANCH   1  29
HETATM   29  N1  UNL     1      20.028 -38.966  31.488  1.00  0.00    -0.234 N
ATOM     30  H12 UNL     1      20.403 -39.572  32.218  1.00  0.00     0.174 HD
ATOM     31  H11 UNL     1      20.376 -38.029  31.284  1.00  0.00     0.174 HD
ENDBRANCH   1  29
TORSDOF 9
ENDMDL