MODEL 5
REMARK VINA RESULT: -6.005643745      2.277      5.918
REMARK  8 active torsions:
REMARK  status: ('A' for Active; 'I' for Inactive)
REMARK    1  A    between atoms: N1_1  and  C1_4
REMARK    2  A    between atoms: C2_7  and  O1_8
REMARK    3  A    between atoms: C3_10  and  N3_11
REMARK    4  A    between atoms: N4_13  and  N5_15
REMARK    5  A    between atoms: C5_17  and  O2_18
REMARK    6  A    between atoms: C6_23  and  C7_24
REMARK    7  A    between atoms: C8_27  and  C9_28
REMARK       I    between atoms: C9_28  and  N8_30
REMARK    8  A    between atoms: N8_30  and  N9_32
ROOT
HETATM    1  N5  UNL     1      18.220 -38.242  30.891  1.00  0.00    -0.293 N
HETATM    2  C4  UNL     1      19.076 -39.298  30.411  1.00  0.00     0.206 C
HETATM    3  C5  UNL     1      20.349 -39.251  31.258  1.00  0.00     0.339 C
HETATM    4  N6  UNL     1      20.021 -39.401  32.663  1.00  0.00    -0.032 N
ATOM      5  H61 UNL     1      20.854 -39.523  33.239  1.00  0.00     0.281 HD
ATOM      6  H62 UNL     1      19.573 -40.296  32.858  1.00  0.00     0.281 HD
HETATM    7  C6  UNL     1      19.202 -38.267  33.111  1.00  0.00     0.310 C
HETATM    8  C8  UNL     1      17.897 -38.271  32.315  1.00  0.00     0.236 C
ENDROOT
BRANCH   1   9
HETATM    9  N4  UNL     1      17.737 -37.280  30.080  1.00  0.00    -0.243 N
HETATM   10  N3  UNL     1      16.706 -37.099  29.481  1.00  0.00    -0.278 N
ATOM     11  H3  UNL     1      16.724 -36.224  28.958  1.00  0.00     0.189 HD
ATOM     12  H4  UNL     1      18.404 -36.523  29.937  1.00  0.00     0.208 HD
BRANCH  10  13
HETATM   13  C3  UNL     1      15.508 -37.764  29.317  1.00  0.00     0.169 A
HETATM   14  C2  UNL     1      14.302 -37.361  29.903  1.00  0.00     0.189 A
HETATM   15  N2  UNL     1      13.174 -38.060  29.713  1.00  0.00    -0.168 N
HETATM   16  C1  UNL     1      13.148 -39.173  28.953  1.00  0.00     0.680 A
ATOM     17  H2  UNL     1      12.312 -37.741  30.156  1.00  0.00     0.186 HD
HETATM   18  N10 UNL     1      14.297 -39.568  28.385  1.00  0.00    -0.154 N
HETATM   19  C10 UNL     1      15.429 -38.902  28.553  1.00  0.00     0.292 A
ATOM     20  H10 UNL     1      14.300 -40.408  27.806  1.00  0.00     0.187 HD
HETATM   21  O5  UNL     1      16.497 -39.306  28.001  1.00  0.00    -0.265 OA
BRANCH  14  22
HETATM   22  O1  UNL     1      14.299 -36.232  30.682  1.00  0.00    -0.344 OA
ATOM     23  H1  UNL     1      14.467 -36.288  31.615  1.00  0.00     0.219 HD
ENDBRANCH  14  22
BRANCH  16  24
HETATM   24  N1  UNL     1      12.025 -39.815  28.798  1.00  0.00    -0.234 N
ATOM     25  H12 UNL     1      11.401 -40.036  29.575  1.00  0.00     0.174 HD
ATOM     26  H11 UNL     1      11.746 -40.116  27.864  1.00  0.00     0.174 HD
ENDBRANCH  16  24
ENDBRANCH  10  13
ENDBRANCH   1   9
BRANCH   8  27
HETATM   27  C9  UNL     1      17.022 -37.170  32.687  1.00  0.00     0.262 C
HETATM   28  O4  UNL     1      17.450 -35.970  32.530  1.00  0.00    -0.269 OA
HETATM   29  N8  UNL     1      15.713 -37.250  33.217  1.00  0.00    -0.275 N
ATOM     30  H8  UNL     1      15.300 -38.172  33.365  1.00  0.00     0.189 HD
BRANCH  29  31
HETATM   31  N9  UNL     1      14.977 -36.138  33.541  1.00  0.00    -0.343 N
ATOM     32  H92 UNL     1      14.959 -35.370  32.869  1.00  0.00     0.176 HD
ATOM     33  H91 UNL     1      14.458 -36.057  34.416  1.00  0.00     0.176 HD
ENDBRANCH  29  31
ENDBRANCH   8  27
BRANCH   3  34
HETATM   34  O2  UNL     1      21.188 -40.292  30.901  1.00  0.00    -0.368 OA
ATOM     35  H2  UNL     1      20.852 -41.109  31.250  1.00  0.00     0.212 HD
ENDBRANCH   3  34
BRANCH   7  36
HETATM   36  C7  UNL     1      18.911 -38.492  34.528  1.00  0.00     0.264 C
HETATM   37  N7  UNL     1      17.819 -39.271  34.990  1.00  0.00    -0.060 NA
HETATM   38  O3  UNL     1      19.635 -37.987  35.448  1.00  0.00    -0.274 OA
ENDBRANCH   7  36
TORSDOF 8
ENDMDL