MODEL 3
REMARK VINA RESULT: -5.386228442      2.672      5.294
REMARK  8 active torsions:
REMARK  status: ('A' for Active; 'I' for Inactive)
REMARK    1  A    between atoms: C1_4  and  N2_5
REMARK    2  A    between atoms: C1_4  and  O1_10
REMARK    3  A    between atoms: N2_5  and  N3_7
REMARK    4  A    between atoms: O1_10  and  C2_11
REMARK    5  A    between atoms: C3_12  and  O2_13
REMARK    6  A    between atoms: C5_20  and  C6_21
REMARK    7  A    between atoms: C7_24  and  N6_25
REMARK    8  A    between atoms: C9_27  and  C10_28
ROOT
HETATM    1  C2  UNL     1      15.340 -37.584  31.082  1.00  0.00     0.196 C
HETATM    2  C3  UNL     1      16.560 -37.488  30.156  1.00  0.00     0.224 C
HETATM    3  C4  UNL     1      17.409 -38.631  30.546  1.00  0.00     0.144 C
HETATM    4  N4  UNL     1      18.311 -39.096  29.771  1.00  0.00    -0.381 N
ATOM      5  H41 UNL     1      18.897 -39.885  30.040  1.00  0.00     0.158 HD
ATOM      6  H42 UNL     1      18.452 -38.670  28.855  1.00  0.00     0.158 HD
HETATM    7  O3  UNL     1      17.220 -39.203  31.777  1.00  0.00    -0.320 OA
HETATM    8  C5  UNL     1      16.800 -38.407  32.858  1.00  0.00     0.246 C
HETATM    9  C7  UNL     1      15.794 -37.340  32.478  1.00  0.00     0.179 C
ENDROOT
BRANCH   1  10
HETATM   10  O1  UNL     1      14.261 -36.852  30.643  1.00  0.00    -0.310 OA
BRANCH  10  11
HETATM   11  C1  UNL     1      13.057 -37.327  30.165  1.00  0.00     0.232 C
HETATM   12  N1  UNL     1      12.018 -36.857  30.767  1.00  0.00    -0.364 N
ATOM     13  H12 UNL     1      11.128 -37.208  30.413  1.00  0.00     0.159 HD
ATOM     14  H11 UNL     1      12.083 -36.188  31.534  1.00  0.00     0.159 HD
BRANCH  11  15
HETATM   15  N2  UNL     1      12.966 -38.262  29.092  1.00  0.00    -0.272 N
ATOM     16  H2  UNL     1      12.410 -39.105  29.239  1.00  0.00     0.190 HD
BRANCH  15  17
HETATM   17  N3  UNL     1      13.581 -38.098  27.869  1.00  0.00    -0.342 N
ATOM     18  H32 UNL     1      13.000 -37.758  27.103  1.00  0.00     0.176 HD
ATOM     19  H31 UNL     1      14.566 -38.295  27.694  1.00  0.00     0.176 HD
ENDBRANCH  15  17
ENDBRANCH  11  15
ENDBRANCH  10  11
ENDBRANCH   1  10
BRANCH   2  20
HETATM   20  O2  UNL     1      16.167 -37.559  28.822  1.00  0.00    -0.385 OA
ATOM     21  H2  UNL     1      16.716 -37.002  28.283  1.00  0.00     0.210 HD
ENDBRANCH   2  20
BRANCH   9  22
HETATM   22  N6  UNL     1      14.639 -37.458  33.345  1.00  0.00    -0.276 N
HETATM   23  C8  UNL     1      14.251 -36.629  34.324  1.00  0.00     0.148 A
HETATM   24  C9  UNL     1      13.094 -37.123  34.894  1.00  0.00     0.131 A
HETATM   25  N8  UNL     1      12.831 -38.257  34.216  1.00  0.00    -0.280 N
HETATM   26  N9  UNL     1      13.755 -38.435  33.308  1.00  0.00    -0.240 N
ATOM     27  H8  UNL     1      12.039 -38.877  34.384  1.00  0.00     0.188 HD
ATOM     28  H9  UNL     1      13.787 -39.223  32.660  1.00  0.00     0.208 HD
BRANCH  24  29
HETATM   29  C10 UNL     1      12.318 -36.554  35.990  1.00  0.00     0.284 C
HETATM   30  N7  UNL     1      13.016 -35.855  37.008  1.00  0.00    -0.056 NA
HETATM   31  O5  UNL     1      11.071 -36.684  36.023  1.00  0.00    -0.269 OA
ENDBRANCH  24  29
ENDBRANCH   9  22
BRANCH   8  32
HETATM   32  C6  UNL     1      18.041 -37.807  33.453  1.00  0.00     0.263 C
HETATM   33  N5  UNL     1      18.491 -38.256  34.721  1.00  0.00    -0.060 NA
HETATM   34  O4  UNL     1      18.710 -36.918  32.877  1.00  0.00    -0.274 OA
ENDBRANCH   8  32
TORSDOF 8
ENDMDL