MODEL 4
REMARK VINA RESULT: -5.227710013      3.033      5.399
REMARK  6 active torsions:
REMARK  status: ('A' for Active; 'I' for Inactive)
REMARK    1  A    between atoms: O1_2  and  N1_3
REMARK       I    between atoms: N1_3  and  C2_5
REMARK    2  A    between atoms: N3_7  and  N4_9
REMARK    3  A    between atoms: C3_10  and  C4_11
REMARK    4  A    between atoms: C4_11  and  C5_12
REMARK    5  A    between atoms: C6_15  and  N5_16
REMARK    6  A    between atoms: C7_20  and  O4_21
ROOT
HETATM    1  N4  UNL     1      14.391 -37.602  31.448  1.00  0.00    -0.263 N
HETATM    2  C3  UNL     1      15.638 -37.373  30.801  1.00  0.00     0.150 C
HETATM    3  C6  UNL     1      15.616 -38.163  29.515  1.00  0.00     0.243 C
HETATM    4  C7  UNL     1      14.147 -38.470  29.268  1.00  0.00     0.230 C
HETATM    5  C8  UNL     1      13.539 -38.474  30.660  1.00  0.00     0.270 A
HETATM    6  N6  UNL     1      13.574 -39.832  31.118  1.00  0.00    -0.311 N
ATOM      7  H6  UNL     1      14.482 -40.295  31.158  1.00  0.00     0.167 HD
HETATM    8  C9  UNL     1      12.546 -40.507  31.480  1.00  0.00     0.194 A
HETATM    9  N7  UNL     1      12.676 -41.879  31.928  1.00  0.00    -0.063 NA
HETATM   10  N8  UNL     1      11.288 -39.872  31.436  1.00  0.00    -0.299 N
ATOM     11  H8  UNL     1      10.458 -40.395  31.718  1.00  0.00     0.171 HD
HETATM   12  C10 UNL     1      11.158 -38.656  31.051  1.00  0.00     0.237 A
HETATM   13  N9  UNL     1       9.822 -38.076  31.033  1.00  0.00    -0.056 NA
HETATM   14  O5  UNL     1      12.250 -37.933  30.671  1.00  0.00    -0.269 OA
ENDROOT
BRANCH   1  15
HETATM   15  N3  UNL     1      14.009 -37.078  32.686  1.00  0.00    -0.270 N
HETATM   16  C2  UNL     1      14.228 -37.720  33.791  1.00  0.00     0.227 C
HETATM   17  N1  UNL     1      13.830 -37.161  35.016  1.00  0.00    -0.238 N
HETATM   18  N2  UNL     1      14.870 -38.995  33.798  1.00  0.00    -0.060 NA
ATOM     19  H1  UNL     1      13.115 -36.434  35.032  1.00  0.00     0.197 HD
ATOM     20  H3  UNL     1      13.547 -36.169  32.721  1.00  0.00     0.189 HD
BRANCH  17  21
HETATM   21  O1  UNL     1      14.395 -37.585  36.193  1.00  0.00    -0.283 OA
HETATM   22  C1  UNL     1      13.677 -37.096  37.278  1.00  0.00     0.237 C
ENDBRANCH  17  21
ENDBRANCH   1  15
BRANCH   4  23
HETATM   23  O4  UNL     1      14.011 -39.680  28.622  1.00  0.00    -0.386 OA
ATOM     24  H4  UNL     1      14.865 -40.047  28.427  1.00  0.00     0.210 HD
ENDBRANCH   4  23
BRANCH   2  25
HETATM   25  C4  UNL     1      16.050 -35.964  30.607  1.00  0.00     0.142 C
BRANCH  25  26
HETATM   26  C5  UNL     1      16.693 -35.316  31.753  1.00  0.00     0.174 C
HETATM   27  O2  UNL     1      15.952 -34.706  32.607  1.00  0.00    -0.648 OA
HETATM   28  O3  UNL     1      18.049 -35.291  32.015  1.00  0.00    -0.648 OA
ENDBRANCH  25  26
ENDBRANCH   2  25
BRANCH   3  29
HETATM   29  N5  UNL     1      16.155 -37.398  28.416  1.00  0.00    -0.070 N
ATOM     30  H53 UNL     1      15.465 -36.748  28.041  1.00  0.00     0.274 HD
ATOM     31  H52 UNL     1      16.850 -36.724  28.737  1.00  0.00     0.274 HD
ATOM     32  H51 UNL     1      16.532 -38.005  27.689  1.00  0.00     0.274 HD
ENDBRANCH   3  29
TORSDOF 6
ENDMDL