MODEL 3
REMARK VINA RESULT: -5.498486826      1.562      2.287
REMARK  8 active torsions:
REMARK  status: ('A' for Active; 'I' for Inactive)
REMARK    1  A    between atoms: S1_2  and  C2_3
REMARK    2  A    between atoms: C2_3  and  C3_4
REMARK    3  A    between atoms: C3_4  and  N1_5
REMARK    4  A    between atoms: C5_12  and  C6_13
REMARK       I    between atoms: C6_13  and  N4_15
REMARK    5  A    between atoms: N4_15  and  C7_17
REMARK    6  A    between atoms: C8_19  and  N5_20
REMARK    7  A    between atoms: C8_19  and  O3_24
REMARK    8  A    between atoms: N7_30  and  N8_31
ROOT
HETATM    1  N1  UNL     1      16.446 -37.723  30.019  1.00  0.00    -0.223 N
ATOM      2  H1  UNL     1      16.220 -38.473  29.366  1.00  0.00     0.177 HD
HETATM    3  C4  UNL     1      17.590 -37.682  30.571  1.00  0.00     0.709 A
HETATM    4  N2  UNL     1      17.919 -36.649  31.477  1.00  0.00    -0.129 N
ATOM      5  H2  UNL     1      17.225 -35.931  31.685  1.00  0.00     0.205 HD
HETATM    6  N3  UNL     1      19.145 -36.588  32.082  1.00  0.00    -0.264 N
ATOM      7  H3  UNL     1      19.339 -35.824  32.729  1.00  0.00     0.189 HD
HETATM    8  C5  UNL     1      20.093 -37.494  31.852  1.00  0.00     0.228 A
HETATM    9  N7  UNL     1      19.836 -38.554  30.959  1.00  0.00    -0.165 N
HETATM   10  N9  UNL     1      18.570 -38.660  30.304  1.00  0.00    -0.108 N
ATOM     11  H9  UNL     1      18.380 -39.425  29.657  1.00  0.00     0.208 HD
ENDROOT
BRANCH   8  12
HETATM   12  C6  UNL     1      21.357 -37.347  32.537  1.00  0.00     0.292 C
HETATM   13  O1  UNL     1      21.850 -38.462  32.981  1.00  0.00    -0.264 OA
HETATM   14  N4  UNL     1      22.087 -36.183  32.771  1.00  0.00    -0.320 N
ATOM     15  H4  UNL     1      21.743 -35.281  32.443  1.00  0.00     0.166 HD
BRANCH  14  16
HETATM   16  C7  UNL     1      23.385 -36.280  33.511  1.00  0.00     0.324 C
HETATM   17  O2  UNL     1      23.288 -35.417  34.571  1.00  0.00    -0.281 OA
HETATM   18  C8  UNL     1      24.472 -34.703  34.661  1.00  0.00     0.427 C
HETATM   19  N6  UNL     1      25.128 -34.772  33.401  1.00  0.00    -0.278 N
HETATM   20  C9  UNL     1      24.498 -35.805  32.659  1.00  0.00     0.272 C
ATOM     21  H6  UNL     1      25.905 -34.189  33.089  1.00  0.00     0.169 HD
HETATM   22  O4  UNL     1      24.813 -36.221  31.536  1.00  0.00    -0.268 OA
BRANCH  18  23
HETATM   23  N5  UNL     1      25.255 -35.273  35.744  1.00  0.00    -0.001 N
ATOM     24  H53 UNL     1      25.135 -34.773  36.625  1.00  0.00     0.283 HD
ATOM     25  H52 UNL     1      24.902 -36.179  36.052  1.00  0.00     0.283 HD
ATOM     26  H51 UNL     1      26.228 -35.311  35.440  1.00  0.00     0.283 HD
ENDBRANCH  18  23
BRANCH  18  27
HETATM   27  O3  UNL     1      24.206 -33.380  34.980  1.00  0.00    -0.326 OA
ATOM     28  H3  UNL     1      23.690 -32.977  34.291  1.00  0.00     0.216 HD
ENDBRANCH  18  27
ENDBRANCH  14  16
ENDBRANCH   8  12
BRANCH   9  29
HETATM   29  N8  UNL     1      20.756 -39.558  30.645  1.00  0.00    -0.322 N
ATOM     30  H82 UNL     1      21.612 -39.554  31.200  1.00  0.00     0.179 HD
ATOM     31  H81 UNL     1      20.614 -40.259  29.918  1.00  0.00     0.179 HD
ENDBRANCH   9  29
BRANCH   1  32
HETATM   32  C3  UNL     1      15.468 -36.709  30.314  1.00  0.00     0.148 C
BRANCH  32  33
HETATM   33  C2  UNL     1      14.055 -37.297  30.210  1.00  0.00     0.093 C
BRANCH  33  34
HETATM   34  S1  UNL     1      13.985 -38.181  28.618  1.00  0.00    -0.172 SA
HETATM   35  C1  UNL     1      12.882 -39.593  28.695  1.00  0.00     0.089 C
ENDBRANCH  33  34
ENDBRANCH  32  33
ENDBRANCH   1  32
TORSDOF 8
ENDMDL