MODEL 4
REMARK VINA RESULT: -5.569356790      3.299      5.378
REMARK  6 active torsions:
REMARK  status: ('A' for Active; 'I' for Inactive)
REMARK    1  A    between atoms: N1_1  and  C1_4
REMARK    2  A    between atoms: N2_7  and  C4_8
REMARK    3  A    between atoms: C5_10  and  C6_11
REMARK       I    between atoms: C6_11  and  N3_13
REMARK       I    between atoms: N3_13  and  C7_15
REMARK       I    between atoms: C7_15  and  N4_17
REMARK    4  A    between atoms: N4_17  and  N5_19
REMARK    5  A    between atoms: C8_22  and  O4_23
REMARK    6  A    between atoms: C8_22  and  C9_25
ROOT
HETATM    1  C4  UNL     1      14.911 -37.241  30.016  1.00  0.00     0.385 C
HETATM    2  O1  UNL     1      14.706 -38.114  28.978  1.00  0.00    -0.322 OA
HETATM    3  C5  UNL     1      13.336 -38.307  28.940  1.00  0.00     0.292 C
HETATM    4  C8  UNL     1      12.902 -37.876  30.316  1.00  0.00     0.293 C
HETATM    5  O7  UNL     1      14.111 -37.849  31.008  1.00  0.00    -0.294 OA
ENDROOT
BRANCH   1   6
HETATM    6  N2  UNL     1      16.259 -37.077  30.454  1.00  0.00    -0.259 N
HETATM    7  C3  UNL     1      17.206 -38.029  30.415  1.00  0.00     0.104 A
HETATM    8  C2  UNL     1      18.520 -37.805  30.851  1.00  0.00     0.065 A
HETATM    9  C1  UNL     1      18.870 -36.555  31.345  1.00  0.00     0.103 A
HETATM   10  N6  UNL     1      17.886 -35.624  31.368  1.00  0.00    -0.295 N
HETATM   11  C10 UNL     1      16.635 -35.860  30.945  1.00  0.00     0.331 A
ATOM     12  H6  UNL     1      18.108 -34.694  31.724  1.00  0.00     0.172 HD
HETATM   13  O8  UNL     1      15.764 -34.955  30.992  1.00  0.00    -0.246 OA
BRANCH   9  14
HETATM   14  N1  UNL     1      20.058 -36.283  31.750  1.00  0.00    -0.385 N
ATOM     15  H12 UNL     1      20.360 -36.505  32.699  1.00  0.00     0.157 HD
ATOM     16  H11 UNL     1      20.748 -35.829  31.153  1.00  0.00     0.157 HD
ENDBRANCH   9  14
ENDBRANCH   1   6
BRANCH   3  17
HETATM   17  C6  UNL     1      12.939 -39.603  28.532  1.00  0.00     0.261 C
HETATM   18  O2  UNL     1      12.118 -40.073  27.856  1.00  0.00    -0.270 OA
HETATM   19  N3  UNL     1      13.947 -40.813  29.232  1.00  0.00    -0.276 N
HETATM   20  C7  UNL     1      13.340 -41.937  28.723  1.00  0.00     0.341 C
ATOM     21  H3  UNL     1      14.757 -40.723  29.844  1.00  0.00     0.173 HD
HETATM   22  O3  UNL     1      12.290 -41.888  27.961  1.00  0.00    -0.245 OA
HETATM   23  N4  UNL     1      13.778 -43.257  28.959  1.00  0.00    -0.258 N
ATOM     24  H4  UNL     1      14.601 -43.405  29.543  1.00  0.00     0.191 HD
BRANCH  23  25
HETATM   25  N5  UNL     1      13.119 -44.371  28.418  1.00  0.00    -0.341 N
ATOM     26  H52 UNL     1      13.004 -44.412  27.405  1.00  0.00     0.177 HD
ATOM     27  H51 UNL     1      12.761 -45.127  29.001  1.00  0.00     0.177 HD
ENDBRANCH  23  25
ENDBRANCH   3  17
BRANCH   4  28
HETATM   28  O4  UNL     1      12.490 -36.524  30.220  1.00  0.00    -0.355 OA
ATOM     29  H4  UNL     1      12.878 -36.060  30.952  1.00  0.00     0.213 HD
ENDBRANCH   4  28
BRANCH   4  30
HETATM   30  C9  UNL     1      11.828 -38.623  30.931  1.00  0.00     0.242 C
HETATM   31  O5  UNL     1      10.618 -38.372  30.822  1.00  0.00    -0.644 OA
HETATM   32  O6  UNL     1      12.165 -39.750  31.737  1.00  0.00    -0.644 OA
ENDBRANCH   4  30
TORSDOF 6
ENDMDL