MODEL 5
REMARK VINA RESULT: -5.374901580      2.877      6.211
REMARK  5 active torsions:
REMARK  status: ('A' for Active; 'I' for Inactive)
REMARK    1  A    between atoms: C3_4  and  C4_5
REMARK    2  A    between atoms: C4_5  and  N2_6
REMARK    3  A    between atoms: C6_11  and  N4_12
REMARK       I    between atoms: N4_12  and  C7_14
REMARK       I    between atoms: C7_14  and  N5_15
REMARK       I    between atoms: C7_14  and  N6_19
REMARK    4  A    between atoms: C8_25  and  N8_26
REMARK    5  A    between atoms: N8_26  and  C9_28
ROOT
HETATM    1  N2  UNL     1      20.154 -38.753  31.471  1.00  0.00    -0.126 N
HETATM    2  C5  UNL     1      19.875 -40.023  31.138  1.00  0.00     0.355 A
HETATM    3  O1  UNL     1      20.613 -40.958  31.581  1.00  0.00    -0.245 OA
HETATM    4  N3  UNL     1      18.827 -40.336  30.343  1.00  0.00    -0.140 N
ATOM      5  H3  UNL     1      18.649 -41.314  30.114  1.00  0.00     0.189 HD
HETATM    6  C6  UNL     1      18.018 -39.388  29.849  1.00  0.00     0.699 A
HETATM    7  N7  UNL     1      18.304 -38.102  30.188  1.00  0.00    -0.022 N
ATOM      8  H7  UNL     1      17.711 -37.351  29.832  1.00  0.00     0.203 HD
HETATM    9  C8  UNL     1      19.348 -37.791  30.981  1.00  0.00     0.700 A
ENDROOT
BRANCH   6  10
HETATM   10  N4  UNL     1      17.011 -39.652  29.088  1.00  0.00    -0.173 N
HETATM   11  C7  UNL     1      15.858 -38.847  28.879  1.00  0.00     0.494 C
HETATM   12  N5  UNL     1      15.098 -38.699  30.087  1.00  0.00    -0.032 N
HETATM   13  N6  UNL     1      16.135 -37.554  28.283  1.00  0.00    -0.032 N
ATOM     14  H53 UNL     1      14.854 -39.605  30.489  1.00  0.00     0.278 HD
ATOM     15  H52 UNL     1      15.672 -38.339  30.848  1.00  0.00     0.278 HD
ATOM     16  H51 UNL     1      14.270 -38.122  29.937  1.00  0.00     0.278 HD
ATOM     17  H63 UNL     1      16.828 -37.048  28.835  1.00  0.00     0.278 HD
ATOM     18  H62 UNL     1      16.655 -37.666  27.413  1.00  0.00     0.278 HD
ATOM     19  H61 UNL     1      15.308 -36.977  28.134  1.00  0.00     0.278 HD
ATOM     20  H4  UNL     1      17.046 -40.536  28.581  1.00  0.00     0.181 HD
ENDBRANCH   6  10
BRANCH   9  21
HETATM   21  N8  UNL     1      19.578 -36.558  31.277  1.00  0.00    -0.206 N
ATOM     22  H8  UNL     1      20.543 -36.234  31.221  1.00  0.00     0.179 HD
BRANCH  21  23
HETATM   23  C9  UNL     1      18.589 -35.613  31.676  1.00  0.00     0.210 C
HETATM   24  C10 UNL     1      17.629 -36.125  32.702  1.00  0.00     0.061 C
HETATM   25  C11 UNL     1      16.289 -35.656  32.178  1.00  0.00     0.133 C
HETATM   26  N9  UNL     1      16.511 -35.682  30.743  1.00  0.00    -0.146 NA
HETATM   27  N10 UNL     1      17.785 -35.135  30.566  1.00  0.00    -0.122 NA
ENDBRANCH  21  23
ENDBRANCH   9  21
BRANCH   1  28
HETATM   28  C4  UNL     1      21.250 -38.412  32.308  1.00  0.00     0.211 C
BRANCH  28  29
HETATM   29  C3  UNL     1      20.895 -38.250  33.750  1.00  0.00     0.046 A
HETATM   30  C2  UNL     1      21.610 -37.643  34.757  1.00  0.00     0.119 A
HETATM   31  N1  UNL     1      20.934 -37.717  35.913  1.00  0.00    -0.334 N
HETATM   32  C1  UNL     1      21.340 -37.197  37.225  1.00  0.00     0.158 C
HETATM   33  C12 UNL     1      19.788 -38.368  35.653  1.00  0.00     0.194 A
HETATM   34  N11 UNL     1      19.754 -38.693  34.356  1.00  0.00    -0.331 N
HETATM   35  N12 UNL     1      18.800 -38.637  36.661  1.00  0.00    -0.063 NA
ATOM     36  H11 UNL     1      18.996 -39.194  33.893  1.00  0.00     0.168 HD
ENDBRANCH  28  29
ENDBRANCH   1  28
TORSDOF 5
ENDMDL