MODEL 1
REMARK VINA RESULT: -6.227360236      0.000      0.000
REMARK  2 active torsions:
REMARK  status: ('A' for Active; 'I' for Inactive)
REMARK    1  A    between atoms: C2_2  and  C3_7
REMARK    2  A    between atoms: N1_3  and  O1_5
REMARK       I    between atoms: C3_7  and  N2_9
ROOT
HETATM    1  C3  UNL     1       6.990 -24.779 -11.021  1.00  0.00     0.270 C
HETATM    2  O2  UNL     1       6.071 -24.266 -11.708  1.00  0.00    -0.266 OA
HETATM    3  N2  UNL     1       8.258 -24.151 -11.072  1.00  0.00    -0.319 N
ATOM      4  H2  UNL     1       8.823 -24.253 -11.915  1.00  0.00     0.169 HD
HETATM    5  C4  UNL     1       8.721 -23.461 -10.101  1.00  0.00     0.063 C
HETATM    6  S1  UNL     1       7.731 -23.290  -8.634  1.00  0.00    -0.079 SA
HETATM    7  C5  UNL     1       8.872 -22.781  -7.352  1.00  0.00    -0.001 C
HETATM    8  C6  UNL     1       8.288 -22.483  -6.008  1.00  0.00     0.058 C
HETATM    9  C7  UNL     1      10.155 -22.688  -7.622  1.00  0.00     0.043 C
HETATM   10 CL1  UNL     1      11.176 -22.174  -6.257  1.00  0.00    -0.086 Cl
HETATM   11  C8  UNL     1      10.835 -22.952  -8.881  1.00  0.00     0.152 C
HETATM   12  C9  UNL     1      11.509 -24.273  -8.894  1.00  0.00     0.070 C
HETATM   13  N3  UNL     1      12.033 -25.303  -8.919  1.00  0.00    -0.197 NA
HETATM   14  C10 UNL     1      10.030 -22.799 -10.124  1.00  0.00     0.023 C
HETATM   15  C11 UNL     1       9.864 -21.307 -10.388  1.00  0.00     0.024 C
HETATM   16  C12 UNL     1      10.834 -23.438 -11.265  1.00  0.00     0.024 C
ENDROOT
BRANCH   1  17
HETATM   17  C2  UNL     1       6.702 -25.956 -10.240  1.00  0.00     0.096 C
HETATM   18  C1  UNL     1       5.324 -26.205  -9.763  1.00  0.00     0.076 C
HETATM   19  N1  UNL     1       7.619 -26.799  -9.947  1.00  0.00    -0.268 N
ATOM     20  H1  UNL     1       7.356 -27.613  -9.393  1.00  0.00     0.194 HD
BRANCH  19  21
HETATM   21  O1  UNL     1       8.928 -26.684 -10.327  1.00  0.00    -0.290 OA
ATOM     22  H1  UNL     1       9.671 -26.876  -9.766  1.00  0.00     0.244 HD
ENDBRANCH  19  21
ENDBRANCH   1  17
TORSDOF 2
ENDMDL