MODEL 5
REMARK VINA RESULT: -6.591483457      2.887      3.792
REMARK  1 active torsions:
REMARK  status: ('A' for Active; 'I' for Inactive)
REMARK       I    between atoms: C2_2  and  N1_4
REMARK    1  A    between atoms: N1_4  and  C3_6
ROOT
HETATM    1  C3  UNL     1       9.182 -22.937  -8.085  1.00  0.00     0.064 A
HETATM    2  C4  UNL     1       8.281 -23.961  -8.078  1.00  0.00     0.008 A
HETATM    3  C5  UNL     1       8.153 -25.076  -9.092  1.00  0.00     0.059 C
HETATM    4  S1  UNL     1       7.345 -23.711  -6.686  1.00  0.00    -0.084 SA
HETATM    5  C6  UNL     1       8.121 -22.299  -6.131  1.00  0.00     0.066 A
HETATM    6  S2  UNL     1       7.816 -21.327  -4.714  1.00  0.00    -0.039 SA
HETATM    7  C7  UNL     1       8.983 -20.210  -4.096  1.00  0.00     0.223 C
HETATM    8  O2  UNL     1       8.683 -19.676  -3.012  1.00  0.00    -0.280 OA
HETATM    9  C8  UNL     1      10.149 -19.940  -4.759  1.00  0.00     0.038 C
HETATM   10  C9  UNL     1      11.169 -19.266  -3.860  1.00  0.00     0.056 C
HETATM   11  C10 UNL     1      10.529 -20.164  -6.046  1.00  0.00     0.177 C
HETATM   12  F1  UNL     1      11.660 -19.439  -6.423  1.00  0.00    -0.201 F
HETATM   13  C11 UNL     1      10.014 -20.949  -7.007  1.00  0.00     0.225 C
HETATM   14  O3  UNL     1      10.459 -20.618  -8.174  1.00  0.00    -0.284 OA
HETATM   15  C12 UNL     1       9.117 -22.037  -7.057  1.00  0.00     0.069 A
ENDROOT
BRANCH   1  16
HETATM   16  N1  UNL     1      10.163 -22.844  -9.176  1.00  0.00    -0.326 N
HETATM   17  C2  UNL     1      11.332 -23.617  -9.135  1.00  0.00     0.218 C
HETATM   18  C1  UNL     1      12.317 -23.527 -10.226  1.00  0.00     0.117 C
HETATM   19  O1  UNL     1      11.532 -24.380  -8.170  1.00  0.00    -0.274 OA
ATOM     20  H1  UNL     1       9.993 -22.217  -9.962  1.00  0.00     0.169 HD
ENDBRANCH   1  16
TORSDOF 1
ENDMDL