MODEL 1
REMARK VINA RESULT: -7.138438842      0.000      0.000
REMARK  3 active torsions:
REMARK  status: ('A' for Active; 'I' for Inactive)
REMARK    1  A    between atoms: O1_2  and  C2_3
REMARK       I    between atoms: C2_3  and  N1_5
REMARK    2  A    between atoms: N1_5  and  C3_7
REMARK    3  A    between atoms: C4_10  and  C5_11
ROOT
HETATM    1  C3  UNL     1       9.247 -21.798  -6.714  1.00  0.00     0.682 C
HETATM    2  N2  UNL     1       9.431 -22.170  -7.916  1.00  0.00    -0.215 N
ATOM      3  H2  UNL     1      10.204 -21.747  -8.429  1.00  0.00     0.178 HD
HETATM    4  C4  UNL     1       8.646 -23.121  -8.588  1.00  0.00     0.157 C
HETATM    5  C11 UNL     1       7.668 -23.859  -7.767  1.00  0.00     0.159 C
HETATM    6  C12 UNL     1       6.361 -23.996  -8.449  1.00  0.00     0.071 C
HETATM    7  N3  UNL     1       5.346 -24.117  -8.986  1.00  0.00    -0.196 NA
HETATM    8  C13 UNL     1       7.512 -23.358  -6.407  1.00  0.00     0.100 C
HETATM    9  N4  UNL     1       8.220 -22.430  -5.917  1.00  0.00    -0.204 N
ATOM     10  H4  UNL     1       8.065 -22.126  -4.955  1.00  0.00     0.183 HD
ENDROOT
BRANCH   4  11
HETATM   11  C5  UNL     1       9.441 -23.965  -9.536  1.00  0.00    -0.012 A
HETATM   12  C6  UNL     1      10.427 -24.774  -9.067  1.00  0.00     0.011 A
HETATM   13  C7  UNL     1      11.184 -25.597  -9.914  1.00  0.00     0.001 A
HETATM   14  C8  UNL     1      10.891 -25.557 -11.257  1.00  0.00     0.002 A
HETATM   15  C9  UNL     1       9.882 -24.728 -11.728  1.00  0.00     0.024 A
HETATM   16  C10 UNL     1       9.147 -23.927 -10.902  1.00  0.00     0.042 A
HETATM   17 CL1  UNL     1       7.865 -22.863 -11.448  1.00  0.00    -0.084 Cl
ENDBRANCH   4  11
BRANCH   1  18
HETATM   18  N1  UNL     1      10.071 -20.825  -6.093  1.00  0.00    -0.135 N
HETATM   19  C2  UNL     1      11.474 -20.940  -6.143  1.00  0.00     0.378 C
HETATM   20  O2  UNL     1      12.064 -21.891  -6.730  1.00  0.00    -0.238 OA
ATOM     21  H1  UNL     1       9.645 -20.035  -5.607  1.00  0.00     0.189 HD
BRANCH  19  22
HETATM   22  O1  UNL     1      12.235 -19.961  -5.518  1.00  0.00    -0.308 OA
HETATM   23  C1  UNL     1      11.648 -18.990  -4.690  1.00  0.00     0.215 C
ENDBRANCH  19  22
ENDBRANCH   1  18
TORSDOF 3
ENDMDL