MODEL 1
REMARK VINA RESULT: -5.737642041      0.000      0.000
REMARK  3 active torsions:
REMARK  status: ('A' for Active; 'I' for Inactive)
REMARK    1  A    between atoms: C2_2  and  C5_5
REMARK    2  A    between atoms: C5_5  and  S1_6
REMARK    3  A    between atoms: S1_6  and  C6_7
REMARK       I    between atoms: C6_7  and  N1_9
ROOT
HETATM    1  C6  UNL     1      10.038 -21.853 -10.839  1.00  0.00     0.285 C
HETATM    2  O1  UNL     1       9.808 -20.618 -11.005  1.00  0.00    -0.260 OA
HETATM    3  N1  UNL     1       9.207 -22.617  -9.981  1.00  0.00    -0.302 N
ATOM      4  H1  UNL     1       8.513 -23.255 -10.371  1.00  0.00     0.171 HD
HETATM    5  C7  UNL     1       9.332 -22.501  -8.725  1.00  0.00     0.134 A
HETATM    6  N2  UNL     1      10.245 -21.662  -8.218  1.00  0.00    -0.318 N
ATOM      7  H2  UNL     1      10.831 -21.123  -8.856  1.00  0.00     0.169 HD
HETATM    8  C8  UNL     1      10.411 -21.509  -6.891  1.00  0.00     0.189 A
HETATM    9  C9  UNL     1      11.385 -20.612  -6.333  1.00  0.00     0.137 C
HETATM   10  N3  UNL     1      12.167 -19.886  -5.876  1.00  0.00    -0.188 NA
HETATM   11  N4  UNL     1       9.624 -22.231  -6.083  1.00  0.00    -0.342 N
ATOM     12  H4  UNL     1       9.737 -22.125  -5.076  1.00  0.00     0.167 HD
HETATM   13  C10 UNL     1       8.694 -23.087  -6.536  1.00  0.00     0.118 A
HETATM   14  C11 UNL     1       8.524 -23.245  -7.890  1.00  0.00     0.093 A
HETATM   15 CL1  UNL     1       7.324 -24.349  -8.558  1.00  0.00    -0.079 Cl
ENDROOT
BRANCH   1  16
HETATM   16  S1  UNL     1      11.389 -22.676 -11.660  1.00  0.00    -0.068 SA
BRANCH  16  17
HETATM   17  C5  UNL     1      12.462 -23.459 -10.430  1.00  0.00     0.092 C
BRANCH  17  18
HETATM   18  C2  UNL     1      12.439 -24.963 -10.544  1.00  0.00    -0.042 C
HETATM   19  C1  UNL     1      12.292 -25.526  -9.138  1.00  0.00     0.015 C
HETATM   20  C3  UNL     1      13.695 -25.447 -11.208  1.00  0.00     0.015 C
HETATM   21  C4  UNL     1      11.221 -25.355 -11.347  1.00  0.00     0.015 C
ENDBRANCH  17  18
ENDBRANCH  16  17
ENDBRANCH   1  16
TORSDOF 3
ENDMDL