MODEL 4
REMARK VINA RESULT: -6.191799841      3.428      4.356
REMARK  4 active torsions:
REMARK  status: ('A' for Active; 'I' for Inactive)
REMARK    1  A    between atoms: S1_2  and  C2_3
REMARK    2  A    between atoms: C2_3  and  N1_5
REMARK    3  A    between atoms: N1_5  and  C3_7
REMARK    4  A    between atoms: C6_12  and  C7_13
ROOT
HETATM    1  C3  UNL     1      11.203 -22.861  -7.778  1.00  0.00     0.151 A
HETATM    2  N2  UNL     1       9.948 -23.318  -7.810  1.00  0.00    -0.339 N
ATOM      3  H2  UNL     1       9.671 -24.032  -8.483  1.00  0.00     0.168 HD
HETATM    4  C4  UNL     1       9.088 -22.835  -6.966  1.00  0.00     0.026 A
HETATM    5  C5  UNL     1       7.629 -23.271  -6.898  1.00  0.00     0.070 C
HETATM    6  C6  UNL     1       9.518 -21.878  -6.086  1.00  0.00     0.053 A
HETATM    7  S3  UNL     1      11.160 -21.715  -6.518  1.00  0.00    -0.050 SA
ENDROOT
BRANCH   6   8
HETATM    8  C7  UNL     1       8.790 -21.153  -5.030  1.00  0.00     0.027 C
HETATM    9  N3  UNL     1       7.663 -21.528  -4.552  1.00  0.00    -0.389 N
HETATM   10  C8  UNL     1       7.201 -20.614  -3.530  1.00  0.00     0.157 C
ATOM     11  H3  UNL     1       7.157 -22.361  -4.853  1.00  0.00     0.159 HD
HETATM   12  C9  UNL     1       8.484 -19.983  -3.061  1.00  0.00     0.193 C
HETATM   13  F1  UNL     1       8.295 -18.707  -2.570  1.00  0.00    -0.247 F
HETATM   14  C10 UNL     1       9.262 -19.908  -4.382  1.00  0.00     0.097 C
ENDBRANCH   6   8
BRANCH   1  15
HETATM   15  N1  UNL     1      12.207 -23.227  -8.548  1.00  0.00    -0.322 N
ATOM     16  H1  UNL     1      13.159 -22.997  -8.263  1.00  0.00     0.169 HD
BRANCH  15  17
HETATM   17  C2  UNL     1      12.002 -23.924  -9.749  1.00  0.00     0.140 C
HETATM   18  S2  UNL     1      12.016 -25.555  -9.800  1.00  0.00    -0.053 SA
BRANCH  17  19
HETATM   19  S1  UNL     1      11.720 -22.998 -11.248  1.00  0.00    -0.105 SA
HETATM   20  C1  UNL     1      10.045 -22.339 -11.288  1.00  0.00     0.098 C
ENDBRANCH  17  19
ENDBRANCH  15  17
ENDBRANCH   1  15
TORSDOF 4
ENDMDL