MODEL 5
REMARK VINA RESULT: -6.823342330      2.747      3.086
REMARK  5 active torsions:
REMARK  status: ('A' for Active; 'I' for Inactive)
REMARK    1  A    between atoms: C4_5  and  O1_6
REMARK    2  A    between atoms: O1_6  and  C5_7
REMARK    3  A    between atoms: C5_7  and  C6_8
REMARK    4  A    between atoms: C6_8  and  C7_9
REMARK    5  A    between atoms: C7_9  and  C8_10
ROOT
HETATM    1  C5  UNL     1       7.755 -24.180  -8.432  1.00  0.00     0.134 C
HETATM    2  C10 UNL     1       6.858 -23.150  -9.040  1.00  0.00     0.079 C
HETATM    3  C11 UNL     1       5.449 -23.563  -9.241  1.00  0.00     0.236 C
HETATM    4  N3  UNL     1       5.198 -24.932  -9.522  1.00  0.00    -0.075 N
ATOM      5  H31 UNL     1       4.431 -25.053 -10.184  1.00  0.00     0.277 HD
ATOM      6  H32 UNL     1       4.783 -25.417  -8.727  1.00  0.00     0.277 HD
HETATM    7  C12 UNL     1       6.411 -25.571  -9.974  1.00  0.00     0.236 C
HETATM    8  C13 UNL     1       7.329 -25.594  -8.747  1.00  0.00     0.079 C
ENDROOT
BRANCH   1   9
HETATM    9  O1  UNL     1       7.987 -24.064  -7.068  1.00  0.00    -0.327 OA
BRANCH   9  10
HETATM   10  C4  UNL     1       8.275 -22.940  -6.329  1.00  0.00     0.071 A
HETATM   11  C3  UNL     1       9.366 -22.121  -6.542  1.00  0.00     0.040 A
HETATM   12  C2  UNL     1       9.627 -20.986  -5.771  1.00  0.00     0.045 A
HETATM   13  C1  UNL     1       8.771 -20.648  -4.744  1.00  0.00     0.116 A
HETATM   14  F1  UNL     1       9.000 -19.555  -3.980  1.00  0.00    -0.206 F
HETATM   15  C15 UNL     1       7.673 -21.442  -4.503  1.00  0.00     0.045 A
HETATM   16  C14 UNL     1       7.437 -22.574  -5.293  1.00  0.00     0.040 A
ENDBRANCH   9  10
ENDBRANCH   1   9
BRANCH   1  17
HETATM   17  C6  UNL     1       9.084 -23.998  -9.076  1.00  0.00    -0.060 C
BRANCH  17  18
HETATM   18  C7  UNL     1      10.153 -23.830  -9.605  1.00  0.00    -0.037 C
BRANCH  18  19
HETATM   19  C8  UNL     1      11.449 -23.608 -10.226  1.00  0.00     0.144 A
HETATM   20  N1  UNL     1      12.656 -23.852  -9.730  1.00  0.00    -0.286 N
HETATM   21  N2  UNL     1      13.684 -23.594 -10.414  1.00  0.00    -0.304 N
ATOM     22  H1  UNL     1      12.752 -24.247  -8.795  1.00  0.00     0.188 HD
HETATM   23  C9  UNL     1      13.557 -23.079 -11.634  1.00  0.00     0.159 A
ATOM     24  H2  UNL     1      14.612 -23.782 -10.033  1.00  0.00     0.186 HD
HETATM   25  S1  UNL     1      11.849 -22.975 -11.762  1.00  0.00    -0.055 SA
ENDBRANCH  18  19
ENDBRANCH  17  18
ENDBRANCH   1  17
TORSDOF 5
ENDMDL