MODEL 1
REMARK VINA RESULT: -6.808677449      0.000      0.000
REMARK  2 active torsions:
REMARK  status: ('A' for Active; 'I' for Inactive)
REMARK    1  A    between atoms: C5_6  and  N2_7
REMARK    2  A    between atoms: C8_14  and  C9_15
ROOT
HETATM    1  C1  UNL     1      10.427 -20.817 -13.215  1.00  0.00     0.012 C
HETATM    2  C2  UNL     1      10.752 -22.031 -12.413  1.00  0.00     0.019 C
HETATM    3  C3  UNL     1      12.226 -21.950 -11.982  1.00  0.00     0.129 C
HETATM    4  C4  UNL     1      12.994 -21.905 -13.238  1.00  0.00     0.066 C
HETATM    5  N1  UNL     1      13.599 -21.888 -14.230  1.00  0.00    -0.197 NA
HETATM    6  C5  UNL     1      12.503 -23.275 -11.338  1.00  0.00     0.219 C
HETATM    7  C6  UNL     1      11.693 -23.564 -10.129  1.00  0.00     0.134 C
HETATM    8  C7  UNL     1      11.876 -24.992  -9.839  1.00  0.00     0.067 C
HETATM    9  N3  UNL     1      12.025 -26.128  -9.593  1.00  0.00    -0.197 NA
HETATM   10  C8  UNL     1      10.233 -23.208 -10.253  1.00  0.00     0.056 C
HETATM   11  C15 UNL     1       9.999 -21.978 -11.098  1.00  0.00     0.107 C
HETATM   12  C16 UNL     1       8.568 -21.950 -11.446  1.00  0.00     0.065 C
HETATM   13  N4  UNL     1       7.444 -21.920 -11.723  1.00  0.00    -0.197 NA
ENDROOT
BRANCH   6  14
HETATM   14  N2  UNL     1      13.899 -23.469 -11.029  1.00  0.00    -0.072 N
ATOM     15  H23 UNL     1      14.350 -24.056 -11.731  1.00  0.00     0.274 HD
ATOM     16  H22 UNL     1      14.426 -22.607 -11.169  1.00  0.00     0.274 HD
ATOM     17  H21 UNL     1      14.049 -23.841 -10.091  1.00  0.00     0.274 HD
ENDBRANCH   6  14
BRANCH  10  18
HETATM   18  C9  UNL     1       9.558 -23.041  -8.970  1.00  0.00    -0.051 A
HETATM   19  C10 UNL     1       8.413 -23.739  -8.646  1.00  0.00     0.009 A
HETATM   20  C11 UNL     1       7.784 -23.561  -7.409  1.00  0.00     0.024 A
HETATM   21  C12 UNL     1       8.291 -22.681  -6.475  1.00  0.00     0.034 A
HETATM   22 CL1  UNL     1       7.480 -22.472  -4.915  1.00  0.00    -0.084 Cl
HETATM   23  C13 UNL     1       9.427 -21.990  -6.795  1.00  0.00     0.024 A
HETATM   24  C14 UNL     1      10.042 -22.170  -8.018  1.00  0.00     0.009 A
ENDBRANCH  10  18
TORSDOF 2
ENDMDL