MODEL 5
REMARK VINA RESULT: -5.786170812      1.493      1.659
REMARK  3 active torsions:
REMARK  status: ('A' for Active; 'I' for Inactive)
REMARK    1  A    between atoms: N1_1  and  N2_4
REMARK    2  A    between atoms: N2_4  and  N3_5
REMARK    3  A    between atoms: N3_5  and  C1_7
ROOT
HETATM    1  C1  UNL     1       9.505 -23.486  -8.009  1.00  0.00     0.087 A
HETATM    2  C2  UNL     1       8.643 -23.188  -6.974  1.00  0.00     0.035 A
HETATM    3  C3  UNL     1       7.284 -23.280  -7.083  1.00  0.00     0.028 A
HETATM    4  C4  UNL     1       6.703 -23.683  -8.259  1.00  0.00     0.053 A
HETATM    5 CL1  UNL     1       4.952 -23.808  -8.416  1.00  0.00    -0.083 Cl
HETATM    6  C5  UNL     1       7.537 -23.992  -9.323  1.00  0.00     0.057 A
HETATM    7  C6  UNL     1       8.902 -23.896  -9.198  1.00  0.00     0.127 A
HETATM    8  S1  UNL     1       9.916 -24.284 -10.535  1.00  0.00     0.269 S
HETATM    9  O1  UNL     1      11.344 -24.495 -10.109  1.00  0.00    -0.200 OA
HETATM   10  O2  UNL     1       9.835 -23.155 -11.539  1.00  0.00    -0.200 OA
HETATM   11  N4  UNL     1       9.283 -25.685 -11.326  1.00  0.00    -0.240 N
ATOM     12  H4  UNL     1       9.877 -26.478 -11.567  1.00  0.00     0.182 HD
HETATM   13  C7  UNL     1       7.895 -25.674 -11.623  1.00  0.00     0.298 C
HETATM   14  O3  UNL     1       7.434 -26.498 -12.446  1.00  0.00    -0.259 OA
HETATM   15  S2  UNL     1       6.761 -24.524 -10.864  1.00  0.00    -0.025 SA
ENDROOT
BRANCH   1  16
HETATM   16  N3  UNL     1      10.922 -23.385  -7.881  1.00  0.00    -0.215 N
ATOM     17  H3  UNL     1      11.556 -23.945  -8.453  1.00  0.00     0.204 HD
BRANCH  16  18
HETATM   18  N2  UNL     1      11.345 -22.574  -7.030  1.00  0.00    -0.243 NA
BRANCH  18  19
HETATM   19  N1  UNL     1      11.996 -21.803  -6.316  1.00  0.00    -0.260 N
ATOM     20  H12 UNL     1      11.665 -21.000  -6.849  1.00  0.00     0.193 HD
ATOM     21  H11 UNL     1      12.595 -21.354  -5.623  1.00  0.00     0.193 HD
ENDBRANCH  18  19
ENDBRANCH  16  18
ENDBRANCH   1  16
TORSDOF 3
ENDMDL