MODEL 3
REMARK VINA RESULT: -7.618419056      2.876      4.710
REMARK  1 active torsions:
REMARK  status: ('A' for Active; 'I' for Inactive)
REMARK    1  A    between atoms: C7_12  and  C8_13
ROOT
HETATM    1  C1  UNL     1       5.326 -23.048  -8.745  1.00  0.00     0.024 C
HETATM    2  C2  UNL     1       6.246 -24.161  -8.343  1.00  0.00     0.101 C
HETATM    3  C3  UNL     1       6.679 -24.888  -9.550  1.00  0.00     0.029 C
HETATM    4  N1  UNL     1       5.949 -25.858  -9.939  1.00  0.00    -0.403 N
ATOM      5  H11 UNL     1       6.248 -26.361 -10.773  1.00  0.00     0.155 HD
ATOM      6  H12 UNL     1       5.114 -26.078  -9.396  1.00  0.00     0.155 HD
HETATM    7  C4  UNL     1       7.892 -24.569 -10.338  1.00  0.00     0.184 C
HETATM    8  C5  UNL     1       8.385 -25.834 -10.890  1.00  0.00     0.091 C
HETATM    9  N2  UNL     1       8.760 -26.855 -11.346  1.00  0.00    -0.195 NA
HETATM   10  C6  UNL     1       7.362 -23.827 -11.520  1.00  0.00     0.091 C
HETATM   11  N3  UNL     1       6.968 -23.243 -12.446  1.00  0.00    -0.195 NA
HETATM   12  C7  UNL     1       8.936 -23.802  -9.639  1.00  0.00     0.086 C
HETATM   13  C14 UNL     1       8.809 -23.694  -8.155  1.00  0.00     0.174 C
HETATM   14  C15 UNL     1       9.397 -22.427  -7.677  1.00  0.00     0.072 C
HETATM   15  N4  UNL     1       9.877 -21.431  -7.311  1.00  0.00    -0.196 NA
HETATM   16  C16 UNL     1       7.447 -23.727  -7.630  1.00  0.00     0.154 C
HETATM   17  O1  UNL     1       7.291 -23.345  -6.460  1.00  0.00    -0.296 OA
ENDROOT
BRANCH  12  18
HETATM   18  C8  UNL     1      10.332 -24.204  -9.967  1.00  0.00    -0.049 A
HETATM   19  C9  UNL     1      11.000 -23.689 -11.074  1.00  0.00     0.011 A
HETATM   20  C10 UNL     1      12.297 -24.050 -11.377  1.00  0.00     0.043 A
HETATM   21  C11 UNL     1      12.982 -24.946 -10.581  1.00  0.00     0.116 A
HETATM   22  F1  UNL     1      14.261 -25.290 -10.896  1.00  0.00    -0.206 F
HETATM   23  C12 UNL     1      12.351 -25.477  -9.474  1.00  0.00     0.043 A
HETATM   24  C13 UNL     1      11.053 -25.095  -9.197  1.00  0.00     0.011 A
ENDBRANCH  12  18
TORSDOF 1
ENDMDL