MODEL 1
REMARK VINA RESULT: -6.249948124      0.000      0.000
REMARK  3 active torsions:
REMARK  status: ('A' for Active; 'I' for Inactive)
REMARK    1  A    between atoms: S1_2  and  C2_3
REMARK       I    between atoms: N2_9  and  C5_10
REMARK    2  A    between atoms: C5_10  and  C6_12
REMARK    3  A    between atoms: C7_13  and  C8_14
ROOT
HETATM    1  C2  UNL     1      10.111 -21.840  -6.630  1.00  0.00     0.115 A
HETATM    2  N1  UNL     1      11.254 -22.106  -7.203  1.00  0.00    -0.329 N
ATOM      3  H1  UNL     1      12.075 -21.551  -6.960  1.00  0.00     0.168 HD
HETATM    4  C3  UNL     1      11.371 -23.063  -8.075  1.00  0.00     0.137 A
HETATM    5  C4  UNL     1      10.223 -23.782  -8.363  1.00  0.00     0.127 A
HETATM    6  S2  UNL     1       9.080 -23.018  -7.354  1.00  0.00    -0.043 SA
HETATM    7  N2  UNL     1      10.232 -24.855  -9.311  1.00  0.00    -0.292 N
HETATM    8  C5  UNL     1       9.021 -25.136  -9.945  1.00  0.00     0.304 C
HETATM    9  O1  UNL     1       9.007 -26.115 -10.782  1.00  0.00    -0.258 OA
HETATM   10  C9  UNL     1      11.457 -25.622  -9.607  1.00  0.00     0.108 C
HETATM   11  C10 UNL     1      11.606 -25.923 -11.060  1.00  0.00     0.034 C
HETATM   12  C11 UNL     1      12.667 -24.916  -9.062  1.00  0.00     0.146 C
HETATM   13  N3  UNL     1      12.525 -23.527  -8.812  1.00  0.00    -0.372 N
ATOM     14  H3  UNL     1      13.224 -22.865  -9.148  1.00  0.00     0.161 HD
ENDROOT
BRANCH   8  15
HETATM   15  C6  UNL     1       7.813 -24.410  -9.724  1.00  0.00    -0.004 C
HETATM   16  C7  UNL     1       6.764 -23.808  -9.549  1.00  0.00    -0.081 C
BRANCH  16  17
HETATM   17  C8  UNL     1       5.490 -23.108  -9.349  1.00  0.00     0.208 C
HETATM   18 CL1  UNL     1       4.405 -24.025  -8.289  1.00  0.00    -0.117 Cl
ENDBRANCH  16  17
ENDBRANCH   8  15
BRANCH   1  19
HETATM   19  S1  UNL     1       9.686 -20.582  -5.404  1.00  0.00    -0.109 SA
HETATM   20  C1  UNL     1      10.977 -19.327  -5.472  1.00  0.00     0.097 C
ENDBRANCH   1  19
TORSDOF 3
ENDMDL