MODEL 3
REMARK VINA RESULT: -4.705958688      1.965      5.719
REMARK  3 active torsions:
REMARK  status: ('A' for Active; 'I' for Inactive)
REMARK    1  A    between atoms: S1_2  and  C2_3
REMARK       I    between atoms: C2_3  and  N1_5
REMARK    2  A    between atoms: N1_5  and  C3_7
REMARK    3  A    between atoms: C4_12  and  S2_13
ROOT
HETATM    1  C3  UNL     1       1.291  11.582  -7.476  1.00  0.00     0.169 A
HETATM    2  N2  UNL     1       1.241  12.866  -7.113  1.00  0.00    -0.278 N
ATOM      3  H2  UNL     1       1.955  13.524  -7.427  1.00  0.00     0.189 HD
HETATM    4  N3  UNL     1       0.287  13.251  -6.368  1.00  0.00    -0.286 N
ATOM      5  H3  UNL     1       0.230  14.228  -6.080  1.00  0.00     0.188 HD
HETATM    6  C4  UNL     1      -0.635  12.390  -5.965  1.00  0.00     0.129 A
HETATM    7  S3  UNL     1      -0.092  10.941  -6.704  1.00  0.00    -0.026 SA
ENDROOT
BRANCH   1   8
HETATM    8  N1  UNL     1       2.192  10.999  -8.235  1.00  0.00    -0.297 N
HETATM    9  C2  UNL     1       1.846  10.906  -9.625  1.00  0.00     0.285 C
HETATM   10  O1  UNL     1       1.085  11.729 -10.161  1.00  0.00    -0.260 OA
ATOM     11  H1  UNL     1       3.071  10.639  -7.865  1.00  0.00     0.171 HD
BRANCH   9  12
HETATM   12  S1  UNL     1       2.570   9.551 -10.535  1.00  0.00    -0.073 SA
HETATM   13  C1  UNL     1       2.242   8.025  -9.624  1.00  0.00     0.100 C
ENDBRANCH   9  12
ENDBRANCH   1   8
BRANCH   6  14
HETATM   14  S2  UNL     1      -2.077  12.685  -4.914  1.00  0.00    -0.108 SA
HETATM   15  C5  UNL     1      -2.394  11.133  -4.030  1.00  0.00     0.097 C
ENDBRANCH   6  14
TORSDOF 3
ENDMDL