MODEL 2
REMARK VINA RESULT: -5.250390360      1.564      1.877
REMARK  3 active torsions:
REMARK  status: ('A' for Active; 'I' for Inactive)
REMARK    1  A    between atoms: C2_2  and  N1_3
REMARK    2  A    between atoms: C3_6  and  N3_7
REMARK       I    between atoms: N3_7  and  C4_9
REMARK    3  A    between atoms: C4_9  and  O2_11
ROOT
HETATM    1  N1  UNL     1      -1.374  10.863  -5.131  1.00  0.00    -0.274 N
HETATM    2  N2  UNL     1      -1.267   9.587  -5.047  1.00  0.00    -0.276 N
ATOM      3  H2  UNL     1      -1.828   9.062  -4.376  1.00  0.00     0.189 HD
HETATM    4  C3  UNL     1      -0.409   8.961  -5.851  1.00  0.00     0.170 A
HETATM    5  S1  UNL     1       0.257  10.249  -6.750  1.00  0.00    -0.021 SA
HETATM    6  C6  UNL     1      -0.623  11.515  -6.019  1.00  0.00     0.163 A
HETATM    7  S2  UNL     1      -0.551  13.124  -6.342  1.00  0.00    -0.051 SA
ENDROOT
BRANCH   4   8
HETATM    8  N3  UNL     1      -0.155   7.672  -5.920  1.00  0.00    -0.281 N
HETATM    9  C4  UNL     1       0.057   7.089  -7.201  1.00  0.00     0.366 C
HETATM   10  O1  UNL     1       1.176   6.683  -7.539  1.00  0.00    -0.238 OA
ATOM     11  H3  UNL     1      -0.110   7.104  -5.075  1.00  0.00     0.173 HD
BRANCH   9  12
HETATM   12  O2  UNL     1      -1.012   6.981  -8.067  1.00  0.00    -0.309 OA
HETATM   13  C5  UNL     1      -1.334   5.704  -8.604  1.00  0.00     0.215 C
ENDBRANCH   9  12
ENDBRANCH   4   8
BRANCH   1  14
HETATM   14  C2  UNL     1      -2.311  11.634  -4.262  1.00  0.00     0.146 C
HETATM   15  C1  UNL     1      -2.873  10.784  -3.172  1.00  0.00     0.028 C
ENDBRANCH   1  14
TORSDOF 3
ENDMDL