MODEL 1
REMARK VINA RESULT: -6.459369383      0.000      0.000
REMARK  2 active torsions:
REMARK  status: ('A' for Active; 'I' for Inactive)
REMARK    1  A    between atoms: C2_2  and  O1_3
REMARK    2  A    between atoms: O1_3  and  C3_4
REMARK       I    between atoms: C3_4  and  N1_6
ROOT
HETATM    1  C3  UNL     1       2.819  11.475  -9.208  1.00  0.00     0.376 C
HETATM    2  O2  UNL     1       3.269  10.554  -9.965  1.00  0.00    -0.237 OA
HETATM    3  N1  UNL     1       2.884  12.838  -9.585  1.00  0.00    -0.239 N
ATOM      4  H1  UNL     1       2.511  13.544  -8.950  1.00  0.00     0.183 HD
HETATM    5  C4  UNL     1       3.439  13.247 -10.794  1.00  0.00     0.186 C
HETATM    6  N2  UNL     1       3.894  13.569 -11.804  1.00  0.00    -0.172 NA
ENDROOT
BRANCH   1   7
HETATM    7  O1  UNL     1       2.273  11.037  -8.014  1.00  0.00    -0.263 OA
BRANCH   7   8
HETATM    8  C2  UNL     1       0.939  11.299  -7.650  1.00  0.00     0.204 C
HETATM    9  C1  UNL     1       0.017  11.267  -8.850  1.00  0.00     0.082 C
HETATM   10  C5  UNL     1       0.457  10.415  -6.532  1.00  0.00     0.074 C
HETATM   11  C6  UNL     1      -0.945  10.887  -6.155  1.00  0.00     0.047 C
HETATM   12  C7  UNL     1      -0.864  12.372  -5.944  1.00  0.00     0.097 A
HETATM   13  C8  UNL     1      -1.801  12.960  -4.976  1.00  0.00     0.044 A
HETATM   14  C9  UNL     1      -1.889  13.303  -6.417  1.00  0.00     0.044 A
HETATM   15  O3  UNL     1       0.494  12.714  -5.953  1.00  0.00    -0.227 OA
HETATM   16  O4  UNL     1       0.913  12.623  -7.172  1.00  0.00    -0.200 OA
ENDBRANCH   7   8
ENDBRANCH   1   7
TORSDOF 2
ENDMDL