MODEL 3
REMARK VINA RESULT: -5.588324040      3.398      4.638
REMARK  1 active torsions:
REMARK  status: ('A' for Active; 'I' for Inactive)
REMARK    1  A    between atoms: C4_4  and  N1_5
ROOT
HETATM    1  C1  UNL     1       1.827   6.817  -8.517  1.00  0.00     0.023 C
HETATM    2  C2  UNL     1       0.652   7.425  -9.232  1.00  0.00     0.022 C
HETATM    3  C3  UNL     1       0.594   6.828 -10.624  1.00  0.00     0.023 C
HETATM    4  C4  UNL     1      -0.595   7.170  -8.470  1.00  0.00     0.088 C
HETATM    5  C5  UNL     1      -0.781   7.877  -7.367  1.00  0.00     0.030 C
HETATM    6  C6  UNL     1       0.187   8.889  -6.876  1.00  0.00     0.164 C
HETATM    7  C7  UNL     1      -0.558   9.846  -6.042  1.00  0.00     0.073 C
HETATM    8  N2  UNL     1      -1.144  10.613  -5.398  1.00  0.00    -0.196 NA
HETATM    9  C8  UNL     1       0.722   9.610  -8.090  1.00  0.00     0.020 C
HETATM   10  N3  UNL     1       1.117  10.809  -7.995  1.00  0.00    -0.403 N
ATOM     11  H31 UNL     1       1.478  11.296  -8.816  1.00  0.00     0.155 HD
ATOM     12  H32 UNL     1       1.070  11.279  -7.091  1.00  0.00     0.155 HD
HETATM   13  C9  UNL     1       0.790   8.925  -9.408  1.00  0.00     0.153 C
HETATM   14  C10 UNL     1       2.124   9.168  -9.994  1.00  0.00     0.071 C
HETATM   15  N4  UNL     1       3.177   9.363 -10.439  1.00  0.00    -0.196 NA
ENDROOT
BRANCH   4  16
HETATM   16  N1  UNL     1      -1.558   6.208  -8.902  1.00  0.00    -0.119 N
HETATM   17  O1  UNL     1      -1.499   5.060  -8.423  1.00  0.00    -0.532 OA
HETATM   18  O2  UNL     1      -2.550   6.461  -9.813  1.00  0.00    -0.532 OA
ENDBRANCH   4  16
TORSDOF 1
ENDMDL