MODEL 1
REMARK VINA RESULT: -5.387050860      0.000      0.000
REMARK  2 active torsions:
REMARK  status: ('A' for Active; 'I' for Inactive)
REMARK    1  A    between atoms: C2_2  and  C3_3
REMARK    2  A    between atoms: C5_5  and  O1_6
ROOT
HETATM    1  C3  UNL     1       0.291  10.959  -8.057  1.00  0.00     0.021 A
HETATM    2  C4  UNL     1       0.155   9.635  -7.254  1.00  0.00     0.021 C
HETATM    3  C5  UNL     1       1.732  11.298  -8.145  1.00  0.00     0.169 A
HETATM    4  C6  UNL     1       1.754  10.916  -9.600  1.00  0.00     0.198 A
HETATM    5  C7  UNL     1       2.084  12.007 -10.528  1.00  0.00     0.090 C
HETATM    6  N1  UNL     1       2.349  12.866 -11.261  1.00  0.00    -0.195 NA
HETATM    7  C8  UNL     1       2.484   9.716  -9.924  1.00  0.00     0.090 C
HETATM    8  N2  UNL     1       3.073   8.764 -10.176  1.00  0.00    -0.195 NA
HETATM    9  C9  UNL     1       0.261  10.612  -9.497  1.00  0.00     0.183 A
HETATM   10  C10 UNL     1      -0.040   9.187  -9.789  1.00  0.00     0.088 C
HETATM   11  N3  UNL     1      -0.279   8.074  -9.997  1.00  0.00    -0.195 NA
HETATM   12  C11 UNL     1      -0.456  11.431 -10.431  1.00  0.00     0.088 C
HETATM   13  N4  UNL     1      -1.033  12.075 -11.207  1.00  0.00    -0.195 NA
ENDROOT
BRANCH   3  14
HETATM   14  O1  UNL     1       2.095  12.621  -7.978  1.00  0.00    -0.392 OA
ATOM     15  H1  UNL     1       2.744  12.981  -8.572  1.00  0.00     0.210 HD
ENDBRANCH   3  14
BRANCH   1  16
HETATM   16  C2  UNL     1      -0.687  11.902  -7.529  1.00  0.00     0.010 C
HETATM   17  C1  UNL     1      -1.257  11.749  -6.182  1.00  0.00     0.006 C
ENDBRANCH   1  16
TORSDOF 2
ENDMDL