MODEL 5
REMARK VINA RESULT: -5.473090083      3.719      4.676
REMARK  2 active torsions:
REMARK  status: ('A' for Active; 'I' for Inactive)
REMARK    1  A    between atoms: O1_1  and  C1_3
REMARK    2  A    between atoms: C8_10  and  N1_11
ROOT
HETATM    1  C1  UNL     1       2.479   9.383  -9.242  1.00  0.00     0.126 C
HETATM    2  C2  UNL     1       2.355   8.444 -10.407  1.00  0.00     0.017 C
HETATM    3  C3  UNL     1       1.740   9.102 -11.627  1.00  0.00     0.012 C
HETATM    4  C4  UNL     1       0.380   9.634 -11.259  1.00  0.00    -0.011 C
HETATM    5  C5  UNL     1       0.584  10.631 -10.122  1.00  0.00     0.012 C
HETATM    6  C6  UNL     1       1.096   9.933  -8.894  1.00  0.00     0.017 C
HETATM    7  C7  UNL     1       0.236   8.775  -8.468  1.00  0.00     0.042 C
HETATM    8  C8  UNL     1       0.109   7.813  -9.635  1.00  0.00     0.073 C
HETATM    9  C10 UNL     1      -0.557   8.579 -10.764  1.00  0.00     0.039 C
HETATM   10  C11 UNL     1       1.476   7.284 -10.053  1.00  0.00     0.042 C
ENDROOT
BRANCH   8  11
HETATM   11  N1  UNL     1      -0.706   6.698  -9.199  1.00  0.00    -0.209 N
HETATM   12  N2  UNL     1      -1.985   6.572  -9.543  1.00  0.00    -0.277 N
HETATM   13  C9  UNL     1      -2.485   5.437  -8.990  1.00  0.00     0.217 A
ATOM     14  H2  UNL     1      -2.506   7.224 -10.129  1.00  0.00     0.189 HD
HETATM   15  N3  UNL     1      -1.494   4.884  -8.310  1.00  0.00    -0.279 N
HETATM   16  N4  UNL     1      -0.415   5.666  -8.448  1.00  0.00    -0.224 N
ATOM     17  H3  UNL     1      -1.543   4.016  -7.776  1.00  0.00     0.189 HD
ATOM     18  H4  UNL     1       0.497   5.484  -8.029  1.00  0.00     0.210 HD
ENDBRANCH   8  11
BRANCH   1  19
HETATM   19  O1  UNL     1       3.263  10.467  -9.585  1.00  0.00    -0.395 OA
ATOM     20  H1  UNL     1       2.946  11.251  -9.152  1.00  0.00     0.210 HD
ENDBRANCH   1  19
TORSDOF 2
ENDMDL