MODEL 1
REMARK VINA RESULT: -6.452506230      0.000      0.000
REMARK  2 active torsions:
REMARK  status: ('A' for Active; 'I' for Inactive)
REMARK    1  A    between atoms: C2_2  and  C3_4
REMARK    2  A    between atoms: C4_8  and  C5_9
ROOT
HETATM    1  C3  UNL     1      -1.021  11.580  -6.013  1.00  0.00     0.158 A
HETATM    2  N1  UNL     1      -0.484  12.510  -6.819  1.00  0.00    -0.308 N
ATOM      3  H1  UNL     1      -0.591  13.524  -6.779  1.00  0.00     0.176 HD
HETATM    4  S1  UNL     1       0.409  11.593  -7.906  1.00  0.00     0.001 SA
HETATM    5  C4  UNL     1       0.058  10.050  -7.286  1.00  0.00     0.073 A
HETATM    6  N3  UNL     1      -0.731  10.334  -6.270  1.00  0.00    -0.335 N
ATOM      7  H3  UNL     1      -1.112   9.586  -5.690  1.00  0.00     0.168 HD
ENDROOT
BRANCH   5   8
HETATM    8  C5  UNL     1       0.506   8.681  -7.741  1.00  0.00     0.048 C
HETATM    9  C6  UNL     1      -0.099   7.634  -6.825  1.00  0.00     0.044 C
HETATM   10  C7  UNL     1      -0.123   6.304  -7.504  1.00  0.00     0.189 C
HETATM   11  C8  UNL     1      -1.121   6.319  -8.670  1.00  0.00     0.066 C
HETATM   12  N2  UNL     1       0.921   6.187  -8.503  1.00  0.00    -0.067 N
HETATM   13  C9  UNL     1       0.071   6.928  -9.407  1.00  0.00     0.189 C
HETATM   14  C10 UNL     1       0.046   8.398  -9.139  1.00  0.00     0.044 C
ATOM     15  H22 UNL     1       1.872   6.498  -8.306  1.00  0.00     0.278 HD
ATOM     16  H21 UNL     1       1.295   5.275  -8.766  1.00  0.00     0.278 HD
ENDBRANCH   5   8
BRANCH   1  17
HETATM   17  C2  UNL     1      -1.903  12.010  -4.889  1.00  0.00     0.189 C
HETATM   18  C1  UNL     1      -2.439  10.963  -4.010  1.00  0.00     0.100 C
HETATM   19  O1  UNL     1      -2.169  13.227  -4.714  1.00  0.00    -0.290 OA
ENDBRANCH   1  17
TORSDOF 2
ENDMDL