MODEL 2
REMARK VINA RESULT: -6.402170042      2.042      2.615
REMARK  1 active torsions:
REMARK  status: ('A' for Active; 'I' for Inactive)
REMARK    1  A    between atoms: C5_11  and  N4_12
ROOT
HETATM    1  N1  UNL     1      15.662 -10.936  -5.404  1.00  0.00    -0.191 NA
HETATM    2  C1  UNL     1      14.610 -10.449  -5.436  1.00  0.00     0.106 C
HETATM    3  C2  UNL     1      13.301  -9.835  -5.448  1.00  0.00     0.127 A
HETATM    4  C3  UNL     1      12.414  -9.996  -4.406  1.00  0.00     0.129 A
HETATM    5 CL1  UNL     1      12.924 -10.983  -3.055  1.00  0.00    -0.063 Cl
HETATM    6  N2  UNL     1      11.193  -9.443  -4.373  1.00  0.00    -0.342 N
ATOM      7  H2  UNL     1      10.576  -9.597  -3.575  1.00  0.00     0.167 HD
HETATM    8  C4  UNL     1      10.794  -8.685  -5.405  1.00  0.00     0.183 A
HETATM    9  N3  UNL     1      11.643  -8.518  -6.427  1.00  0.00    -0.337 N
ATOM     10  H3  UNL     1      11.328  -7.940  -7.207  1.00  0.00     0.168 HD
HETATM   11  C5  UNL     1      12.877  -9.047  -6.514  1.00  0.00     0.128 A
ENDROOT
BRANCH  11  12
HETATM   12  N4  UNL     1      13.725  -8.833  -7.628  1.00  0.00    -0.366 N
HETATM   13  C6  UNL     1      13.385  -9.098  -9.005  1.00  0.00     0.127 C
HETATM   14  C7  UNL     1      14.687  -9.607  -9.644  1.00  0.00     0.059 C
HETATM   15  C8  UNL     1      15.545  -8.390  -9.853  1.00  0.00     0.129 C
HETATM   16  C9  UNL     1      17.010  -8.717  -9.974  1.00  0.00     0.039 C
HETATM   17  N5  UNL     1      15.030  -7.693 -11.004  1.00  0.00    -0.066 N
HETATM   18  C13 UNL     1      15.386  -7.488  -8.648  1.00  0.00     0.059 C
HETATM   19  C10 UNL     1      17.477  -8.473 -11.398  1.00  0.00     0.004 C
HETATM   20  C11 UNL     1      16.497  -9.186 -12.304  1.00  0.00     0.027 C
HETATM   21  C12 UNL     1      15.193  -8.418 -12.234  1.00  0.00     0.233 C
ATOM     22  H52 UNL     1      14.053  -7.436 -10.863  1.00  0.00     0.278 HD
ATOM     23  H51 UNL     1      15.442  -6.763 -11.077  1.00  0.00     0.278 HD
HETATM   24  C14 UNL     1      15.052  -8.303  -7.414  1.00  0.00     0.127 C
ENDBRANCH  11  12
TORSDOF 1
ENDMDL