MODEL 4
REMARK VINA RESULT: -5.971355757      4.778      7.139
REMARK  2 active torsions:
REMARK  status: ('A' for Active; 'I' for Inactive)
REMARK    1  A    between atoms: C2_2  and  N1_3
REMARK    2  A    between atoms: C5_11  and  C6_12
ROOT
HETATM    1  C1  UNL     1      15.467  -7.907 -13.116  1.00  0.00     0.039 C
HETATM    2  C2  UNL     1      14.247  -8.676 -12.697  1.00  0.00     0.046 C
HETATM    3  C9  UNL     1      14.342 -10.092 -13.260  1.00  0.00     0.034 C
HETATM    4  C10 UNL     1      12.881 -10.497 -13.356  1.00  0.00     0.042 C
HETATM    5  C11 UNL     1      12.133  -9.245 -13.717  1.00  0.00     0.140 C
HETATM    6  C12 UNL     1      10.873  -9.113 -12.984  1.00  0.00     0.084 C
HETATM    7  N5  UNL     1       9.882  -8.996 -12.387  1.00  0.00    -0.195 NA
HETATM    8  C13 UNL     1      11.756  -9.265 -15.153  1.00  0.00     0.084 C
HETATM    9  N6  UNL     1      11.476  -9.280 -16.271  1.00  0.00    -0.195 NA
HETATM   10  C14 UNL     1      13.059  -8.068 -13.474  1.00  0.00     0.071 C
ENDROOT
BRANCH   2  11
HETATM   11  N1  UNL     1      13.904  -8.642 -11.338  1.00  0.00    -0.217 N
HETATM   12  C3  UNL     1      14.457  -8.942 -10.268  1.00  0.00     0.680 A
HETATM   13  N2  UNL     1      15.692  -9.438 -10.134  1.00  0.00    -0.188 N
HETATM   14  N4  UNL     1      13.738  -8.795  -9.118  1.00  0.00    -0.179 N
HETATM   15  C4  UNL     1      16.201  -9.777  -8.925  1.00  0.00     0.199 A
ATOM     16  H2  UNL     1      16.269  -9.565 -10.967  1.00  0.00     0.185 HD
HETATM   17  N3  UNL     1      15.477  -9.625  -7.812  1.00  0.00    -0.340 N
HETATM   18  C5  UNL     1      14.210  -9.120  -7.904  1.00  0.00     0.121 A
ATOM     19  H3  UNL     1      15.865  -9.882  -6.905  1.00  0.00     0.168 HD
ATOM     20  H4  UNL     1      12.792  -8.418  -9.184  1.00  0.00     0.185 HD
ATOM     21  H1  UNL     1      12.961  -8.281 -11.191  1.00  0.00     0.178 HD
BRANCH  18  22
HETATM   22  C6  UNL     1      13.423  -8.983  -6.664  1.00  0.00     0.088 C
HETATM   23  C7  UNL     1      13.343  -7.568  -6.161  1.00  0.00     0.041 C
HETATM   24  C8  UNL     1      12.021  -9.548  -6.801  1.00  0.00     0.041 C
HETATM   25 CL1  UNL     1      14.194  -9.957  -5.362  1.00  0.00    -0.112 Cl
ENDBRANCH  18  22
ENDBRANCH   2  11
TORSDOF 2
ENDMDL