MODEL 1
REMARK VINA RESULT: -5.992813037      0.000      0.000
REMARK  4 active torsions:
REMARK  status: ('A' for Active; 'I' for Inactive)
REMARK    1  A    between atoms: C2_4  and  N2_6
REMARK    2  A    between atoms: N2_6  and  C3_8
REMARK    3  A    between atoms: C3_8  and  N3_10
REMARK    4  A    between atoms: N4_13  and  C6_14
ROOT
HETATM    1  N3  UNL     1      16.506  -9.536  -8.221  1.00  0.00    -0.355 N
HETATM    2  C4  UNL     1      15.741  -8.401  -8.620  1.00  0.00     0.145 C
HETATM    3  C5  UNL     1      14.317  -8.406  -8.124  1.00  0.00     0.145 C
HETATM    4  N4  UNL     1      14.169  -8.995  -6.834  1.00  0.00    -0.358 N
HETATM    5  C9  UNL     1      15.183  -9.734  -6.143  1.00  0.00     0.145 C
HETATM    6  C10 UNL     1      16.206 -10.341  -7.039  1.00  0.00     0.145 C
ENDROOT
BRANCH   1   7
HETATM    7  C3  UNL     1      17.625  -9.931  -8.991  1.00  0.00     0.176 C
HETATM    8  S1  UNL     1      17.732 -11.483  -9.477  1.00  0.00    -0.041 SA
BRANCH   7   9
HETATM    9  N2  UNL     1      18.664  -9.024  -9.359  1.00  0.00    -0.310 N
ATOM     10  H2  UNL     1      19.169  -8.529  -8.626  1.00  0.00     0.170 HD
BRANCH   9  11
HETATM   11  C2  UNL     1      19.011  -8.794 -10.698  1.00  0.00     0.176 C
HETATM   12  N1  UNL     1      20.243  -8.631 -11.101  1.00  0.00    -0.371 N
HETATM   13  C1  UNL     1      21.287  -8.700 -10.077  1.00  0.00     0.148 C
ATOM     14  H1  UNL     1      20.467  -8.464 -12.082  1.00  0.00     0.161 HD
HETATM   15 CL1  UNL     1      17.793  -8.700 -11.979  1.00  0.00    -0.045 Cl
ENDBRANCH   9  11
ENDBRANCH   7   9
ENDBRANCH   1   7
BRANCH   4  16
HETATM   16  C6  UNL     1      12.898  -8.835  -6.168  1.00  0.00     0.146 A
HETATM   17  N5  UNL     1      12.034  -7.836  -6.260  1.00  0.00    -0.346 N
HETATM   18  C7  UNL     1      10.934  -7.869  -5.579  1.00  0.00     0.097 A
ATOM     19  H5  UNL     1      12.235  -7.041  -6.866  1.00  0.00     0.167 HD
HETATM   20  C8  UNL     1      10.714  -8.963  -4.777  1.00  0.00     0.070 A
HETATM   21  S2  UNL     1      12.126  -9.883  -5.061  1.00  0.00    -0.065 SA
ENDBRANCH   4  16
TORSDOF 4
ENDMDL