MODEL 2
REMARK VINA RESULT: -6.724879260      0.788      1.381
REMARK  5 active torsions:
REMARK  status: ('A' for Active; 'I' for Inactive)
REMARK       I    between atoms: C2_2  and  N1_4
REMARK    1  A    between atoms: N1_4  and  C3_6
REMARK    2  A    between atoms: C4_9  and  C5_10
REMARK    3  A    between atoms: C5_10  and  O2_13
REMARK    4  A    between atoms: O2_13  and  C7_14
REMARK    5  A    between atoms: C7_14  and  C8_16
ROOT
HETATM    1  C3  UNL     1      12.470  -9.731  -5.436  1.00  0.00     0.231 A
HETATM    2  N2  UNL     1      13.473  -9.821  -6.322  1.00  0.00    -0.320 N
ATOM      3  H2  UNL     1      14.094 -10.625  -6.418  1.00  0.00     0.169 HD
HETATM    4  C4  UNL     1      13.545  -8.686  -7.076  1.00  0.00     0.085 A
HETATM    5  C12 UNL     1      12.490  -7.909  -6.552  1.00  0.00     0.175 A
HETATM    6  O4  UNL     1      11.890  -8.549  -5.604  1.00  0.00    -0.289 OA
ENDROOT
BRANCH   4   7
HETATM    7  C5  UNL     1      14.375  -8.285  -8.199  1.00  0.00     0.187 C
HETATM    8  C6  UNL     1      14.197  -6.724  -8.391  1.00  0.00     0.072 C
HETATM    9 CL1  UNL     1      13.568  -8.928  -9.718  1.00  0.00    -0.081 Cl
BRANCH   7  10
HETATM   10  O2  UNL     1      15.690  -8.563  -8.358  1.00  0.00    -0.287 OA
BRANCH  10  11
HETATM   11  C7  UNL     1      16.456  -9.691  -8.212  1.00  0.00     0.268 C
HETATM   12  O3  UNL     1      16.478 -10.180  -7.055  1.00  0.00    -0.264 OA
BRANCH  11  13
HETATM   13  C8  UNL     1      17.232 -10.284  -9.338  1.00  0.00     0.037 C
HETATM   14  C9  UNL     1      17.735 -11.631  -8.747  1.00  0.00     0.025 C
HETATM   15  C10 UNL     1      18.523  -9.495  -9.546  1.00  0.00     0.025 C
HETATM   16  C11 UNL     1      16.482 -10.590 -10.556  1.00  0.00     0.025 C
ENDBRANCH  11  13
ENDBRANCH  10  11
ENDBRANCH   7  10
ENDBRANCH   4   7
BRANCH   1  17
HETATM   17  N1  UNL     1      12.010 -10.515  -4.537  1.00  0.00    -0.293 N
HETATM   18  C2  UNL     1      12.734 -10.888  -3.425  1.00  0.00     0.220 C
HETATM   19  C1  UNL     1      13.687 -12.009  -3.443  1.00  0.00     0.117 C
HETATM   20  O1  UNL     1      12.603 -10.259  -2.316  1.00  0.00    -0.274 OA
ATOM     21  H1  UNL     1      11.064 -10.881  -4.647  1.00  0.00     0.172 HD
ENDBRANCH   1  17
TORSDOF 5
ENDMDL