MODEL 3
REMARK VINA RESULT: -6.628974205      1.257      1.278
REMARK  3 active torsions:
REMARK  status: ('A' for Active; 'I' for Inactive)
REMARK    1  A    between atoms: C5_6  and  O2_7
REMARK    2  A    between atoms: C8_11  and  C9_12
REMARK    3  A    between atoms: C10_17  and  C11_18
ROOT
HETATM    1  O1  UNL     1      15.327  -6.630  -8.427  1.00  0.00    -0.297 OA
HETATM    2  C1  UNL     1      14.743  -7.088  -9.404  1.00  0.00     0.143 C
HETATM    3  C2  UNL     1      14.179  -6.131 -10.356  1.00  0.00     0.080 C
HETATM    4  C3  UNL     1      14.726  -6.132 -11.710  1.00  0.00     0.015 C
HETATM    5  C4  UNL     1      14.773  -7.341 -12.518  1.00  0.00     0.020 C
HETATM    6  C5  UNL     1      13.575  -8.202 -12.581  1.00  0.00     0.127 C
HETATM    7  C6  UNL     1      14.327  -9.230 -11.727  1.00  0.00     0.021 C
HETATM    8  C7  UNL     1      13.872  -9.218 -10.331  1.00  0.00     0.033 C
HETATM    9  C8  UNL     1      14.774  -8.569  -9.348  1.00  0.00     0.087 C
HETATM   10  C12 UNL     1      16.188  -8.987  -9.657  1.00  0.00     0.026 C
HETATM   11  C13 UNL     1      16.536  -8.263 -10.966  1.00  0.00     0.007 C
HETATM   12  C14 UNL     1      15.580  -8.485 -12.049  1.00  0.00    -0.001 C
ENDROOT
BRANCH   9  13
HETATM   13  C9  UNL     1      14.351  -8.969  -7.960  1.00  0.00     0.156 A
HETATM   14  N1  UNL     1      13.233  -8.588  -7.317  1.00  0.00    -0.280 N
HETATM   15  N2  UNL     1      13.217  -9.147  -6.119  1.00  0.00    -0.281 N
ATOM     16  H1  UNL     1      12.516  -7.969  -7.693  1.00  0.00     0.189 HD
HETATM   17  C10 UNL     1      14.335  -9.886  -6.012  1.00  0.00     0.154 A
ATOM     18  H2  UNL     1      12.492  -9.037  -5.410  1.00  0.00     0.189 HD
HETATM   19  O3  UNL     1      14.990  -9.755  -7.134  1.00  0.00    -0.280 OA
BRANCH  17  20
HETATM   20  C11 UNL     1      14.743 -10.708  -4.810  1.00  0.00     0.200 C
HETATM   21 CL1  UNL     1      13.345 -11.007  -3.788  1.00  0.00    -0.122 Cl
ENDBRANCH  17  20
ENDBRANCH   9  13
BRANCH   6  22
HETATM   22  O2  UNL     1      12.395  -7.765 -12.060  1.00  0.00    -0.395 OA
ATOM     23  H2  UNL     1      11.868  -8.347 -11.526  1.00  0.00     0.210 HD
ENDBRANCH   6  22
TORSDOF 3
ENDMDL