MODEL 1
REMARK VINA RESULT: -6.308116436      0.000      0.000
REMARK  2 active torsions:
REMARK  status: ('A' for Active; 'I' for Inactive)
REMARK    1  A    between atoms: C2_2  and  C3_3
REMARK    2  A    between atoms: C3_3  and  C4_5
ROOT
HETATM    1  C4  UNL     1      13.546  -7.959  -7.258  1.00  0.00     0.157 C
HETATM    2  C5  UNL     1      14.920  -8.456  -7.122  1.00  0.00     0.159 C
HETATM    3  O2  UNL     1      15.413  -8.909  -6.116  1.00  0.00    -0.295 OA
HETATM    4  C6  UNL     1      15.613  -8.314  -8.430  1.00  0.00     0.163 C
HETATM    5 CL1  UNL     1      15.937  -9.937  -9.029  1.00  0.00    -0.116 Cl
HETATM    6  C7  UNL     1      14.661  -7.522  -9.249  1.00  0.00     0.012 C
HETATM    7  C8  UNL     1      14.843  -6.054  -8.840  1.00  0.00     0.020 C
HETATM    8  C9  UNL     1      14.860  -7.591 -10.718  1.00  0.00     0.019 C
HETATM    9  C10 UNL     1      14.627  -6.219 -11.348  1.00  0.00     0.012 C
HETATM   10  C11 UNL     1      14.087  -8.611 -11.464  1.00  0.00     0.171 C
HETATM   11  C12 UNL     1      14.954  -9.554 -12.207  1.00  0.00     0.072 C
HETATM   12  N1  UNL     1      15.630 -10.291 -12.810  1.00  0.00    -0.196 NA
HETATM   13  C13 UNL     1      13.072  -9.327 -10.658  1.00  0.00     0.130 C
HETATM   14  N2  UNL     1      12.286 -10.139 -11.301  1.00  0.00    -0.382 N
ATOM     15  H21 UNL     1      11.586 -10.632 -10.745  1.00  0.00     0.158 HD
ATOM     16  H22 UNL     1      12.369 -10.269 -12.309  1.00  0.00     0.158 HD
HETATM   17  O3  UNL     1      12.960  -9.152  -9.299  1.00  0.00    -0.331 OA
HETATM   18  C14 UNL     1      13.299  -7.911  -8.764  1.00  0.00     0.159 C
ENDROOT
BRANCH   1  19
HETATM   19  C3  UNL     1      12.513  -8.690  -6.533  1.00  0.00     0.140 C
HETATM   20  O1  UNL     1      12.549  -9.908  -6.430  1.00  0.00    -0.297 OA
BRANCH  19  21
HETATM   21  C2  UNL     1      11.378  -7.964  -5.903  1.00  0.00     0.074 C
HETATM   22  C1  UNL     1      10.655  -8.886  -4.899  1.00  0.00     0.013 C
ENDBRANCH  19  21
ENDBRANCH   1  19
TORSDOF 2
ENDMDL