MODEL 3
REMARK VINA RESULT: -6.501367343      1.395      1.699
REMARK  2 active torsions:
REMARK  status: ('A' for Active; 'I' for Inactive)
REMARK    1  A    between atoms: C2_2  and  C4_4
REMARK    2  A    between atoms: C8_9  and  N1_10
ROOT
HETATM    1  C4  UNL     1      17.111 -10.582 -10.424  1.00  0.00     0.128 C
HETATM    2  C5  UNL     1      16.465 -10.033 -11.675  1.00  0.00     0.035 C
HETATM    3  C6  UNL     1      15.901  -8.690 -11.350  1.00  0.00     0.040 C
HETATM    4  C7  UNL     1      15.042  -8.722 -10.087  1.00  0.00     0.191 C
HETATM    5  O1  UNL     1      14.700  -7.411  -9.848  1.00  0.00    -0.312 OA
HETATM    6  C8  UNL     1      14.142  -6.541  -8.940  1.00  0.00     0.230 C
HETATM    7  N2  UNL     1      13.828  -6.726  -7.727  1.00  0.00    -0.353 N
ATOM      8  H2  UNL     1      13.433  -5.875  -7.326  1.00  0.00     0.163 HD
HETATM    9  C9  UNL     1      13.863  -7.767  -6.758  1.00  0.00     0.159 C
HETATM   10  C10 UNL     1      14.200  -9.117  -7.278  1.00  0.00     0.244 C
HETATM   11  C11 UNL     1      14.091 -10.091  -6.122  1.00  0.00     0.039 C
HETATM   12  C12 UNL     1      15.524 -10.046  -5.576  1.00  0.00     0.033 C
HETATM   13  C13 UNL     1      16.279 -10.101  -6.906  1.00  0.00     0.276 C
HETATM   14  N3  UNL     1      15.574  -9.111  -7.703  1.00  0.00     0.126 N
HETATM   15  C14 UNL     1      15.690  -9.523  -9.068  1.00  0.00     0.389 C
HETATM   16  O2  UNL     1      17.060  -9.672  -9.388  1.00  0.00    -0.349 OA
ENDROOT
BRANCH   1  17
HETATM   17  C2  UNL     1      18.516 -10.996 -10.788  1.00  0.00     0.006 C
HETATM   18  C1  UNL     1      18.600 -10.943 -12.303  1.00  0.00     0.012 C
HETATM   19  C3  UNL     1      19.567 -10.091 -10.239  1.00  0.00     0.012 C
ENDBRANCH   1  17
BRANCH   6  20
HETATM   20  N1  UNL     1      13.879  -5.236  -9.439  1.00  0.00    -0.264 N
HETATM   21 CL1  UNL     1      13.586  -4.983 -11.138  1.00  0.00     0.014 Cl
ATOM     22  H1  UNL     1      13.861  -4.442  -8.799  1.00  0.00     0.184 HD
ENDBRANCH   6  20
TORSDOF 2
ENDMDL