MODEL 4
REMARK VINA RESULT: -6.593458525      1.087      1.184
REMARK  2 active torsions:
REMARK  status: ('A' for Active; 'I' for Inactive)
REMARK    1  A    between atoms: C3_6  and  N3_7
REMARK       I    between atoms: N3_7  and  C4_9
REMARK    2  A    between atoms: C4_9  and  C5_11
ROOT
HETATM    1  N1  UNL     1      10.814  -9.174  -5.974  1.00  0.00    -0.190 NA
HETATM    2  C1  UNL     1      11.962  -9.402  -6.037  1.00  0.00     0.120 C
HETATM    3  C2  UNL     1      13.407  -9.702  -6.094  1.00  0.00     0.143 A
HETATM    4  N2  UNL     1      14.168  -9.340  -7.094  1.00  0.00    -0.326 N
ATOM      5  H2  UNL     1      13.777  -8.828  -7.885  1.00  0.00     0.169 HD
HETATM    6  C3  UNL     1      15.462  -9.653  -7.061  1.00  0.00     0.153 A
HETATM    7  S2  UNL     1      15.623 -10.481  -5.585  1.00  0.00    -0.040 SA
HETATM    8  C9  UNL     1      14.001 -10.389  -5.063  1.00  0.00     0.126 A
HETATM    9  C10 UNL     1      13.385 -10.901  -3.843  1.00  0.00     0.110 C
HETATM   10  N4  UNL     1      12.917 -11.316  -2.874  1.00  0.00    -0.191 NA
ENDROOT
BRANCH   6  11
HETATM   11  N3  UNL     1      16.403  -9.404  -7.929  1.00  0.00    -0.302 N
HETATM   12  C4  UNL     1      16.188  -8.582  -9.043  1.00  0.00     0.264 C
HETATM   13  O1  UNL     1      15.700  -7.442  -8.982  1.00  0.00    -0.267 OA
ATOM     14  H3  UNL     1      17.325  -9.820  -7.793  1.00  0.00     0.171 HD
BRANCH  12  15
HETATM   15  C5  UNL     1      16.572  -9.124 -10.367  1.00  0.00     0.074 A
HETATM   16  C6  UNL     1      16.095  -8.765 -11.599  1.00  0.00     0.027 A
HETATM   17  C7  UNL     1      16.601  -9.405 -12.661  1.00  0.00     0.033 A
HETATM   18  C8  UNL     1      17.551 -10.360 -12.431  1.00  0.00     0.075 A
HETATM   19 CL1  UNL     1      18.392 -11.360 -13.629  1.00  0.00    -0.076 Cl
HETATM   20  S1  UNL     1      17.709 -10.338 -10.732  1.00  0.00    -0.072 SA
ENDBRANCH  12  15
ENDBRANCH   6  11
TORSDOF 2
ENDMDL