MODEL 4
REMARK VINA RESULT: -6.087544587      2.831      5.014
REMARK  5 active torsions:
REMARK  status: ('A' for Active; 'I' for Inactive)
REMARK    1  A    between atoms: C1_2  and  N1_3
REMARK    2  A    between atoms: C1_2  and  S2_12
REMARK    3  A    between atoms: N1_3  and  C2_5
REMARK    4  A    between atoms: S2_12  and  C4_13
REMARK    5  A    between atoms: C8_17  and  C9_18
ROOT
HETATM    1  C9  UNL     1      12.933  -9.225  -6.449  1.00  0.00    -0.032 C
HETATM    2  C10 UNL     1      11.862  -9.035  -5.932  1.00  0.00     0.011 C
HETATM    3 CL1  UNL     1      10.312  -8.778  -5.182  1.00  0.00    -0.023 Cl
ENDROOT
BRANCH   1   4
HETATM    4  C8  UNL     1      14.231  -9.452  -7.050  1.00  0.00     0.088 A
HETATM    5  C7  UNL     1      15.227 -10.123  -6.371  1.00  0.00     0.039 A
HETATM    6  C6  UNL     1      16.462 -10.346  -6.925  1.00  0.00     0.006 A
HETATM    7  C5  UNL     1      16.742  -9.888  -8.216  1.00  0.00     0.037 A
HETATM    8  C4  UNL     1      15.748  -9.225  -8.880  1.00  0.00     0.077 A
HETATM    9  N4  UNL     1      14.526  -9.029  -8.272  1.00  0.00    -0.344 N
ATOM     10  H4  UNL     1      13.806  -8.529  -8.793  1.00  0.00     0.167 HD
BRANCH   8  11
HETATM   11  S2  UNL     1      15.904  -8.572 -10.508  1.00  0.00    -0.042 SA
BRANCH  11  12
HETATM   12  C1  UNL     1      14.568  -7.702 -11.158  1.00  0.00     0.160 C
HETATM   13  S1  UNL     1      14.172  -6.207 -10.532  1.00  0.00    -0.052 SA
BRANCH  12  14
HETATM   14  N1  UNL     1      13.747  -8.135 -12.199  1.00  0.00    -0.173 N
ATOM     15  H1  UNL     1      14.034  -7.907 -13.151  1.00  0.00     0.185 HD
BRANCH  14  16
HETATM   16  C2  UNL     1      12.654  -8.802 -12.051  1.00  0.00     0.705 A
HETATM   17  N2  UNL     1      11.579  -8.654 -12.821  1.00  0.00    -0.178 N
HETATM   18  C3  UNL     1      10.638  -9.521 -12.361  1.00  0.00     0.276 A
ATOM     19  H2  UNL     1      11.479  -8.011 -13.608  1.00  0.00     0.185 HD
HETATM   20  O1  UNL     1      11.172 -10.143 -11.353  1.00  0.00    -0.218 OA
HETATM   21  N3  UNL     1      12.394  -9.732 -11.139  1.00  0.00    -0.090 N
ATOM     22  H3  UNL     1      13.027 -10.061 -10.410  1.00  0.00     0.213 HD
ENDBRANCH  14  16
ENDBRANCH  12  14
ENDBRANCH  11  12
ENDBRANCH   8  11
ENDBRANCH   1   4
TORSDOF 5
ENDMDL