MODEL 1
REMARK VINA RESULT: -6.733828831      0.000      0.000
REMARK  2 active torsions:
REMARK  status: ('A' for Active; 'I' for Inactive)
REMARK    1  A    between atoms: C3_6  and  N3_7
REMARK    2  A    between atoms: N3_7  and  C4_9
ROOT
HETATM    1  N1  UNL     1      10.283  -9.409  -5.590  1.00  0.00    -0.190 NA
HETATM    2  C1  UNL     1      11.444  -9.494  -5.764  1.00  0.00     0.120 C
HETATM    3  C2  UNL     1      12.893  -9.602  -5.996  1.00  0.00     0.144 A
HETATM    4  N2  UNL     1      13.495  -9.068  -7.018  1.00  0.00    -0.326 N
ATOM      5  H2  UNL     1      12.969  -8.539  -7.713  1.00  0.00     0.169 HD
HETATM    6  C3  UNL     1      14.815  -9.223  -7.139  1.00  0.00     0.151 A
HETATM    7  S2  UNL     1      15.223 -10.151  -5.772  1.00  0.00    -0.039 SA
HETATM    8  C10 UNL     1      13.659 -10.299  -5.097  1.00  0.00     0.115 A
HETATM    9 CL1  UNL     1      13.154 -11.139  -3.618  1.00  0.00    -0.073 Cl
ENDROOT
BRANCH   6  10
HETATM   10  N3  UNL     1      15.608  -8.770  -8.083  1.00  0.00    -0.345 N
ATOM     11  H3  UNL     1      16.502  -9.215  -8.295  1.00  0.00     0.167 HD
BRANCH  10  12
HETATM   12  C4  UNL     1      15.149  -7.616  -8.799  1.00  0.00     0.112 C
HETATM   13  C5  UNL     1      14.735  -7.656 -10.032  1.00  0.00     0.061 C
HETATM   14  S1  UNL     1      14.719  -9.186 -10.922  1.00  0.00    -0.125 SA
HETATM   15  C9  UNL     1      14.285  -6.470 -10.705  1.00  0.00     0.167 C
HETATM   16  C6  UNL     1      13.550  -8.915 -12.286  1.00  0.00     0.080 C
HETATM   17  C7  UNL     1      13.674  -7.560 -12.870  1.00  0.00     0.018 C
HETATM   18  C8  UNL     1      13.493  -6.425 -11.919  1.00  0.00     0.085 C
HETATM   19  O1  UNL     1      14.620  -5.359 -10.170  1.00  0.00    -0.292 OA
ENDBRANCH  10  12
ENDBRANCH   6  10
TORSDOF 2
ENDMDL