MODEL 1
REMARK VINA RESULT: -5.905014254      0.000      0.000
REMARK  7 active torsions:
REMARK  status: ('A' for Active; 'I' for Inactive)
REMARK    1  A    between atoms: C2_4  and  O1_5
REMARK    2  A    between atoms: C3_8  and  N3_9
REMARK    3  A    between atoms: C5_11  and  C6_12
REMARK    4  A    between atoms: C7_15  and  N5_16
REMARK    5  A    between atoms: N5_16  and  O4_18
REMARK    6  A    between atoms: O4_18  and  C8_19
REMARK    7  A    between atoms: C10_25  and  O6_26
ROOT
HETATM    1  N3  UNL     1      18.890  33.979  26.714  1.00  0.00    -0.257 N
HETATM    2  C4  UNL     1      19.195  32.869  27.409  1.00  0.00     0.135 A
HETATM    3  C5  UNL     1      19.526  31.890  26.497  1.00  0.00     0.093 A
HETATM    4  C7  UNL     1      19.411  32.452  25.219  1.00  0.00     0.157 A
HETATM    5  N8  UNL     1      19.026  33.703  25.427  1.00  0.00    -0.278 N
ATOM      6  H8  UNL     1      18.854  34.377  24.680  1.00  0.00     0.189 HD
ENDROOT
BRANCH   4   7
HETATM    7  N5  UNL     1      19.646  31.813  24.154  1.00  0.00    -0.247 N
ATOM      8  H5  UNL     1      19.201  30.897  24.106  1.00  0.00     0.196 HD
BRANCH   7   9
HETATM    9  O4  UNL     1      20.375  32.127  23.081  1.00  0.00    -0.260 OA
BRANCH   9  10
HETATM   10  C8  UNL     1      21.572  31.532  22.664  1.00  0.00     0.291 C
HETATM   11  C9  UNL     1      21.388  30.298  21.866  1.00  0.00     0.268 C
HETATM   12  O5  UNL     1      20.737  30.181  20.801  1.00  0.00    -0.269 OA
HETATM   13  N6  UNL     1      22.108  29.273  22.567  1.00  0.00    -0.269 N
HETATM   14  N7  UNL     1      22.086  29.634  23.915  1.00  0.00    -0.103 NA
ATOM     15  H6  UNL     1      22.546  28.446  22.161  1.00  0.00     0.185 HD
HETATM   16  C10 UNL     1      22.392  31.035  23.851  1.00  0.00     0.272 C
BRANCH  16  17
HETATM   17  O6  UNL     1      23.741  31.199  23.570  1.00  0.00    -0.375 OA
ATOM     18  H6  UNL     1      24.242  30.571  24.078  1.00  0.00     0.211 HD
ENDBRANCH  16  17
ENDBRANCH   9  10
ENDBRANCH   7   9
ENDBRANCH   4   7
BRANCH   3  19
HETATM   19  C6  UNL     1      19.930  30.509  26.782  1.00  0.00     0.270 C
HETATM   20  N4  UNL     1      21.193  30.226  27.356  1.00  0.00    -0.057 NA
HETATM   21  O3  UNL     1      19.148  29.574  26.515  1.00  0.00    -0.271 OA
ENDBRANCH   3  19
BRANCH   1  22
HETATM   22  C3  UNL     1      18.493  35.219  27.311  1.00  0.00     0.344 C
HETATM   23  N1  UNL     1      17.336  35.805  26.670  1.00  0.00    -0.187 NA
HETATM   24  C1  UNL     1      16.124  35.071  26.895  1.00  0.00     0.137 C
HETATM   25  N2  UNL     1      17.333  37.084  27.187  1.00  0.00    -0.102 NA
HETATM   26  C2  UNL     1      18.725  37.369  27.515  1.00  0.00     0.376 C
HETATM   27  O2  UNL     1      19.449  36.232  27.109  1.00  0.00    -0.305 OA
BRANCH  26  28
HETATM   28  O1  UNL     1      18.897  37.486  28.903  1.00  0.00    -0.357 OA
ATOM     29  H1  UNL     1      19.748  37.156  29.167  1.00  0.00     0.214 HD
ENDBRANCH  26  28
ENDBRANCH   1  22
TORSDOF 7
ENDMDL