MODEL 4
REMARK VINA RESULT: -5.814935230      1.685      3.587
REMARK  7 active torsions:
REMARK  status: ('A' for Active; 'I' for Inactive)
REMARK    1  A    between atoms: N3_14  and  C6_15
REMARK    2  A    between atoms: C8_17  and  O5_18
REMARK    3  A    between atoms: C8_17  and  C9_20
REMARK    4  A    between atoms: C9_20  and  O6_21
REMARK    5  A    between atoms: C9_20  and  O7_23
REMARK    6  A    between atoms: C9_20  and  N4_25
REMARK    7  A    between atoms: N4_25  and  O8_26
ROOT
HETATM    1  O1  UNL     1      17.995  32.979  25.218  1.00  0.00    -0.247 OA
HETATM    2  C1  UNL     1      19.094  33.427  25.644  1.00  0.00     0.328 A
HETATM    3  N1  UNL     1      19.102  34.646  26.205  1.00  0.00    -0.275 N
ATOM      4  H1  UNL     1      18.243  35.190  26.284  1.00  0.00     0.173 HD
HETATM    5  C2  UNL     1      20.282  35.137  26.667  1.00  0.00     0.269 A
HETATM    6  O2  UNL     1      20.348  36.277  27.202  1.00  0.00    -0.267 OA
HETATM    7  C3  UNL     1      21.441  34.402  26.561  1.00  0.00     0.144 A
HETATM    8  C4  UNL     1      22.656  34.878  27.017  1.00  0.00     0.269 A
HETATM    9  O3  UNL     1      22.672  36.013  27.540  1.00  0.00    -0.267 OA
HETATM   10  N2  UNL     1      23.767  34.136  26.892  1.00  0.00    -0.274 N
ATOM     11  H2  UNL     1      24.654  34.506  27.234  1.00  0.00     0.173 HD
HETATM   12  C5  UNL     1      23.739  32.908  26.324  1.00  0.00     0.333 A
HETATM   13  O4  UNL     1      24.792  32.237  26.219  1.00  0.00    -0.246 OA
HETATM   14  N3  UNL     1      22.588  32.418  25.876  1.00  0.00    -0.256 N
HETATM   15  C10 UNL     1      21.420  33.154  25.985  1.00  0.00     0.139 A
HETATM   16  N5  UNL     1      20.239  32.702  25.541  1.00  0.00    -0.293 N
ATOM     17  H5  UNL     1      20.197  31.779  25.109  1.00  0.00     0.172 HD
ENDROOT
BRANCH  14  18
HETATM   18  C6  UNL     1      22.413  31.145  25.269  1.00  0.00     0.243 C
HETATM   19  C7  UNL     1      21.254  30.725  24.497  1.00  0.00     0.130 C
HETATM   20  C8  UNL     1      22.026  31.066  23.231  1.00  0.00     0.245 C
HETATM   21  O9  UNL     1      23.141  31.186  24.035  1.00  0.00    -0.323 OA
BRANCH  20  22
HETATM   22  O5  UNL     1      21.581  32.186  22.577  1.00  0.00    -0.360 OA
ATOM     23  H5  UNL     1      21.786  33.005  23.012  1.00  0.00     0.213 HD
ENDBRANCH  20  22
BRANCH  20  24
HETATM   24  C9  UNL     1      22.202  29.877  22.296  1.00  0.00     0.322 C
BRANCH  24  25
HETATM   25  O6  UNL     1      22.010  28.739  23.036  1.00  0.00    -0.346 OA
ATOM     26  H6  UNL     1      22.169  27.997  22.465  1.00  0.00     0.214 HD
ENDBRANCH  24  25
BRANCH  24  27
HETATM   27  O7  UNL     1      23.497  29.863  21.782  1.00  0.00    -0.346 OA
ATOM     28  H7  UNL     1      23.873  30.734  21.825  1.00  0.00     0.214 HD
ENDBRANCH  24  27
BRANCH  24  29
HETATM   29  N4  UNL     1      21.296  29.982  21.170  1.00  0.00    -0.029 NA
BRANCH  29  30
HETATM   30  O8  UNL     1      21.769  30.739  20.185  1.00  0.00    -0.291 OA
ATOM     31  H8  UNL     1      21.121  30.934  19.519  1.00  0.00     0.239 HD
ENDBRANCH  29  30
ENDBRANCH  24  29
ENDBRANCH  20  24
ENDBRANCH  14  18
TORSDOF 7
ENDMDL