MODEL 5
REMARK VINA RESULT: -5.095473987      2.146      3.041
REMARK  10 active torsions:
REMARK  status: ('A' for Active; 'I' for Inactive)
REMARK    1  A    between atoms: N1_1  and  N2_4
REMARK    2  A    between atoms: N2_4  and  C1_5
REMARK    3  A    between atoms: C1_5  and  O1_6
REMARK    4  A    between atoms: C1_5  and  N3_8
REMARK    5  A    between atoms: N3_8  and  C2_9
REMARK    6  A    between atoms: N3_8  and  S1_27
REMARK    7  A    between atoms: C2_9  and  N4_10
REMARK    8  A    between atoms: C3_11  and  O2_12
REMARK    9  A    between atoms: C4_14  and  O3_15
REMARK   10  A    between atoms: S1_27  and  N7_28
ROOT
HETATM    1  N4  UNL     1      21.899  30.335  23.752  1.00  0.00    -0.278 N
HETATM    2  C3  UNL     1      21.553  31.055  22.646  1.00  0.00     0.184 A
HETATM    3  C4  UNL     1      21.820  30.231  21.571  1.00  0.00     0.147 A
HETATM    4  C5  UNL     1      22.315  29.040  22.032  1.00  0.00     0.107 A
HETATM    5  N5  UNL     1      22.706  27.916  21.441  1.00  0.00    -0.304 N
ATOM      6  H5  UNL     1      22.673  27.865  20.423  1.00  0.00     0.171 HD
HETATM    7  C6  UNL     1      23.147  26.834  22.129  1.00  0.00     0.327 A
HETATM    8  O4  UNL     1      23.508  25.793  21.547  1.00  0.00    -0.247 OA
HETATM    9  N6  UNL     1      23.201  26.865  23.469  1.00  0.00    -0.273 N
ATOM     10  H6  UNL     1      23.529  26.054  23.994  1.00  0.00     0.173 HD
HETATM   11  C7  UNL     1      22.813  27.990  24.111  1.00  0.00     0.279 A
HETATM   12  O5  UNL     1      22.866  27.996  25.363  1.00  0.00    -0.265 OA
HETATM   13  C8  UNL     1      22.356  29.124  23.430  1.00  0.00     0.140 A
ENDROOT
BRANCH   1  14
HETATM   14  C2  UNL     1      21.735  30.853  25.095  1.00  0.00     0.210 C
BRANCH  14  15
HETATM   15  N3  UNL     1      22.468  31.947  25.488  1.00  0.00    -0.211 N
BRANCH  15  16
HETATM   16  C1  UNL     1      21.662  32.958  26.147  1.00  0.00     0.355 C
BRANCH  16  17
HETATM   17  N2  UNL     1      20.501  33.226  25.359  1.00  0.00    -0.094 NA
BRANCH  17  18
HETATM   18  N1  UNL     1      19.693  34.197  25.924  1.00  0.00    -0.344 N
ATOM     19  H12 UNL     1      18.676  34.184  25.850  1.00  0.00     0.172 HD
ATOM     20  H11 UNL     1      20.230  34.912  26.416  1.00  0.00     0.172 HD
ENDBRANCH  17  18
ENDBRANCH  16  17
BRANCH  16  21
HETATM   21  O1  UNL     1      22.434  34.096  26.325  1.00  0.00    -0.361 OA
ATOM     22  H1  UNL     1      23.282  33.890  26.703  1.00  0.00     0.213 HD
ENDBRANCH  16  21
ENDBRANCH  15  16
BRANCH  15  23
HETATM   23  S1  UNL     1      24.030  31.871  26.095  1.00  0.00     0.323 S
HETATM   24  O6  UNL     1      24.920  32.961  25.513  1.00  0.00    -0.182 OA
HETATM   25  O7  UNL     1      24.072  32.138  27.594  1.00  0.00    -0.182 OA
BRANCH  23  26
HETATM   26  N7  UNL     1      24.841  30.368  25.851  1.00  0.00    -0.311 N
ATOM     27  H72 UNL     1      24.446  29.489  26.186  1.00  0.00     0.170 HD
ATOM     28  H71 UNL     1      25.729  30.429  25.354  1.00  0.00     0.170 HD
ENDBRANCH  23  26
ENDBRANCH  15  23
ENDBRANCH  14  15
ENDBRANCH   1  14
BRANCH   2  29
HETATM   29  O2  UNL     1      21.039  32.341  22.588  1.00  0.00    -0.344 OA
ATOM     30  H2  UNL     1      21.482  33.139  22.324  1.00  0.00     0.219 HD
ENDBRANCH   2  29
BRANCH   3  31
HETATM   31  O3  UNL     1      21.605  30.592  20.234  1.00  0.00    -0.355 OA
ATOM     32  H3  UNL     1      21.661  29.986  19.505  1.00  0.00     0.218 HD
ENDBRANCH   3  31
TORSDOF 10
ENDMDL