MODEL 1
REMARK VINA RESULT: -6.251659730      0.000      0.000
REMARK  7 active torsions:
REMARK  status: ('A' for Active; 'I' for Inactive)
REMARK    1  A    between atoms: C1_2  and  C2_4
REMARK    2  A    between atoms: C3_5  and  C4_6
REMARK    3  A    between atoms: C5_9  and  O4_10
REMARK    4  A    between atoms: C5_9  and  C6_12
REMARK    5  A    between atoms: C6_12  and  O5_13
REMARK    6  A    between atoms: C7_17  and  C8_18
REMARK    7  A    between atoms: C10_24  and  O9_25
ROOT
HETATM    1  C2  UNL     1      19.428  36.055  27.139  1.00  0.00     0.080 C
HETATM    2  C3  UNL     1      18.892  34.880  26.802  1.00  0.00     0.101 C
HETATM    3  C5  UNL     1      20.014  34.004  26.488  1.00  0.00     0.258 C
HETATM    4  O8  UNL     1      20.943  34.945  25.927  1.00  0.00    -0.312 OA
HETATM    5  C10 UNL     1      20.933  35.864  26.963  1.00  0.00     0.301 C
ENDROOT
BRANCH   3   6
HETATM    6  O4  UNL     1      20.643  33.560  27.664  1.00  0.00    -0.357 OA
ATOM      7  H4  UNL     1      21.003  32.689  27.545  1.00  0.00     0.213 HD
ENDBRANCH   3   6
BRANCH   3   8
HETATM    8  C6  UNL     1      19.914  32.938  25.514  1.00  0.00     0.270 C
HETATM    9  N2  UNL     1      19.288  33.207  24.243  1.00  0.00    -0.094 NA
HETATM   10  N3  UNL     1      19.444  31.995  23.560  1.00  0.00    -0.123 NA
HETATM   11  C7  UNL     1      20.722  31.449  23.952  1.00  0.00     0.258 C
HETATM   12  C9  UNL     1      21.171  32.312  25.072  1.00  0.00     0.214 C
HETATM   13  O7  UNL     1      22.287  32.425  25.466  1.00  0.00    -0.290 OA
BRANCH   8  14
HETATM   14  O5  UNL     1      19.148  31.869  26.063  1.00  0.00    -0.362 OA
ATOM     15  H5  UNL     1      19.210  31.113  25.492  1.00  0.00     0.212 HD
ENDBRANCH   8  14
BRANCH  11  16
HETATM   16  C8  UNL     1      21.685  31.353  22.863  1.00  0.00     0.259 C
HETATM   17  N4  UNL     1      22.564  30.242  22.828  1.00  0.00    -0.060 NA
HETATM   18  O6  UNL     1      21.714  32.249  21.991  1.00  0.00    -0.275 OA
ENDBRANCH  11  16
ENDBRANCH   3   8
BRANCH   2  19
HETATM   19  C4  UNL     1      17.471  34.631  26.803  1.00  0.00     0.211 C
HETATM   20  O2  UNL     1      16.637  35.416  26.348  1.00  0.00    -0.644 OA
HETATM   21  O3  UNL     1      16.962  33.453  27.336  1.00  0.00    -0.644 OA
ENDBRANCH   2  19
BRANCH   1  22
HETATM   22  C1  UNL     1      18.914  37.318  27.564  1.00  0.00     0.266 C
HETATM   23  N1  UNL     1      19.060  38.437  26.632  1.00  0.00    -0.057 NA
HETATM   24  O1  UNL     1      18.350  37.660  28.609  1.00  0.00    -0.271 OA
ENDBRANCH   1  22
BRANCH   5  25
HETATM   25  O9  UNL     1      21.533  37.061  26.605  1.00  0.00    -0.367 OA
ATOM     26  H9  UNL     1      22.467  36.938  26.478  1.00  0.00     0.213 HD
ENDBRANCH   5  25
TORSDOF 7
ENDMDL