MODEL 2
REMARK VINA RESULT: -5.307708380      2.670      4.316
REMARK  9 active torsions:
REMARK  status: ('A' for Active; 'I' for Inactive)
REMARK    1  A    between atoms: N1_1  and  C1_4
REMARK    2  A    between atoms: N3_10  and  C4_11
REMARK    3  A    between atoms: C6_15  and  O2_16
REMARK    4  A    between atoms: N6_20  and  C8_21
REMARK    5  A    between atoms: C8_21  and  C9_22
REMARK    6  A    between atoms: C9_22  and  O4_23
REMARK    7  A    between atoms: C9_22  and  C10_25
REMARK    8  A    between atoms: C10_25  and  O5_26
REMARK    9  A    between atoms: N7_29  and  N8_30
ROOT
HETATM    1  C1  UNL     1      21.721  29.340  21.013  1.00  0.00     0.699 A
HETATM    2  N2  UNL     1      21.072  30.426  21.452  1.00  0.00    -0.181 N
ATOM      3  H2  UNL     1      20.487  31.040  20.884  1.00  0.00     0.184 HD
HETATM    4  C2  UNL     1      21.317  30.573  22.765  1.00  0.00     0.164 A
HETATM    5  C3  UNL     1      20.928  31.483  23.720  1.00  0.00     0.283 A
HETATM    6  O1  UNL     1      20.163  32.444  23.395  1.00  0.00    -0.265 OA
HETATM    7  N3  UNL     1      21.337  31.399  25.029  1.00  0.00    -0.254 N
HETATM    8  C7  UNL     1      22.144  30.375  25.338  1.00  0.00     0.334 A
HETATM    9  O3  UNL     1      22.521  30.293  26.534  1.00  0.00    -0.246 OA
HETATM   10  N6  UNL     1      22.568  29.436  24.444  1.00  0.00    -0.279 N
HETATM   11  C11 UNL     1      22.154  29.540  23.164  1.00  0.00     0.184 A
HETATM   12  N7  UNL     1      22.366  28.817  22.043  1.00  0.00    -0.074 N
ENDROOT
BRANCH   7  13
HETATM   13  C4  UNL     1      20.894  32.366  25.924  1.00  0.00     0.160 C
HETATM   14  C5  UNL     1      20.398  31.954  27.280  1.00  0.00     0.160 C
HETATM   15  N4  UNL     1      20.026  33.314  27.746  1.00  0.00    -0.144 NA
HETATM   16  N5  UNL     1      21.130  34.100  27.412  1.00  0.00    -0.114 NA
HETATM   17  C6  UNL     1      21.829  33.481  26.309  1.00  0.00     0.251 C
BRANCH  17  18
HETATM   18  O2  UNL     1      23.095  33.088  26.652  1.00  0.00    -0.376 OA
ATOM     19  H2  UNL     1      23.714  33.047  25.932  1.00  0.00     0.211 HD
ENDBRANCH  17  18
ENDBRANCH   7  13
BRANCH  10  20
HETATM   20  C8  UNL     1      23.431  28.373  24.866  1.00  0.00     0.169 C
BRANCH  20  21
HETATM   21  C9  UNL     1      22.706  27.220  25.529  1.00  0.00     0.160 C
BRANCH  21  22
HETATM   22  O4  UNL     1      22.858  27.324  26.916  1.00  0.00    -0.392 OA
ATOM     23  H4  UNL     1      23.762  27.140  27.143  1.00  0.00     0.210 HD
ENDBRANCH  21  22
BRANCH  21  24
HETATM   24  C10 UNL     1      23.406  25.947  25.072  1.00  0.00     0.197 C
BRANCH  24  25
HETATM   25  O5  UNL     1      22.747  25.493  23.932  1.00  0.00    -0.398 OA
ATOM     26  H5  UNL     1      22.559  24.571  24.060  1.00  0.00     0.209 HD
ENDBRANCH  24  25
ENDBRANCH  21  24
ENDBRANCH  20  21
ENDBRANCH  10  20
BRANCH   1  27
HETATM   27  N1  UNL     1      21.672  28.941  19.770  1.00  0.00    -0.233 N
ATOM     28  H12 UNL     1      20.863  28.770  19.173  1.00  0.00     0.174 HD
ATOM     29  H11 UNL     1      22.508  28.742  19.221  1.00  0.00     0.174 HD
ENDBRANCH   1  27
BRANCH  12  30
HETATM   30  N8  UNL     1      23.154  27.678  21.978  1.00  0.00    -0.322 N
ATOM     31  H82 UNL     1      22.844  26.779  21.608  1.00  0.00     0.178 HD
ATOM     32  H81 UNL     1      24.123  27.629  22.293  1.00  0.00     0.178 HD
ENDBRANCH  12  30
TORSDOF 9
ENDMDL