MODEL 3
REMARK VINA RESULT: -4.986136148      2.053      5.395
REMARK  12 active torsions:
REMARK  status: ('A' for Active; 'I' for Inactive)
REMARK    1  A    between atoms: N1_1  and  C1_4
REMARK    2  A    between atoms: C2_7  and  N3_8
REMARK    3  A    between atoms: N3_8  and  O1_10
REMARK    4  A    between atoms: C3_14  and  N5_15
REMARK    5  A    between atoms: N5_15  and  O2_17
REMARK    6  A    between atoms: O2_17  and  C4_18
REMARK       I    between atoms: C4_18  and  N6_20
REMARK    7  A    between atoms: N6_20  and  N7_22
REMARK    8  A    between atoms: N9_32  and  C9_33
REMARK    9  A    between atoms: C9_33  and  C10_34
REMARK   10  A    between atoms: C10_34  and  O5_35
REMARK   11  A    between atoms: C10_34  and  C11_37
REMARK   12  A    between atoms: C11_37  and  O6_38
ROOT
HETATM    1  C1  UNL     1      24.870  33.020  26.511  1.00  0.00     0.144 C
HETATM    2  N2  UNL     1      25.605  32.336  25.616  1.00  0.00    -0.173 N
ATOM      3  H2  UNL     1      26.604  32.406  25.804  1.00  0.00     0.186 HD
HETATM    4  C2  UNL     1      25.341  31.577  24.527  1.00  0.00     0.705 C
HETATM    5  N4  UNL     1      24.243  30.882  24.131  1.00  0.00    -0.169 N
ATOM      6  H4  UNL     1      24.388  30.432  23.228  1.00  0.00     0.186 HD
HETATM    7  C3  UNL     1      23.001  30.628  24.623  1.00  0.00     0.194 C
HETATM    8  C5  UNL     1      22.278  31.155  25.661  1.00  0.00     0.247 C
HETATM    9  O4  UNL     1      21.349  30.484  26.116  1.00  0.00    -0.282 OA
HETATM   10  C6  UNL     1      22.370  32.361  26.361  1.00  0.00     0.121 A
HETATM   11  C7  UNL     1      23.508  33.105  26.719  1.00  0.00     0.109 A
HETATM   12  N8  UNL     1      23.029  34.132  27.437  1.00  0.00    -0.347 N
ATOM     13  H8  UNL     1      23.594  34.870  27.856  1.00  0.00     0.167 HD
HETATM   14  C8  UNL     1      21.701  34.041  27.519  1.00  0.00     0.184 A
HETATM   15  N9  UNL     1      21.261  32.912  26.834  1.00  0.00    -0.335 N
ENDROOT
BRANCH   7  16
HETATM   16  N5  UNL     1      22.337  29.718  24.026  1.00  0.00    -0.236 N
ATOM     17  H5  UNL     1      22.563  28.737  24.187  1.00  0.00     0.197 HD
BRANCH  16  18
HETATM   18  O2  UNL     1      21.314  30.054  23.164  1.00  0.00    -0.178 OA
BRANCH  18  19
HETATM   19  C4  UNL     1      21.543  30.162  21.800  1.00  0.00     0.401 C
HETATM   20  O3  UNL     1      21.669  31.316  21.323  1.00  0.00    -0.235 OA
HETATM   21  N6  UNL     1      21.633  29.011  20.965  1.00  0.00    -0.250 N
ATOM     22  H6  UNL     1      21.529  28.077  21.362  1.00  0.00     0.191 HD
BRANCH  21  23
HETATM   23  N7  UNL     1      21.863  29.173  19.604  1.00  0.00    -0.341 N
ATOM     24  H72 UNL     1      21.491  28.486  18.948  1.00  0.00     0.177 HD
ATOM     25  H71 UNL     1      22.401  29.977  19.281  1.00  0.00     0.177 HD
ENDBRANCH  21  23
ENDBRANCH  18  19
ENDBRANCH  16  18
ENDBRANCH   7  16
BRANCH   4  26
HETATM   26  N3  UNL     1      26.332  31.505  23.712  1.00  0.00    -0.098 N
ATOM     27  H3  UNL     1      26.581  30.618  23.272  1.00  0.00     0.213 HD
BRANCH  26  28
HETATM   28  O1  UNL     1      27.048  32.643  23.444  1.00  0.00    -0.276 OA
ATOM     29  H1  UNL     1      27.235  32.861  22.539  1.00  0.00     0.245 HD
ENDBRANCH  26  28
ENDBRANCH   4  26
BRANCH  15  30
HETATM   30  C9  UNL     1      19.891  32.577  26.679  1.00  0.00     0.164 C
BRANCH  30  31
HETATM   31  C10 UNL     1      19.307  33.386  25.547  1.00  0.00     0.160 C
BRANCH  31  32
HETATM   32  O5  UNL     1      18.144  34.079  25.922  1.00  0.00    -0.392 OA
ATOM     33  H5  UNL     1      17.905  33.928  26.830  1.00  0.00     0.210 HD
ENDBRANCH  31  32
BRANCH  31  34
HETATM   34  C11 UNL     1      18.962  32.658  24.287  1.00  0.00     0.197 C
BRANCH  34  35
HETATM   35  O6  UNL     1      20.045  32.627  23.417  1.00  0.00    -0.398 OA
ATOM     36  H6  UNL     1      19.779  32.846  22.532  1.00  0.00     0.209 HD
ENDBRANCH  34  35
ENDBRANCH  31  34
ENDBRANCH  30  31
ENDBRANCH  15  30
BRANCH   1  37
HETATM   37  N1  UNL     1      25.549  33.738  27.338  1.00  0.00    -0.383 N
ATOM     38  H12 UNL     1      26.410  33.284  27.643  1.00  0.00     0.157 HD
ATOM     39  H11 UNL     1      25.135  34.642  27.566  1.00  0.00     0.157 HD
ENDBRANCH   1  37
TORSDOF 12
ENDMDL