MODEL 2
REMARK VINA RESULT: -6.229387266      1.732      2.315
REMARK  8 active torsions:
REMARK  status: ('A' for Active; 'I' for Inactive)
REMARK    1  A    between atoms: N1_1  and  C1_4
REMARK    2  A    between atoms: C4_15  and  C5_16
REMARK    3  A    between atoms: N7_17  and  N8_19
REMARK    4  A    between atoms: N8_19  and  N9_20
REMARK       I    between atoms: N8_19  and  C8_33
REMARK    5  A    between atoms: C6_22  and  C7_24
REMARK    6  A    between atoms: C7_24  and  N11_25
REMARK    7  A    between atoms: C7_24  and  N12_29
REMARK    8  A    between atoms: N14_35  and  N15_37
ROOT
HETATM    1  N8  UNL     1      22.186  23.633  24.187  1.00  0.00    -0.163 N
HETATM    2  C8  UNL     1      21.198  23.886  25.209  1.00  0.00     0.244 C
HETATM    3  N13 UNL     1      21.190  25.071  25.983  1.00  0.00    -0.059 NA
HETATM    4  N14 UNL     1      20.295  22.988  25.396  1.00  0.00    -0.277 N
ATOM      5  H14 UNL     1      20.313  22.147  24.820  1.00  0.00     0.189 HD
ENDROOT
BRANCH   1   6
HETATM    6  N7  UNL     1      23.414  24.147  24.145  1.00  0.00    -0.286 N
HETATM    7  C5  UNL     1      23.961  25.092  23.587  1.00  0.00     0.140 C
ATOM      8  H7  UNL     1      24.066  23.618  24.724  1.00  0.00     0.188 HD
BRANCH   7   9
HETATM    9  C4  UNL     1      23.354  26.055  22.698  1.00  0.00     0.068 A
HETATM   10  N6  UNL     1      23.048  25.816  21.433  1.00  0.00    -0.283 N
HETATM   11  N5  UNL     1      22.514  26.751  20.641  1.00  0.00    -0.221 N
ATOM     12  H6  UNL     1      23.226  24.888  21.049  1.00  0.00     0.188 HD
HETATM   13  N4  UNL     1      22.239  27.981  21.023  1.00  0.00    -0.180 N
ATOM     14  H5  UNL     1      22.305  26.495  19.676  1.00  0.00     0.210 HD
HETATM   15  N3  UNL     1      21.720  28.875  20.199  1.00  0.00    -0.287 N
HETATM   16  C10 UNL     1      22.525  28.313  22.319  1.00  0.00     0.106 A
HETATM   17  C3  UNL     1      21.440  30.147  20.562  1.00  0.00     0.138 A
ATOM     18  H3  UNL     1      21.521  28.592  19.240  1.00  0.00     0.188 HD
HETATM   19  C2  UNL     1      21.708  30.534  21.855  1.00  0.00     0.091 A
HETATM   20  C1  UNL     1      22.250  29.595  22.710  1.00  0.00     0.082 A
HETATM   21  N2  UNL     1      21.457  31.844  22.342  1.00  0.00    -0.098 NA
HETATM   22  C9  UNL     1      23.073  27.359  23.136  1.00  0.00     0.068 A
BRANCH  20  23
HETATM   23  N1  UNL     1      22.510  29.935  23.926  1.00  0.00    -0.396 N
ATOM     24  H12 UNL     1      23.426  30.330  24.134  1.00  0.00     0.156 HD
ATOM     25  H11 UNL     1      21.793  29.800  24.640  1.00  0.00     0.156 HD
ENDBRANCH  20  23
ENDBRANCH   7   9
ENDBRANCH   1   6
BRANCH   1  26
HETATM   26  N9  UNL     1      21.780  22.784  23.099  1.00  0.00    -0.264 N
HETATM   27  C6  UNL     1      22.332  21.633  23.064  1.00  0.00     0.167 C
HETATM   28  N10 UNL     1      23.275  21.256  24.045  1.00  0.00    -0.082 NA
ATOM     29  H9  UNL     1      21.098  23.082  22.402  1.00  0.00     0.190 HD
BRANCH  27  30
HETATM   30  C7  UNL     1      21.992  20.665  21.993  1.00  0.00     0.443 C
BRANCH  30  31
HETATM   31  N11 UNL     1      20.623  20.178  22.149  1.00  0.00    -0.044 N
ATOM     32 3H11 UNL     1      20.443  19.854  23.100  1.00  0.00     0.277 HD
ATOM     33 2H11 UNL     1      19.945  20.940  22.115  1.00  0.00     0.277 HD
ATOM     34 1H11 UNL     1      20.414  19.457  21.459  1.00  0.00     0.277 HD
ENDBRANCH  30  31
BRANCH  30  35
HETATM   35  N12 UNL     1      22.148  21.282  20.673  1.00  0.00    -0.044 N
ATOM     36 3H12 UNL     1      22.891  21.981  20.667  1.00  0.00     0.277 HD
ATOM     37 2H12 UNL     1      22.545  20.631  19.996  1.00  0.00     0.277 HD
ATOM     38 1H12 UNL     1      21.261  21.669  20.351  1.00  0.00     0.277 HD
ENDBRANCH  30  35
ENDBRANCH  27  30
ENDBRANCH   1  26
BRANCH   4  39
HETATM   39  N15 UNL     1      19.298  23.119  26.348  1.00  0.00    -0.343 N
ATOM     40 2H15 UNL     1      19.529  23.613  27.210  1.00  0.00     0.176 HD
ATOM     41 1H15 UNL     1      18.359  22.743  26.217  1.00  0.00     0.176 HD
ENDBRANCH   4  39
TORSDOF 8
ENDMDL