MODEL 4
REMARK VINA RESULT: -5.312069072      2.626      7.329
REMARK  10 active torsions:
REMARK  status: ('A' for Active; 'I' for Inactive)
REMARK    1  A    between atoms: N1_2  and  C3_4
REMARK    2  A    between atoms: C4_7  and  N3_8
REMARK    3  A    between atoms: C6_10  and  C7_11
REMARK    4  A    between atoms: C6_10  and  C8_19
REMARK       I    between atoms: C7_11  and  N4_13
REMARK    5  A    between atoms: N4_13  and  N5_15
REMARK    6  A    between atoms: N5_15  and  N6_16
REMARK    7  A    between atoms: C8_19  and  O2_20
REMARK    8  A    between atoms: C8_19  and  O3_22
REMARK    9  A    between atoms: C9_25  and  N7_26
REMARK   10  A    between atoms: C10_32  and  N9_33
ROOT
HETATM    1  N3  UNL     1      21.235  32.242  25.777  1.00  0.00    -0.161 N
HETATM    2  C5  UNL     1      20.768  31.058  25.082  1.00  0.00     0.199 C
HETATM    3  C6  UNL     1      21.994  30.760  24.244  1.00  0.00     0.212 C
HETATM    4  O4  UNL     1      23.031  31.554  24.728  1.00  0.00    -0.315 OA
HETATM    5  C9  UNL     1      22.643  31.920  26.021  1.00  0.00     0.444 C
ENDROOT
BRANCH   1   6
HETATM    6  C4  UNL     1      20.503  33.401  26.099  1.00  0.00     0.713 A
HETATM    7  N2  UNL     1      21.120  34.587  26.228  1.00  0.00    -0.021 N
HETATM    8  C3  UNL     1      20.394  35.702  26.526  1.00  0.00     0.708 A
ATOM      9  H2  UNL     1      22.131  34.654  26.104  1.00  0.00     0.203 HD
HETATM   10  N10 UNL     1      19.071  35.574  26.680  1.00  0.00    -0.022 N
HETATM   11  C10 UNL     1      18.418  34.384  26.554  1.00  0.00     0.705 A
ATOM     12  H10 UNL     1      18.525  36.406  26.903  1.00  0.00     0.203 HD
HETATM   13  N8  UNL     1      19.176  33.316  26.262  1.00  0.00    -0.021 N
ATOM     14  H8  UNL     1      18.725  32.407  26.161  1.00  0.00     0.203 HD
BRANCH   8  15
HETATM   15  N1  UNL     1      21.094  36.923  26.662  1.00  0.00    -0.225 N
HETATM   16  C1  UNL     1      22.448  36.926  27.163  1.00  0.00     0.168 C
HETATM   17  C2  UNL     1      20.497  38.201  26.303  1.00  0.00     0.168 C
ENDBRANCH   8  15
BRANCH  11  18
HETATM   18  N9  UNL     1      17.147  34.329  26.711  1.00  0.00    -0.234 N
ATOM     19  H92 UNL     1      16.755  34.085  27.620  1.00  0.00     0.174 HD
ATOM     20  H91 UNL     1      16.478  34.519  25.965  1.00  0.00     0.174 HD
ENDBRANCH  11  18
ENDBRANCH   1   6
BRANCH   5  21
HETATM   21  N7  UNL     1      23.362  33.029  26.545  1.00  0.00    -0.034 N
ATOM     22  H73 UNL     1      22.728  33.757  26.878  1.00  0.00     0.279 HD
ATOM     23  H72 UNL     1      23.814  32.793  27.428  1.00  0.00     0.279 HD
ATOM     24  H71 UNL     1      24.033  33.403  25.875  1.00  0.00     0.279 HD
ENDBRANCH   5  21
BRANCH   3  25
HETATM   25  C7  UNL     1      21.616  31.103  22.838  1.00  0.00     0.276 C
HETATM   26  O1  UNL     1      21.471  32.264  22.431  1.00  0.00    -0.268 OA
HETATM   27  N4  UNL     1      21.424  29.995  21.963  1.00  0.00    -0.252 N
ATOM     28  H4  UNL     1      21.553  29.048  22.321  1.00  0.00     0.187 HD
BRANCH  27  29
HETATM   29  N5  UNL     1      21.063  30.178  20.617  1.00  0.00    -0.027 NA
BRANCH  29  30
HETATM   30  N6  UNL     1      21.619  29.196  19.786  1.00  0.00    -0.329 N
ATOM     31  H62 UNL     1      21.349  28.214  19.827  1.00  0.00     0.174 HD
ATOM     32  H61 UNL     1      22.314  29.585  19.149  1.00  0.00     0.174 HD
ENDBRANCH  29  30
ENDBRANCH  27  29
ENDBRANCH   3  25
BRANCH   3  33
HETATM   33  C8  UNL     1      22.399  29.313  24.266  1.00  0.00     0.300 C
BRANCH  33  34
HETATM   34  O2  UNL     1      23.790  29.245  24.247  1.00  0.00    -0.368 OA
ATOM     35  H2  UNL     1      24.088  28.959  25.102  1.00  0.00     0.212 HD
ENDBRANCH  33  34
BRANCH  33  36
HETATM   36  O3  UNL     1      21.979  28.668  25.433  1.00  0.00    -0.368 OA
ATOM     37  H3  UNL     1      22.647  28.681  26.108  1.00  0.00     0.212 HD
ENDBRANCH  33  36
ENDBRANCH   3  33
TORSDOF 10
ENDMDL