MODEL 2
REMARK VINA RESULT: -5.911983725      1.968      2.596
REMARK  7 active torsions:
REMARK  status: ('A' for Active; 'I' for Inactive)
REMARK    1  A    between atoms: N1_1  and  C1_5
REMARK    2  A    between atoms: C1_5  and  C2_6
REMARK    3  A    between atoms: C3_10  and  O1_11
REMARK    4  A    between atoms: C4_13  and  N3_14
REMARK    5  A    between atoms: C6_16  and  O2_17
REMARK    6  A    between atoms: C6_16  and  N4_19
REMARK    7  A    between atoms: N4_19  and  C7_21
ROOT
HETATM    1  N3  UNL     1      22.550  29.144  21.966  1.00  0.00    -0.247 N
HETATM    2  C5  UNL     1      22.528  27.844  21.509  1.00  0.00     0.181 A
HETATM    3  C6  UNL     1      23.022  26.693  22.226  1.00  0.00     0.202 C
HETATM    4  N8  UNL     1      21.856  27.900  20.337  1.00  0.00    -0.278 N
ATOM      5  H8  UNL     1      21.662  27.100  19.734  1.00  0.00     0.189 HD
HETATM    6  N9  UNL     1      21.493  29.131  20.090  1.00  0.00    -0.249 N
ATOM      7  H9  UNL     1      20.973  29.442  19.269  1.00  0.00     0.192 HD
HETATM    8  C10 UNL     1      21.923  29.933  21.110  1.00  0.00     0.345 A
HETATM    9  O5  UNL     1      21.729  31.187  21.171  1.00  0.00    -0.245 OA
ENDROOT
BRANCH   1  10
HETATM   10  C4  UNL     1      23.200  29.513  23.200  1.00  0.00     0.293 C
HETATM   11  C3  UNL     1      22.418  30.483  24.054  1.00  0.00     0.371 C
HETATM   12  N2  UNL     1      23.513  31.020  24.897  1.00  0.00    -0.017 N
HETATM   13  C2  UNL     1      24.731  30.613  24.241  1.00  0.00     0.351 C
ATOM     14  H22 UNL     1      23.458  30.736  25.875  1.00  0.00     0.283 HD
ATOM     15  H21 UNL     1      23.450  32.024  25.062  1.00  0.00     0.283 HD
HETATM   16  O6  UNL     1      24.425  30.188  22.964  1.00  0.00    -0.327 OA
BRANCH  11  17
HETATM   17  O1  UNL     1      21.470  29.873  24.867  1.00  0.00    -0.366 OA
ATOM     18  H1  UNL     1      21.358  28.970  24.594  1.00  0.00     0.212 HD
ENDBRANCH  11  17
BRANCH  13  19
HETATM   19  C1  UNL     1      25.649  31.811  24.198  1.00  0.00     0.290 C
BRANCH  19  20
HETATM   20  N1  UNL     1      26.949  31.446  23.716  1.00  0.00    -0.075 N
ATOM     21  H13 UNL     1      27.689  31.815  24.314  1.00  0.00     0.274 HD
ATOM     22  H12 UNL     1      27.131  30.450  23.841  1.00  0.00     0.274 HD
ATOM     23  H11 UNL     1      27.073  31.731  22.745  1.00  0.00     0.274 HD
ENDBRANCH  19  20
ENDBRANCH  13  19
ENDBRANCH   1  10
BRANCH   3  24
HETATM   24  O2  UNL     1      22.818  26.798  23.530  1.00  0.00    -0.343 OA
ATOM     25  H2  UNL     1      23.068  26.007  23.992  1.00  0.00     0.219 HD
ENDBRANCH   3  24
BRANCH   3  26
HETATM   26  N4  UNL     1      23.649  25.525  21.830  1.00  0.00    -0.166 N
ATOM     27  H4  UNL     1      23.591  24.792  22.537  1.00  0.00     0.186 HD
BRANCH  26  28
HETATM   28  C7  UNL     1      24.344  25.111  20.689  1.00  0.00     0.692 A
HETATM   29  N5  UNL     1      25.688  25.432  20.671  1.00  0.00    -0.141 N
HETATM   30  C8  UNL     1      26.474  25.137  19.632  1.00  0.00     0.342 A
ATOM     31  H5  UNL     1      26.094  25.908  21.477  1.00  0.00     0.189 HD
HETATM   32  O3  UNL     1      27.695  25.442  19.642  1.00  0.00    -0.246 OA
HETATM   33  N6  UNL     1      25.986  24.511  18.551  1.00  0.00    -0.260 N
HETATM   34  C9  UNL     1      24.701  24.184  18.526  1.00  0.00     0.342 A
ATOM     35  H6  UNL     1      26.593  24.289  17.762  1.00  0.00     0.175 HD
HETATM   36  O4  UNL     1      24.191  23.596  17.537  1.00  0.00    -0.246 OA
HETATM   37  N7  UNL     1      23.918  24.499  19.606  1.00  0.00    -0.141 N
ATOM     38  H7  UNL     1      22.932  24.241  19.566  1.00  0.00     0.189 HD
ENDBRANCH  26  28
ENDBRANCH   3  26
TORSDOF 7
ENDMDL