MODEL 4
REMARK VINA RESULT: -5.450538642      3.175      6.790
REMARK  6 active torsions:
REMARK  status: ('A' for Active; 'I' for Inactive)
REMARK    1  A    between atoms: C2_7  and  C3_8
REMARK    2  A    between atoms: C3_8  and  O1_9
REMARK    3  A    between atoms: C4_14  and  C5_15
REMARK    4  A    between atoms: C5_15  and  N4_16
REMARK    5  A    between atoms: C5_15  and  C6_20
REMARK    6  A    between atoms: C10_30  and  O4_31
ROOT
HETATM    1  C3  UNL     1      20.485  33.932  26.866  1.00  0.00     0.301 C
HETATM    2  N3  UNL     1      20.724  33.289  25.592  1.00  0.00    -0.023 N
ATOM      3  H31 UNL     1      21.138  33.926  24.912  1.00  0.00     0.282 HD
ATOM      4  H32 UNL     1      19.857  33.086  25.094  1.00  0.00     0.282 HD
HETATM    5  C4  UNL     1      21.533  32.098  25.789  1.00  0.00     0.285 C
HETATM    6  C7  UNL     1      22.818  32.313  26.498  1.00  0.00     0.355 C
HETATM    7  N6  UNL     1      22.553  32.492  27.927  1.00  0.00    -0.038 N
ATOM      8  H61 UNL     1      23.130  31.926  28.550  1.00  0.00     0.281 HD
ATOM      9  H62 UNL     1      21.664  32.114  28.255  1.00  0.00     0.281 HD
HETATM   10  C8  UNL     1      22.708  33.934  28.077  1.00  0.00     0.246 C
HETATM   11  C9  UNL     1      24.016  34.053  27.262  1.00  0.00     0.206 C
HETATM   12  O3  UNL     1      23.585  33.374  26.105  1.00  0.00    -0.355 OA
HETATM   13  C10 UNL     1      21.685  34.736  27.310  1.00  0.00     0.221 C
ENDROOT
BRANCH   1  14
HETATM   14  C2  UNL     1      19.289  34.792  26.911  1.00  0.00     0.149 A
HETATM   15  N2  UNL     1      19.470  36.109  27.174  1.00  0.00    -0.316 N
HETATM   16  C1  UNL     1      18.501  37.029  27.232  1.00  0.00     0.241 A
ATOM     17  H2  UNL     1      20.425  36.424  27.343  1.00  0.00     0.169 HD
HETATM   18  N1  UNL     1      18.725  38.267  27.487  1.00  0.00    -0.364 N
HETATM   19  O6  UNL     1      17.279  36.590  27.009  1.00  0.00    -0.198 OA
ATOM     20  H12 UNL     1      19.671  38.608  27.659  1.00  0.00     0.159 HD
ATOM     21  H11 UNL     1      17.986  38.970  27.531  1.00  0.00     0.159 HD
HETATM   22  N7  UNL     1      17.034  35.355  26.753  1.00  0.00    -0.220 N
HETATM   23  C11 UNL     1      17.996  34.403  26.689  1.00  0.00     0.293 A
ATOM     24  H7  UNL     1      16.066  35.077  26.589  1.00  0.00     0.198 HD
HETATM   25  O5  UNL     1      17.732  33.226  26.444  1.00  0.00    -0.264 OA
ENDBRANCH   1  14
BRANCH   1  26
HETATM   26  O1  UNL     1      20.234  32.904  27.821  1.00  0.00    -0.358 OA
ATOM     27  H1  UNL     1      19.810  32.210  27.329  1.00  0.00     0.213 HD
ENDBRANCH   1  26
BRANCH  13  28
HETATM   28  O4  UNL     1      22.262  35.311  26.167  1.00  0.00    -0.388 OA
ATOM     29  H4  UNL     1      23.137  35.598  26.398  1.00  0.00     0.210 HD
ENDBRANCH  13  28
BRANCH   5  30
HETATM   30  C5  UNL     1      21.627  31.262  24.545  1.00  0.00     0.306 C
BRANCH  30  31
HETATM   31  N4  UNL     1      23.020  30.939  24.315  1.00  0.00    -0.065 N
ATOM     32  H43 UNL     1      23.528  31.697  23.861  1.00  0.00     0.275 HD
ATOM     33  H42 UNL     1      23.562  30.905  25.179  1.00  0.00     0.275 HD
ATOM     34  H41 UNL     1      23.066  30.066  23.789  1.00  0.00     0.275 HD
ENDBRANCH  30  31
BRANCH  30  35
HETATM   35  C6  UNL     1      20.971  31.828  23.362  1.00  0.00     0.264 C
HETATM   36  N5  UNL     1      21.783  32.033  22.208  1.00  0.00    -0.060 NA
HETATM   37  O2  UNL     1      19.784  32.147  23.257  1.00  0.00    -0.275 OA
ENDBRANCH  30  35
ENDBRANCH   5  30
TORSDOF 6
ENDMDL