MODEL 1
REMARK VINA RESULT: -5.213231763      0.000      0.000
REMARK  1 active torsions:
REMARK  status: ('A' for Active; 'I' for Inactive)
REMARK    1  A    between atoms: N1_6  and  N2_7
ROOT
HETATM    1  C1  UNL     1      55.895  27.121  22.088  1.00  0.00     0.029 C
HETATM    2  C2  UNL     1      55.961  28.632  21.810  1.00  0.00     0.091 C
HETATM    3  C3  UNL     1      57.107  28.974  20.920  1.00  0.00     0.024 C
HETATM    4  C4  UNL     1      56.840  29.926  19.832  1.00  0.00     0.019 C
HETATM    5  C5  UNL     1      55.543  30.634  19.849  1.00  0.00     0.134 C
HETATM    6  N1  UNL     1      54.712  30.367  20.989  1.00  0.00    -0.151 NA
HETATM    7  N3  UNL     1      54.681  29.026  21.335  1.00  0.00    -0.141 NA
ENDROOT
BRANCH   6   8
HETATM    8  N2  UNL     1      53.393  30.740  20.645  1.00  0.00    -0.349 NA
ATOM      9  H22 UNL     1      53.012  31.262  21.434  1.00  0.00     0.172 HD
ATOM     10  H21 UNL     1      52.877  29.883  20.446  1.00  0.00     0.172 HD
ENDBRANCH   6   8
TORSDOF 1
ENDMDL