MODEL 1
REMARK VINA RESULT: -5.256302890      0.000      0.000
REMARK  0 active torsions:
REMARK  status: ('A' for Active; 'I' for Inactive)
ROOT
HETATM    1  C1  UNL     1      56.279  31.054  20.388  1.00  0.00     0.042 C
HETATM    2  C2  UNL     1      55.721  29.718  19.959  1.00  0.00     0.147 C
HETATM    3  C3  UNL     1      56.666  28.585  20.253  1.00  0.00     0.034 C
HETATM    4  C4  UNL     1      56.828  28.283  21.700  1.00  0.00     0.004 C
HETATM    5  C5  UNL     1      55.749  27.388  22.261  1.00  0.00     0.022 C
HETATM    6  C6  UNL     1      54.378  27.958  22.140  1.00  0.00     0.146 C
HETATM    7  N1  UNL     1      54.324  29.321  21.722  1.00  0.00    -0.302 N
ATOM      8  H1  UNL     1      54.192  30.083  22.387  1.00  0.00     0.187 HD
HETATM    9  O1  UNL     1      54.454  29.541  20.434  1.00  0.00    -0.280 OA
ENDROOT
TORSDOF 0
ENDMDL