MODEL 2
REMARK VINA RESULT: -5.344830679      0.677      2.291
REMARK  2 active torsions:
REMARK  status: ('A' for Active; 'I' for Inactive)
REMARK    1  A    between atoms: N1_1  and  C1_5
REMARK    2  A    between atoms: C6_10  and  N2_11
ROOT
HETATM    1  C1  UNL     1      54.942  28.669  21.856  1.00  0.00     0.213 C
HETATM    2  C2  UNL     1      56.054  27.703  21.594  1.00  0.00     0.035 C
HETATM    3  C3  UNL     1      57.346  28.525  21.549  1.00  0.00     0.002 C
HETATM    4  C4  UNL     1      57.097  29.953  21.186  1.00  0.00     0.002 C
HETATM    5  C5  UNL     1      55.994  30.132  20.170  1.00  0.00     0.035 C
HETATM    6  C6  UNL     1      54.717  29.472  20.589  1.00  0.00     0.213 C
ENDROOT
BRANCH   1   7
HETATM    7  N1  UNL     1      53.708  28.078  22.236  1.00  0.00    -0.073 N
ATOM      8  H13 UNL     1      53.787  27.061  22.222  1.00  0.00     0.274 HD
ATOM      9  H12 UNL     1      53.537  28.230  23.230  1.00  0.00     0.274 HD
ATOM     10  H11 UNL     1      52.900  28.375  21.690  1.00  0.00     0.274 HD
ENDBRANCH   1   7
BRANCH   6  11
HETATM   11  N2  UNL     1      53.663  30.428  20.884  1.00  0.00    -0.073 N
ATOM     12  H23 UNL     1      52.770  30.190  20.452  1.00  0.00     0.274 HD
ATOM     13  H22 UNL     1      53.348  30.395  21.854  1.00  0.00     0.274 HD
ATOM     14  H21 UNL     1      54.013  31.345  20.605  1.00  0.00     0.274 HD
ENDBRANCH   6  11
TORSDOF 2
ENDMDL