MODEL 1
REMARK VINA RESULT: -4.469779388      0.000      0.000
REMARK  0 active torsions:
REMARK  status: ('A' for Active; 'I' for Inactive)
ROOT
HETATM    1  S1  UNL     1      53.968  30.910  19.640  1.00  0.00    -0.062 SA
HETATM    2  C1  UNL     1      54.734  29.831  20.855  1.00  0.00     0.257 C
HETATM    3  C2  UNL     1      56.056  29.299  20.353  1.00  0.00     0.045 C
HETATM    4  C3  UNL     1      56.647  28.227  21.166  1.00  0.00     0.004 C
HETATM    5  C4  UNL     1      55.785  27.539  22.145  1.00  0.00     0.027 C
HETATM    6  C5  UNL     1      54.445  28.145  22.387  1.00  0.00     0.233 C
HETATM    7  N1  UNL     1      53.933  28.650  21.144  1.00  0.00    -0.061 N
ATOM      8  H11 UNL     1      53.927  27.961  20.391  1.00  0.00     0.278 HD
ATOM      9  H12 UNL     1      52.928  28.824  21.152  1.00  0.00     0.278 HD
ENDROOT
TORSDOF 0
ENDMDL