MODEL 5
REMARK VINA RESULT: -3.678038332      2.300      3.245
REMARK  0 active torsions:
REMARK  status: ('A' for Active; 'I' for Inactive)
ROOT
HETATM    1  S1  UNL     1      54.066  30.393  20.057  1.00  0.00    -0.062 SA
HETATM    2  C1  UNL     1      55.247  29.583  21.174  1.00  0.00     0.257 C
HETATM    3  C2  UNL     1      54.639  28.365  21.833  1.00  0.00     0.046 C
HETATM    4  C3  UNL     1      55.900  27.629  22.262  1.00  0.00     0.030 C
HETATM    5  C4  UNL     1      56.802  27.853  21.093  1.00  0.00     0.233 C
HETATM    6  N1  UNL     1      56.256  28.952  20.319  1.00  0.00    -0.061 N
ATOM      7  H11 UNL     1      56.965  29.602  19.977  1.00  0.00     0.278 HD
ATOM      8  H12 UNL     1      55.899  28.670  19.407  1.00  0.00     0.278 HD
ENDROOT
TORSDOF 0
ENDMDL