MODEL 5
REMARK VINA RESULT: -4.740887612      1.043      1.511
REMARK  1 active torsions:
REMARK  status: ('A' for Active; 'I' for Inactive)
REMARK    1  A    between atoms: N1_1  and  C1_5
ROOT
HETATM    1  C1  UNL     1      55.781  29.672  20.269  1.00  0.00     0.183 C
HETATM    2  C2  UNL     1      54.689  29.536  21.297  1.00  0.00     0.033 C
HETATM    3  C3  UNL     1      54.677  28.195  21.936  1.00  0.00     0.002 C
HETATM    4  C4  UNL     1      56.004  27.650  22.312  1.00  0.00     0.000 C
HETATM    5  C5  UNL     1      57.129  28.011  21.413  1.00  0.00     0.002 C
HETATM    6  C6  UNL     1      57.099  29.465  21.007  1.00  0.00     0.033 C
ENDROOT
BRANCH   1   7
HETATM    7  N1  UNL     1      55.747  30.941  19.613  1.00  0.00    -0.075 N
ATOM      8  H13 UNL     1      56.160  30.886  18.682  1.00  0.00     0.274 HD
ATOM      9  H12 UNL     1      54.795  31.197  19.353  1.00  0.00     0.274 HD
ATOM     10  H11 UNL     1      56.187  31.674  20.170  1.00  0.00     0.274 HD
ENDBRANCH   1   7
TORSDOF 1
ENDMDL