MODEL 1
REMARK VINA RESULT: -4.102714770      0.000      0.000
REMARK  2 active torsions:
REMARK  status: ('A' for Active; 'I' for Inactive)
REMARK    1  A    between atoms: C2_2  and  C4_4
REMARK    2  A    between atoms: C4_4  and  N1_6
ROOT
HETATM    1  C4  UNL     1      55.973  29.244  20.751  1.00  0.00     0.200 C
HETATM    2  C5  UNL     1      56.936  30.289  21.324  1.00  0.00     0.064 C
HETATM    3  S1  UNL     1      54.439  30.082  20.287  1.00  0.00    -0.051 SA
ENDROOT
BRANCH   1   4
HETATM    4  C2  UNL     1      55.726  28.235  21.799  1.00  0.00    -0.047 C
HETATM    5  C1  UNL     1      56.700  27.550  22.360  1.00  0.00     0.017 C
HETATM    6  C3  UNL     1      54.336  27.973  22.246  1.00  0.00     0.046 C
ENDBRANCH   1   4
BRANCH   1   7
HETATM    7  N1  UNL     1      56.591  28.710  19.577  1.00  0.00    -0.057 N
ATOM      8  H13 UNL     1      56.983  29.457  19.004  1.00  0.00     0.276 HD
ATOM      9  H12 UNL     1      57.448  28.212  19.815  1.00  0.00     0.276 HD
ATOM     10  H11 UNL     1      55.971  28.119  19.024  1.00  0.00     0.276 HD
ENDBRANCH   1   7
TORSDOF 2
ENDMDL