MODEL 2
REMARK VINA RESULT: -4.999505683      1.204      2.918
REMARK  0 active torsions:
REMARK  status: ('A' for Active; 'I' for Inactive)
ROOT
HETATM    1  C1  UNL     1      56.496  31.049  20.495  1.00  0.00     0.033 C
HETATM    2  C2  UNL     1      55.860  29.769  20.006  1.00  0.00     0.091 C
HETATM    3  C3  UNL     1      56.772  28.596  20.233  1.00  0.00     0.026 C
HETATM    4  C4  UNL     1      56.875  28.166  21.653  1.00  0.00     0.003 C
HETATM    5  C5  UNL     1      55.735  27.331  22.141  1.00  0.00     0.018 C
HETATM    6  C6  UNL     1      54.441  28.038  22.267  1.00  0.00     0.134 C
HETATM    7  N1  UNL     1      54.438  29.404  21.856  1.00  0.00    -0.146 NA
HETATM    8  N2  UNL     1      54.534  29.587  20.501  1.00  0.00    -0.335 N
ATOM      9  H2  UNL     1      53.717  29.592  19.890  1.00  0.00     0.176 HD
ENDROOT
TORSDOF 0
ENDMDL