MODEL 1
REMARK VINA RESULT: -4.821269987      0.000      0.000
REMARK  1 active torsions:
REMARK  status: ('A' for Active; 'I' for Inactive)
REMARK    1  A    between atoms: C2_3  and  N2_4
ROOT
HETATM    1  N1  UNL     1      53.322  31.167  19.344  1.00  0.00    -0.195 NA
HETATM    2  C1  UNL     1      54.094  30.540  19.936  1.00  0.00     0.098 C
HETATM    3  C2  UNL     1      55.080  29.752  20.693  1.00  0.00     0.210 C
HETATM    4  C3  UNL     1      56.161  30.599  21.264  1.00  0.00     0.054 C
HETATM    5  C4  UNL     1      57.467  29.891  20.938  1.00  0.00     0.004 C
HETATM    6  C5  UNL     1      57.117  29.277  19.579  1.00  0.00     0.004 C
HETATM    7  C6  UNL     1      55.744  28.726  19.788  1.00  0.00     0.054 C
ENDROOT
BRANCH   3   8
HETATM    8  N2  UNL     1      54.338  29.004  21.684  1.00  0.00    -0.057 N
ATOM      9  H23 UNL     1      54.089  29.556  22.505  1.00  0.00     0.276 HD
ATOM     10  H22 UNL     1      53.387  28.777  21.391  1.00  0.00     0.276 HD
ATOM     11  H21 UNL     1      54.897  28.180  21.907  1.00  0.00     0.276 HD
ENDBRANCH   3   8
TORSDOF 1
ENDMDL