MODEL 2
REMARK VINA RESULT: -5.376040707      0.925      1.108
REMARK  1 active torsions:
REMARK  status: ('A' for Active; 'I' for Inactive)
REMARK    1  A    between atoms: C1_4  and  C2_6
ROOT
HETATM    1  C2  UNL     1      55.545  29.620  21.153  1.00  0.00     0.050 C
HETATM    2  C3  UNL     1      54.776  28.452  21.788  1.00  0.00     0.012 C
HETATM    3  C4  UNL     1      55.867  27.530  22.268  1.00  0.00     0.001 C
HETATM    4  C5  UNL     1      57.168  28.042  21.690  1.00  0.00     0.001 C
HETATM    5  C6  UNL     1      56.689  28.857  20.505  1.00  0.00     0.012 C
ENDROOT
BRANCH   1   6
HETATM    6  C1  UNL     1      54.652  30.241  20.143  1.00  0.00     0.090 C
HETATM    7  N1  UNL     1      53.385  29.927  20.055  1.00  0.00    -0.391 N
ATOM      8  H12 UNL     1      52.771  30.354  19.362  1.00  0.00     0.157 HD
ATOM      9  H11 UNL     1      52.980  29.239  20.690  1.00  0.00     0.157 HD
HETATM   10  N2  UNL     1      55.212  31.193  19.266  1.00  0.00    -0.088 NA
ENDBRANCH   1   6
TORSDOF 1
ENDMDL