MODEL 1
REMARK VINA RESULT: -10.315379280      0.000      0.000
REMARK  7 active torsions:
REMARK  status: ('A' for Active; 'I' for Inactive)
REMARK    1  A    between atoms: C2_9  and  S1_10
REMARK    2  A    between atoms: S1_10  and  C3_11
REMARK    3  A    between atoms: C3_11  and  C4_12
REMARK    4  A    between atoms: C4_12  and  N5_13
REMARK    5  A    between atoms: C6_21  and  S2_22
REMARK    6  A    between atoms: C12_35  and  C13_36
REMARK    7  A    between atoms: C13_36  and  N11_37
ROOT
HETATM    1  N5  UNL     1      38.153   3.247 137.495  1.00  0.00    -0.165 N
HETATM    2  C5  UNL     1      37.059   2.855 138.225  1.00  0.00     0.701 A
HETATM    3  N6  UNL     1      36.446   3.662 138.968  1.00  0.00    -0.233 N
ATOM      4  H61 UNL     1      35.632   3.370 139.510  1.00  0.00     0.174 HD
ATOM      5  H62 UNL     1      36.784   4.624 139.009  1.00  0.00     0.174 HD
HETATM    6  N7  UNL     1      36.614   1.590 138.171  1.00  0.00    -0.083 N
HETATM    7  N8  UNL     1      35.572   1.024 138.800  1.00  0.00    -0.265 N
ATOM      8  H8  UNL     1      34.946   1.512 139.441  1.00  0.00     0.189 HD
HETATM    9  C6  UNL     1      35.469  -0.256 138.473  1.00  0.00     0.189 A
HETATM   10  C7  UNL     1      36.510  -0.555 137.570  1.00  0.00     0.117 A
HETATM   11  C8  UNL     1      36.618  -1.865 137.064  1.00  0.00     0.105 C
HETATM   12  N9  UNL     1      36.665  -2.954 136.673  1.00  0.00    -0.191 NA
HETATM   13  C9  UNL     1      37.180   0.616 137.424  1.00  0.00     0.118 A
HETATM   14  C10 UNL     1      38.283   0.968 136.678  1.00  0.00     0.108 A
HETATM   15  C11 UNL     1      38.938   0.062 135.925  1.00  0.00     0.263 A
HETATM   16  O4  UNL     1      38.656  -1.103 135.780  1.00  0.00    -0.267 OA
HETATM   17  N10 UNL     1      40.055   0.459 135.227  1.00  0.00    -0.311 N
ATOM     18  H10 UNL     1      40.553  -0.224 134.656  1.00  0.00     0.170 HD
HETATM   19  C12 UNL     1      40.500   1.700 135.276  1.00  0.00     0.114 A
HETATM   20  N12 UNL     1      39.850   2.606 136.022  1.00  0.00    -0.329 N
ATOM     21  H12 UNL     1      40.208   3.561 136.046  1.00  0.00     0.168 HD
HETATM   22  C20 UNL     1      38.731   2.313 136.752  1.00  0.00     0.143 A
ENDROOT
BRANCH   9  23
HETATM   23  S2  UNL     1      34.230  -1.353 139.085  1.00  0.00     0.157 S
HETATM   24  O1  UNL     1      33.316  -1.757 137.980  1.00  0.00    -0.590 OA
HETATM   25  O2  UNL     1      33.495  -0.636 140.184  1.00  0.00    -0.590 OA
HETATM   26  O3  UNL     1      34.938  -2.747 139.735  1.00  0.00    -0.590 OA
ENDBRANCH   9  23
BRANCH   1  27
HETATM   27  C4  UNL     1      38.598   4.599 137.618  1.00  0.00     0.160 C
BRANCH  27  28
HETATM   28  C3  UNL     1      39.509   4.902 138.753  1.00  0.00     0.103 C
BRANCH  28  29
HETATM   29  S1  UNL     1      41.252   4.939 138.533  1.00  0.00    -0.089 SA
BRANCH  29  30
HETATM   30  C2  UNL     1      41.943   6.445 137.936  1.00  0.00     0.178 A
HETATM   31  N1  UNL     1      43.098   6.984 138.412  1.00  0.00    -0.259 N
HETATM   32  C1  UNL     1      43.919   6.412 139.450  1.00  0.00     0.181 C
HETATM   33  N2  UNL     1      43.371   8.118 137.791  1.00  0.00    -0.224 N
HETATM   34  N3  UNL     1      42.397   8.305 136.921  1.00  0.00    -0.226 N
ATOM     35  H2  UNL     1      44.174   8.725 137.951  1.00  0.00     0.210 HD
HETATM   36  N4  UNL     1      41.534   7.289 137.013  1.00  0.00    -0.263 N
ATOM     37  H3  UNL     1      42.315   9.096 136.283  1.00  0.00     0.210 HD
ATOM     38  H4  UNL     1      40.688   7.184 136.454  1.00  0.00     0.190 HD
ENDBRANCH  29  30
ENDBRANCH  28  29
ENDBRANCH  27  28
ENDBRANCH   1  27
BRANCH  19  39
HETATM   39  C13 UNL     1      41.713   2.129 134.554  1.00  0.00     0.348 C
BRANCH  39  40
HETATM   40  N11 UNL     1      42.521   3.071 135.304  1.00  0.00     0.095 N
HETATM   41  C14 UNL     1      42.960   4.086 134.400  1.00  0.00     0.273 C
HETATM   42  C15 UNL     1      44.387   4.505 134.568  1.00  0.00     0.030 C
HETATM   43  C16 UNL     1      44.686   5.131 135.892  1.00  0.00     0.002 C
HETATM   44  C17 UNL     1      45.316   4.042 136.766  1.00  0.00     0.002 C
HETATM   45  C18 UNL     1      44.155   3.124 137.157  1.00  0.00     0.030 C
HETATM   46  C19 UNL     1      43.609   2.388 135.978  1.00  0.00     0.273 C
ENDBRANCH  39  40
ENDBRANCH  19  39
TORSDOF 7
ENDMDL