MODEL 3
REMARK VINA RESULT: -9.420478808      5.655      9.818
REMARK  7 active torsions:
REMARK  status: ('A' for Active; 'I' for Inactive)
REMARK    1  A    between atoms: O1_2  and  C2_3
REMARK    2  A    between atoms: C4_5  and  N1_6
REMARK    3  A    between atoms: N2_9  and  C7_10
REMARK    4  A    between atoms: C8_13  and  N4_14
REMARK    5  A    between atoms: C13_22  and  N6_23
REMARK    6  A    between atoms: C18_37  and  O3_38
REMARK    7  A    between atoms: C21_44  and  N13_45
ROOT
HETATM    1  N6  UNL     1      42.805   6.195 137.280  1.00  0.00     0.037 N
HETATM    2  C14 UNL     1      44.035   6.013 137.776  1.00  0.00     0.197 A
HETATM    3  C15 UNL     1      44.684   4.779 138.189  1.00  0.00     0.123 C
HETATM    4  N7  UNL     1      45.220   3.809 138.521  1.00  0.00    -0.190 NA
HETATM    5  C16 UNL     1      44.612   7.273 137.829  1.00  0.00     0.171 A
HETATM    6  N8  UNL     1      45.936   7.512 138.305  1.00  0.00    -0.079 NA
HETATM    7  N9  UNL     1      43.718   8.160 137.366  1.00  0.00    -0.175 N
ATOM      8  H9  UNL     1      43.870   9.165 137.289  1.00  0.00     0.185 HD
HETATM    9  C17 UNL     1      42.603   7.521 137.024  1.00  0.00     0.699 A
HETATM   10  N10 UNL     1      41.537   8.058 136.545  1.00  0.00    -0.233 N
ATOM     11 1H10 UNL     1      41.387   9.049 136.354  1.00  0.00     0.174 HD
ATOM     12 2H10 UNL     1      40.682   7.568 136.282  1.00  0.00     0.174 HD
ENDROOT
BRANCH   1  13
HETATM   13  C13 UNL     1      41.858   5.150 137.055  1.00  0.00     0.733 A
HETATM   14  N5  UNL     1      40.834   5.009 137.936  1.00  0.00    -0.020 N
HETATM   15  C8  UNL     1      39.892   4.071 137.855  1.00  0.00     0.709 A
ATOM     16  H5  UNL     1      40.782   5.668 138.714  1.00  0.00     0.203 HD
HETATM   17  N3  UNL     1      39.978   3.215 136.827  1.00  0.00    -0.021 N
HETATM   18  C7  UNL     1      40.990   3.322 135.920  1.00  0.00     0.712 A
ATOM     19  H3  UNL     1      39.281   2.478 136.722  1.00  0.00     0.203 HD
HETATM   20  N11 UNL     1      41.916   4.282 136.038  1.00  0.00    -0.020 N
ATOM     21  H11 UNL     1      42.668   4.352 135.352  1.00  0.00     0.203 HD
BRANCH  15  22
HETATM   22  N4  UNL     1      38.833   4.002 138.807  1.00  0.00    -0.213 N
HETATM   23  C9  UNL     1      38.797   4.841 139.997  1.00  0.00     0.167 C
HETATM   24  C10 UNL     1      37.862   4.208 141.032  1.00  0.00     0.188 C
HETATM   25  O2  UNL     1      36.642   4.054 140.414  1.00  0.00    -0.388 OA
HETATM   26  C11 UNL     1      36.713   2.970 139.558  1.00  0.00     0.188 C
HETATM   27  C12 UNL     1      37.758   3.045 138.505  1.00  0.00     0.167 C
ENDBRANCH  15  22
BRANCH  18  28
HETATM   28  N2  UNL     1      41.039   2.320 134.884  1.00  0.00    -0.179 N
HETATM   29  C6  UNL     1      42.132   2.310 133.962  1.00  0.00     0.165 C
HETATM   30  C5  UNL     1      42.225   1.003 133.206  1.00  0.00     0.154 C
HETATM   31  N1  UNL     1      40.937   0.555 132.743  1.00  0.00    -0.298 N
HETATM   32  C20 UNL     1      39.770   0.955 133.438  1.00  0.00     0.275 C
HETATM   33  C18 UNL     1      39.942   1.330 134.861  1.00  0.00     0.333 C
HETATM   34  O4  UNL     1      38.654   0.988 132.871  1.00  0.00    -0.268 OA
BRANCH  31  35
HETATM   35  C4  UNL     1      40.799  -0.288 131.607  1.00  0.00     0.130 A
HETATM   36  C3  UNL     1      41.081  -1.639 131.689  1.00  0.00     0.105 A
HETATM   37  C2  UNL     1      40.947  -2.469 130.577  1.00  0.00     0.160 A
HETATM   38  N14 UNL     1      40.537  -1.898 129.434  1.00  0.00    -0.170 N
HETATM   39  C21 UNL     1      40.257  -0.574 129.334  1.00  0.00     0.683 A
ATOM     40  H14 UNL     1      40.433  -2.483 128.606  1.00  0.00     0.186 HD
HETATM   41  N12 UNL     1      40.398   0.172 130.418  1.00  0.00    -0.176 N
ATOM     42  H12 UNL     1      40.185   1.167 130.341  1.00  0.00     0.186 HD
BRANCH  37  43
HETATM   43  O1  UNL     1      41.230  -3.833 130.665  1.00  0.00    -0.340 OA
HETATM   44  C1  UNL     1      41.768  -4.490 129.530  1.00  0.00     0.211 C
ENDBRANCH  37  43
BRANCH  39  45
HETATM   45  N13 UNL     1      39.819  -0.086 128.068  1.00  0.00    -0.226 N
HETATM   46  C22 UNL     1      40.295  -0.707 126.860  1.00  0.00     0.168 C
HETATM   47  C23 UNL     1      38.882   1.025 128.008  1.00  0.00     0.168 C
ENDBRANCH  39  45
ENDBRANCH  31  35
BRANCH  33  48
HETATM   48  O3  UNL     1      40.348   0.186 135.559  1.00  0.00    -0.362 OA
HETATM   49  C19 UNL     1      39.303  -0.722 135.702  1.00  0.00     0.204 C
ENDBRANCH  33  48
ENDBRANCH  18  28
ENDBRANCH   1  13
TORSDOF 7
ENDMDL