MODEL 1
REMARK VINA RESULT: -10.018298084      0.000      0.000
REMARK  9 active torsions:
REMARK  status: ('A' for Active; 'I' for Inactive)
REMARK    1  A    between atoms: S1_2  and  C2_3
REMARK    2  A    between atoms: C5_7  and  C6_8
REMARK    3  A    between atoms: C7_17  and  C8_18
REMARK    4  A    between atoms: C8_18  and  O2_21
REMARK    5  A    between atoms: N7_30  and  C14_31
REMARK    6  A    between atoms: C14_31  and  C15_32
REMARK       I    between atoms: N9_35  and  C16_36
REMARK    7  A    between atoms: C16_36  and  C17_38
REMARK    8  A    between atoms: C17_38  and  N10_39
REMARK    9  A    between atoms: C19_47  and  C20_48
ROOT
HETATM    1  C20 UNL     1      38.509  -4.041 133.054  1.00  0.00     0.184 C
HETATM    2  C21 UNL     1      38.646  -4.649 131.722  1.00  0.00     0.065 C
HETATM    3  N15 UNL     1      38.751  -5.127 130.697  1.00  0.00    -0.197 NA
ENDROOT
BRANCH   1   4
HETATM    4  C19 UNL     1      38.122  -2.602 132.887  1.00  0.00     0.066 A
HETATM    5  C15 UNL     1      38.125  -1.572 133.777  1.00  0.00     0.071 A
HETATM    6  N8  UNL     1      37.567  -0.505 133.101  1.00  0.00    -0.277 N
HETATM    7  N9  UNL     1      37.251  -0.867 131.883  1.00  0.00    -0.159 N
ATOM      8  H8  UNL     1      37.421   0.426 133.492  1.00  0.00     0.189 HD
HETATM    9  C16 UNL     1      36.675   0.000 130.918  1.00  0.00     0.277 C
HETATM   10  N14 UNL     1      37.573  -2.132 131.714  1.00  0.00    -0.278 N
HETATM   11  O3  UNL     1      36.469   1.194 131.203  1.00  0.00    -0.268 OA
ATOM     12  H14 UNL     1      37.439  -2.673 130.859  1.00  0.00     0.189 HD
BRANCH   5  13
HETATM   13  C14 UNL     1      38.676  -1.512 135.120  1.00  0.00     0.191 C
BRANCH  13  14
HETATM   14  N7  UNL     1      38.436  -0.367 135.928  1.00  0.00    -0.325 N
HETATM   15  C2  UNL     1      39.202   0.699 136.040  1.00  0.00     0.091 A
HETATM   16  C3  UNL     1      38.936   1.784 136.902  1.00  0.00     0.093 A
HETATM   17  C4  UNL     1      39.766   2.874 137.015  1.00  0.00     0.204 A
HETATM   18  C11 UNL     1      37.788   1.689 137.657  1.00  0.00     0.124 A
HETATM   19  O1  UNL     1      40.817   2.977 136.346  1.00  0.00    -0.286 OA
HETATM   20  C5  UNL     1      39.426   3.901 137.911  1.00  0.00     0.087 A
HETATM   21  C7  UNL     1      38.278   3.795 138.654  1.00  0.00     0.063 A
HETATM   22  N5  UNL     1      37.492   2.684 138.501  1.00  0.00    -0.342 N
ATOM     23  H5  UNL     1      36.641   2.612 139.058  1.00  0.00     0.167 HD
HETATM   24  N6  UNL     1      37.023   0.602 137.527  1.00  0.00    -0.331 N
HETATM   25  C12 UNL     1      37.293  -0.423 136.704  1.00  0.00     0.082 A
ATOM     26  H6  UNL     1      36.175   0.547 138.091  1.00  0.00     0.168 HD
HETATM   27  C13 UNL     1      36.345  -1.564 136.674  1.00  0.00     0.089 C
BRANCH  15  28
HETATM   28  S1  UNL     1      40.701   0.956 135.065  1.00  0.00    -0.115 SA
HETATM   29  C1  UNL     1      42.035  -0.150 135.657  1.00  0.00     0.097 C
ENDBRANCH  15  28
BRANCH  20  30
HETATM   30  C6  UNL     1      40.322   5.050 138.049  1.00  0.00     0.153 A
HETATM   31  N1  UNL     1      41.367   5.164 138.873  1.00  0.00    -0.268 N
HETATM   32  N2  UNL     1      41.867   6.362 138.653  1.00  0.00    -0.227 N
ATOM     33  H1  UNL     1      41.707   4.467 139.536  1.00  0.00     0.190 HD
HETATM   34  N3  UNL     1      41.173   6.988 137.727  1.00  0.00    -0.227 N
ATOM     35  H2  UNL     1      42.679   6.751 139.133  1.00  0.00     0.210 HD
HETATM   36  N4  UNL     1      40.214   6.175 137.351  1.00  0.00    -0.268 N
ATOM     37  H3  UNL     1      41.348   7.927 137.370  1.00  0.00     0.210 HD
ATOM     38  H4  UNL     1      39.507   6.374 136.644  1.00  0.00     0.190 HD
ENDBRANCH  20  30
BRANCH  21  39
HETATM   39  C8  UNL     1      37.854   4.854 139.590  1.00  0.00     0.094 C
HETATM   40  C9  UNL     1      36.537   5.501 139.240  1.00  0.00     0.052 C
HETATM   41  C10 UNL     1      37.617   4.185 140.961  1.00  0.00     0.052 C
BRANCH  39  42
HETATM   42  O2  UNL     1      38.823   5.840 139.793  1.00  0.00    -0.384 OA
ATOM     43  H2  UNL     1      38.798   6.223 140.662  1.00  0.00     0.211 HD
ENDBRANCH  39  42
ENDBRANCH  21  39
ENDBRANCH  13  14
ENDBRANCH   5  13
BRANCH   9  44
HETATM   44  C17 UNL     1      36.314  -0.496 129.571  1.00  0.00     0.253 C
BRANCH  44  45
HETATM   45  N10 UNL     1      34.966  -1.027 129.584  1.00  0.00    -0.263 N
HETATM   46  C18 UNL     1      34.092  -0.857 130.569  1.00  0.00     0.213 A
HETATM   47  N11 UNL     1      32.959  -1.509 130.208  1.00  0.00    -0.281 N
HETATM   48  N12 UNL     1      33.192  -2.052 129.009  1.00  0.00    -0.008 NA
ATOM     49  H11 UNL     1      32.096  -1.573 130.747  1.00  0.00     0.184 HD
HETATM   50  N13 UNL     1      34.429  -1.757 128.622  1.00  0.00    -0.005 NA
ENDBRANCH  44  45
ENDBRANCH   9  44
ENDBRANCH   1   4
TORSDOF 9
ENDMDL