MODEL 4
REMARK VINA RESULT: -7.449743680      5.611     10.565
REMARK  15 active torsions:
REMARK  status: ('A' for Active; 'I' for Inactive)
REMARK    1  A    between atoms: C2_2  and  O2_4
REMARK    2  A    between atoms: O2_4  and  C3_5
REMARK    3  A    between atoms: C5_8  and  O4_9
REMARK    4  A    between atoms: O4_9  and  C6_10
REMARK    5  A    between atoms: C7_11  and  O5_12
REMARK    6  A    between atoms: O5_12  and  C8_13
REMARK       I    between atoms: C8_13  and  N1_15
REMARK    7  A    between atoms: N1_15  and  O7_17
REMARK    8  A    between atoms: C11_20  and  O8_21
REMARK    9  A    between atoms: C12_23  and  O9_24
REMARK   10  A    between atoms: O9_24  and  C13_25
REMARK   11  A    between atoms: C15_28  and  O11_30
REMARK   12  A    between atoms: C17_32  and  O12_33
REMARK   13  A    between atoms: O12_33  and  C18_34
REMARK   14  A    between atoms: C20_37  and  O14_38
REMARK   15  A    between atoms: O14_38  and  C21_39
ROOT
HETATM    1  C6  UNL     1      38.332  -3.536 129.639  1.00  0.00     0.191 C
HETATM    2  C7  UNL     1      38.560  -4.426 130.851  1.00  0.00     0.168 C
HETATM    3  C10 UNL     1      38.049  -5.809 130.560  1.00  0.00     0.069 C
HETATM    4  C11 UNL     1      37.472  -5.985 129.206  1.00  0.00     0.153 C
HETATM    5  C12 UNL     1      38.284  -5.405 128.090  1.00  0.00     0.197 C
HETATM    6  C15 UNL     1      39.086  -4.197 128.504  1.00  0.00     0.112 C
HETATM    7  C16 UNL     1      40.490  -4.612 128.955  1.00  0.00     0.051 C
ENDROOT
BRANCH   1   8
HETATM    8  O4  UNL     1      38.711  -2.244 129.888  1.00  0.00    -0.348 OA
BRANCH   8   9
HETATM    9  C5  UNL     1      37.604  -1.435 129.987  1.00  0.00     0.292 C
HETATM   10  O3  UNL     1      38.040  -0.220 130.531  1.00  0.00    -0.356 OA
HETATM   11  C4  UNL     1      36.960   0.582 130.926  1.00  0.00     0.206 C
HETATM   12  C3  UNL     1      35.942   0.686 129.779  1.00  0.00     0.188 C
HETATM   13  C20 UNL     1      36.669   0.286 128.531  1.00  0.00     0.198 C
HETATM   14  C17 UNL     1      36.906  -1.227 128.658  1.00  0.00     0.219 C
BRANCH  12  15
HETATM   15  O2  UNL     1      35.392   1.962 129.737  1.00  0.00    -0.311 OA
BRANCH  15  16
HETATM   16  C2  UNL     1      34.515   2.344 130.740  1.00  0.00     0.255 C
HETATM   17  C1  UNL     1      34.690   3.582 131.535  1.00  0.00     0.126 C
HETATM   18  O1  UNL     1      33.535   1.625 130.992  1.00  0.00    -0.266 OA
ENDBRANCH  15  16
ENDBRANCH  12  15
BRANCH  13  19
HETATM   19  O14 UNL     1      36.067   0.636 127.345  1.00  0.00    -0.311 OA
BRANCH  19  20
HETATM   20  C21 UNL     1      36.701   0.511 126.137  1.00  0.00     0.255 C
HETATM   21  C22 UNL     1      36.158  -0.223 124.975  1.00  0.00     0.126 C
HETATM   22  O15 UNL     1      37.822   1.065 126.031  1.00  0.00    -0.266 OA
ENDBRANCH  19  20
ENDBRANCH  13  19
BRANCH  14  23
HETATM   23  O12 UNL     1      35.612  -1.788 128.774  1.00  0.00    -0.308 OA
BRANCH  23  24
HETATM   24  C18 UNL     1      34.916  -2.382 127.769  1.00  0.00     0.255 C
HETATM   25  C19 UNL     1      35.590  -3.370 126.898  1.00  0.00     0.126 C
HETATM   26  O13 UNL     1      33.712  -2.078 127.601  1.00  0.00    -0.266 OA
ENDBRANCH  23  24
ENDBRANCH  14  23
ENDBRANCH   8   9
ENDBRANCH   1   8
BRANCH   2  27
HETATM   27  O5  UNL     1      38.013  -3.879 132.027  1.00  0.00    -0.294 OA
BRANCH  27  28
HETATM   28  C8  UNL     1      38.813  -3.484 133.099  1.00  0.00     0.386 C
HETATM   29  O6  UNL     1      39.978  -3.110 132.811  1.00  0.00    -0.236 OA
HETATM   30  N1  UNL     1      38.355  -3.498 134.437  1.00  0.00    -0.209 N
HETATM   31  C9  UNL     1      39.250  -3.073 135.486  1.00  0.00     0.191 C
BRANCH  30  32
HETATM   32  O7  UNL     1      37.119  -3.890 134.795  1.00  0.00    -0.283 OA
ATOM     33  H7  UNL     1      36.910  -4.772 135.081  1.00  0.00     0.245 HD
ENDBRANCH  30  32
ENDBRANCH  27  28
ENDBRANCH   2  27
BRANCH   6  34
HETATM   34  O11 UNL     1      39.245  -3.392 127.404  1.00  0.00    -0.385 OA
ATOM     35  H11 UNL     1      40.010  -2.830 127.449  1.00  0.00     0.210 HD
ENDBRANCH   6  34
BRANCH   5  36
HETATM   36  O9  UNL     1      39.126  -6.357 127.466  1.00  0.00    -0.310 OA
BRANCH  36  37
HETATM   37  C13 UNL     1      39.241  -6.465 126.078  1.00  0.00     0.255 C
HETATM   38  C14 UNL     1      40.127  -7.459 125.421  1.00  0.00     0.126 C
HETATM   39  O10 UNL     1      38.571  -5.693 125.341  1.00  0.00    -0.266 OA
ENDBRANCH  36  37
ENDBRANCH   5  36
BRANCH   4  40
HETATM   40  O8  UNL     1      37.345  -7.356 128.950  1.00  0.00    -0.393 OA
ATOM     41  H8  UNL     1      36.552  -7.670 129.371  1.00  0.00     0.210 HD
ENDBRANCH   4  40
TORSDOF 15
ENDMDL