MODEL 2
REMARK VINA RESULT: -7.667449962      1.412      1.559
REMARK  14 active torsions:
REMARK  status: ('A' for Active; 'I' for Inactive)
REMARK    1  A    between atoms: O1_2  and  C2_3
REMARK    2  A    between atoms: C5_7  and  O3_8
REMARK    3  A    between atoms: O3_8  and  C6_9
REMARK    4  A    between atoms: C7_10  and  O4_11
REMARK    5  A    between atoms: C8_13  and  O5_14
REMARK    6  A    between atoms: C9_16  and  O6_17
REMARK    7  A    between atoms: C10_19  and  O7_20
REMARK    8  A    between atoms: O7_20  and  C11_21
REMARK    9  A    between atoms: C11_21  and  C12_23
REMARK   10  A    between atoms: N1_27  and  C14_28
REMARK   11  A    between atoms: N2_30  and  O9_32
REMARK   12  A    between atoms: C16_34  and  O10_35
REMARK   13  A    between atoms: C18_37  and  O11_38
REMARK   14  A    between atoms: O11_38  and  C19_39
ROOT
HETATM    1  C6  UNL     1      35.588  -0.957 128.293  1.00  0.00     0.187 C
HETATM    2  C7  UNL     1      34.865  -2.258 128.247  1.00  0.00     0.181 C
HETATM    3  C8  UNL     1      35.028  -2.902 126.890  1.00  0.00     0.180 C
HETATM    4  C9  UNL     1      36.430  -2.757 126.360  1.00  0.00     0.181 C
HETATM    5  C10 UNL     1      37.419  -2.405 127.449  1.00  0.00     0.194 C
HETATM    6  C16 UNL     1      37.058  -1.193 128.239  1.00  0.00     0.184 C
ENDROOT
BRANCH   5   7
HETATM    7  O7  UNL     1      38.685  -2.257 126.830  1.00  0.00    -0.308 OA
BRANCH   7   8
HETATM    8  C11 UNL     1      39.651  -3.275 126.865  1.00  0.00     0.293 C
HETATM    9  O8  UNL     1      39.843  -3.852 125.772  1.00  0.00    -0.262 OA
BRANCH   8  10
HETATM   10  C12 UNL     1      40.382  -3.651 128.056  1.00  0.00     0.259 C
HETATM   11  S1  UNL     1      42.085  -4.271 127.674  1.00  0.00    -0.060 SA
HETATM   12  S2  UNL     1      42.177  -5.474 129.483  1.00  0.00    -0.075 SA
HETATM   13  C13 UNL     1      40.495  -4.946 130.041  1.00  0.00     0.212 C
HETATM   14  N1  UNL     1      39.843  -4.825 128.711  1.00  0.00    -0.337 N
BRANCH  14  15
HETATM   15  C14 UNL     1      38.879  -5.752 128.251  1.00  0.00     0.097 C
HETATM   16  C15 UNL     1      37.495  -5.679 128.752  1.00  0.00     0.091 C
HETATM   17  N2  UNL     1      39.220  -6.639 127.396  1.00  0.00    -0.257 N
ATOM     18  H2  UNL     1      38.519  -7.304 127.070  1.00  0.00     0.195 HD
BRANCH  17  19
HETATM   19  O9  UNL     1      40.494  -6.728 126.903  1.00  0.00    -0.288 OA
ATOM     20  H9  UNL     1      41.197  -7.149 127.385  1.00  0.00     0.244 HD
ENDBRANCH  17  19
ENDBRANCH  14  15
ENDBRANCH   8  10
ENDBRANCH   7   8
ENDBRANCH   5   7
BRANCH   4  21
HETATM   21  O6  UNL     1      36.520  -1.848 125.308  1.00  0.00    -0.390 OA
ATOM     22  H6  UNL     1      37.244  -1.241 125.405  1.00  0.00     0.210 HD
ENDBRANCH   4  21
BRANCH   6  23
HETATM   23  O10 UNL     1      37.766  -0.072 127.796  1.00  0.00    -0.385 OA
HETATM   24  C17 UNL     1      38.796   0.255 128.674  1.00  0.00     0.202 C
ENDBRANCH   6  23
BRANCH   3  25
HETATM   25  O5  UNL     1      34.172  -2.253 126.002  1.00  0.00    -0.390 OA
ATOM     26  H5  UNL     1      33.404  -1.975 126.488  1.00  0.00     0.210 HD
ENDBRANCH   3  25
BRANCH   1  27
HETATM   27  O3  UNL     1      35.190  -0.146 129.341  1.00  0.00    -0.348 OA
BRANCH  27  28
HETATM   28  C5  UNL     1      36.012  -0.176 130.430  1.00  0.00     0.293 C
HETATM   29  O2  UNL     1      35.565  -1.087 131.417  1.00  0.00    -0.351 OA
HETATM   30  C3  UNL     1      36.214  -0.744 132.580  1.00  0.00     0.152 C
HETATM   31  C2  UNL     1      36.504   0.740 132.521  1.00  0.00     0.183 C
HETATM   32  C4  UNL     1      35.440  -1.049 133.829  1.00  0.00     0.042 C
HETATM   33  C18 UNL     1      35.851   1.125 131.195  1.00  0.00     0.218 C
BRANCH  31  34
HETATM   34  O1  UNL     1      37.861   0.904 132.383  1.00  0.00    -0.385 OA
HETATM   35  C1  UNL     1      38.549   0.756 133.588  1.00  0.00     0.202 C
ENDBRANCH  31  34
BRANCH  33  36
HETATM   36  O11 UNL     1      34.479   1.288 131.450  1.00  0.00    -0.309 OA
BRANCH  36  37
HETATM   37  C19 UNL     1      33.748   2.385 131.019  1.00  0.00     0.255 C
HETATM   38  C20 UNL     1      34.403   3.690 130.791  1.00  0.00     0.126 C
HETATM   39  O12 UNL     1      32.508   2.187 130.840  1.00  0.00    -0.266 OA
ENDBRANCH  36  37
ENDBRANCH  33  36
ENDBRANCH  27  28
ENDBRANCH   1  27
BRANCH   2  40
HETATM   40  O4  UNL     1      33.532  -2.064 128.555  1.00  0.00    -0.390 OA
ATOM     41  H4  UNL     1      33.323  -2.506 129.369  1.00  0.00     0.210 HD
ENDBRANCH   2  40
TORSDOF 14
ENDMDL