MODEL 3
REMARK VINA RESULT: -7.532734648      2.455      3.978
REMARK  14 active torsions:
REMARK  status: ('A' for Active; 'I' for Inactive)
REMARK    1  A    between atoms: C2_2  and  O2_4
REMARK    2  A    between atoms: O2_4  and  C3_5
REMARK    3  A    between atoms: C6_9  and  O4_10
REMARK    4  A    between atoms: O4_10  and  C7_11
REMARK    5  A    between atoms: C8_12  and  O5_13
REMARK    6  A    between atoms: O5_13  and  C9_14
REMARK    7  A    between atoms: C11_17  and  O7_18
REMARK    8  A    between atoms: O7_18  and  C12_19
REMARK    9  A    between atoms: C15_24  and  O9_26
REMARK   10  A    between atoms: C17_28  and  O10_29
REMARK   11  A    between atoms: O10_29  and  C18_30
REMARK   12  A    between atoms: C20_33  and  O12_34
REMARK   13  A    between atoms: C21_36  and  O13_37
REMARK   14  A    between atoms: O13_37  and  C22_38
ROOT
HETATM    1  C7  UNL     1      39.869  -2.602 127.935  1.00  0.00     0.189 C
HETATM    2  C8  UNL     1      40.428  -3.828 128.621  1.00  0.00     0.194 C
HETATM    3  C11 UNL     1      39.836  -5.088 128.035  1.00  0.00     0.181 C
HETATM    4  C14 UNL     1      39.857  -5.129 126.554  1.00  0.00     0.127 C
HETATM    5  S1  UNL     1      38.190  -5.513 125.887  1.00  0.00    -0.086 SA
HETATM    6  C15 UNL     1      40.387  -3.941 125.865  1.00  0.00     0.099 C
HETATM    7  C16 UNL     1      39.825  -3.947 124.438  1.00  0.00     0.050 C
HETATM    8  C17 UNL     1      40.083  -2.619 126.453  1.00  0.00     0.198 C
ENDROOT
BRANCH   1   9
HETATM    9  O4  UNL     1      40.448  -1.503 128.511  1.00  0.00    -0.348 OA
BRANCH   9  10
HETATM   10  C6  UNL     1      40.384  -1.478 129.902  1.00  0.00     0.292 C
HETATM   11  O3  UNL     1      39.089  -1.160 130.253  1.00  0.00    -0.351 OA
HETATM   12  C4  UNL     1      38.854  -1.049 131.592  1.00  0.00     0.152 C
HETATM   13  C3  UNL     1      40.033  -0.631 132.415  1.00  0.00     0.192 C
HETATM   14  C5  UNL     1      37.694  -0.106 131.814  1.00  0.00     0.042 C
HETATM   15  C21 UNL     1      41.023   0.210 131.645  1.00  0.00     0.197 C
HETATM   16  C20 UNL     1      41.405  -0.501 130.375  1.00  0.00     0.205 C
BRANCH  13  17
HETATM   17  O2  UNL     1      39.543   0.183 133.474  1.00  0.00    -0.311 OA
BRANCH  17  18
HETATM   18  C2  UNL     1      40.055   0.108 134.761  1.00  0.00     0.255 C
HETATM   19  C1  UNL     1      39.956   1.220 135.735  1.00  0.00     0.126 C
HETATM   20  O1  UNL     1      40.625  -0.964 135.088  1.00  0.00    -0.266 OA
ENDBRANCH  17  18
ENDBRANCH  13  17
BRANCH  15  21
HETATM   21  O13 UNL     1      40.453   1.451 131.274  1.00  0.00    -0.311 OA
BRANCH  21  22
HETATM   22  C22 UNL     1      41.020   2.679 131.589  1.00  0.00     0.255 C
HETATM   23  C23 UNL     1      41.799   2.880 132.848  1.00  0.00     0.126 C
HETATM   24  O14 UNL     1      40.842   3.614 130.758  1.00  0.00    -0.266 OA
ENDBRANCH  21  22
ENDBRANCH  15  21
BRANCH  16  25
HETATM   25  O12 UNL     1      42.587  -1.218 130.673  1.00  0.00    -0.388 OA
ATOM     26  H12 UNL     1      42.894  -0.932 131.525  1.00  0.00     0.210 HD
ENDBRANCH  16  25
ENDBRANCH   9  10
ENDBRANCH   1   9
BRANCH   2  27
HETATM   27  O5  UNL     1      41.816  -3.892 128.585  1.00  0.00    -0.311 OA
BRANCH  27  28
HETATM   28  C9  UNL     1      42.509  -4.592 129.558  1.00  0.00     0.255 C
HETATM   29  C10 UNL     1      43.185  -5.878 129.311  1.00  0.00     0.126 C
HETATM   30  O6  UNL     1      42.557  -4.083 130.724  1.00  0.00    -0.266 OA
ENDBRANCH  27  28
ENDBRANCH   2  27
BRANCH   8  31
HETATM   31  O10 UNL     1      41.170  -1.749 126.164  1.00  0.00    -0.310 OA
BRANCH  31  32
HETATM   32  C18 UNL     1      41.195  -0.907 125.087  1.00  0.00     0.255 C
HETATM   33  C19 UNL     1      42.190  -0.989 123.987  1.00  0.00     0.126 C
HETATM   34  O11 UNL     1      40.310  -0.001 125.035  1.00  0.00    -0.266 OA
ENDBRANCH  31  32
ENDBRANCH   8  31
BRANCH   3  35
HETATM   35  O7  UNL     1      38.474  -5.130 128.460  1.00  0.00    -0.312 OA
BRANCH  35  36
HETATM   36  C12 UNL     1      38.026  -5.946 129.479  1.00  0.00     0.255 C
HETATM   37  C13 UNL     1      38.401  -5.689 130.915  1.00  0.00     0.126 C
HETATM   38  O8  UNL     1      37.291  -6.916 129.169  1.00  0.00    -0.266 OA
ENDBRANCH  35  36
ENDBRANCH   3  35
BRANCH   6  39
HETATM   39  O9  UNL     1      41.786  -4.078 125.702  1.00  0.00    -0.386 OA
ATOM     40  H9  UNL     1      41.963  -4.734 125.039  1.00  0.00     0.210 HD
ENDBRANCH   6  39
TORSDOF 14
ENDMDL