MODEL 3
REMARK VINA RESULT: -9.382865661      3.795      5.071
REMARK  10 active torsions:
REMARK  status: ('A' for Active; 'I' for Inactive)
REMARK    1  A    between atoms: C2_2  and  O1_3
REMARK    2  A    between atoms: O1_3  and  C3_4
REMARK       I    between atoms: C3_4  and  N1_6
REMARK    3  A    between atoms: N1_6  and  S1_8
REMARK    4  A    between atoms: S1_8  and  C4_10
REMARK    5  A    between atoms: S1_8  and  C15_38
REMARK    6  A    between atoms: C4_10  and  C5_11
REMARK    7  A    between atoms: C5_11  and  N2_12
REMARK    8  A    between atoms: C7_20  and  N6_21
REMARK    9  A    between atoms: C10_24  and  N7_25
REMARK   10  A    between atoms: C13_34  and  N10_35
ROOT
HETATM    1  N2  UNL     1      40.747   0.334 134.991  1.00  0.00    -0.106 N
HETATM    2  N3  UNL     1      41.908  -0.208 134.693  1.00  0.00    -0.212 N
ATOM      3  H3  UNL     1      41.915  -1.154 134.312  1.00  0.00     0.209 HD
HETATM    4  N4  UNL     1      43.057   0.404 134.860  1.00  0.00    -0.114 N
ATOM      5  H4  UNL     1      43.934  -0.054 134.615  1.00  0.00     0.207 HD
HETATM    6  C6  UNL     1      43.046   1.667 135.372  1.00  0.00     0.749 A
HETATM    7  N5  UNL     1      44.007   2.544 135.661  1.00  0.00    -0.017 N
ATOM      8  H5  UNL     1      45.006   2.383 135.527  1.00  0.00     0.203 HD
HETATM    9  C7  UNL     1      43.468   3.668 136.152  1.00  0.00     0.710 A
HETATM   10  N8  UNL     1      42.146   3.461 136.159  1.00  0.00    -0.095 N
ATOM     11  H8  UNL     1      41.447   4.131 136.478  1.00  0.00     0.207 HD
HETATM   12  N9  UNL     1      41.886   2.260 135.690  1.00  0.00     0.107 N
HETATM   13  C13 UNL     1      40.751   1.605 135.504  1.00  0.00     0.732 A
ENDROOT
BRANCH   1  14
HETATM   14  C5  UNL     1      39.501  -0.361 134.777  1.00  0.00     0.183 C
BRANCH  14  15
HETATM   15  C4  UNL     1      39.274  -1.536 135.697  1.00  0.00     0.147 C
BRANCH  15  16
HETATM   16  S1  UNL     1      37.585  -2.296 135.337  1.00  0.00     0.080 S
HETATM   17  O3  UNL     1      36.777  -3.360 136.564  1.00  0.00    -0.243 OA
BRANCH  16  18
HETATM   18  N1  UNL     1      36.652  -1.723 133.773  1.00  0.00    -0.257 N
HETATM   19  C3  UNL     1      35.640  -0.778 133.881  1.00  0.00     0.372 C
HETATM   20  O2  UNL     1      35.315  -0.278 135.007  1.00  0.00    -0.238 OA
ATOM     21  H1  UNL     1      36.896  -2.110 132.862  1.00  0.00     0.181 HD
BRANCH  19  22
HETATM   22  O1  UNL     1      34.930  -0.322 132.779  1.00  0.00    -0.304 OA
BRANCH  22  23
HETATM   23  C2  UNL     1      35.307  -0.552 131.456  1.00  0.00     0.176 C
HETATM   24  C1  UNL     1      35.120   0.662 130.575  1.00  0.00     0.034 C
ENDBRANCH  22  23
ENDBRANCH  19  22
ENDBRANCH  16  18
BRANCH  16  25
HETATM   25  C15 UNL     1      38.184  -3.894 134.343  1.00  0.00     0.138 A
HETATM   26  N11 UNL     1      38.137  -4.233 133.053  1.00  0.00    -0.348 N
HETATM   27  C16 UNL     1      38.643  -5.389 132.739  1.00  0.00     0.036 A
ATOM     28  H11 UNL     1      37.726  -3.619 132.351  1.00  0.00     0.166 HD
HETATM   29  C17 UNL     1      38.690  -5.951 131.361  1.00  0.00     0.070 C
HETATM   30  C18 UNL     1      39.101  -5.940 133.918  1.00  0.00     0.092 A
HETATM   31  N12 UNL     1      39.715  -7.078 134.291  1.00  0.00    -0.309 N
HETATM   32  C19 UNL     1      38.821  -5.010 134.943  1.00  0.00     0.106 A
HETATM   33  S2  UNL     1      39.911  -6.912 135.946  1.00  0.00     0.068 SA
ATOM     34  H12 UNL     1      39.996  -7.862 133.702  1.00  0.00     0.176 HD
HETATM   35  N13 UNL     1      39.220  -5.403 136.192  1.00  0.00    -0.308 N
ATOM     36  H13 UNL     1      39.121  -4.894 137.071  1.00  0.00     0.176 HD
ENDBRANCH  16  25
ENDBRANCH  15  16
ENDBRANCH  14  15
ENDBRANCH   1  14
BRANCH  13  37
HETATM   37  N10 UNL     1      39.588   2.084 135.777  1.00  0.00    -0.227 N
HETATM   38  C14 UNL     1      39.111   2.300 137.120  1.00  0.00     0.165 C
ATOM     39  H10 UNL     1      38.971   2.325 135.000  1.00  0.00     0.177 HD
ENDBRANCH  13  37
BRANCH   9  40
HETATM   40  N6  UNL     1      44.191   4.818 136.568  1.00  0.00    -0.216 N
HETATM   41  C8  UNL     1      43.632   6.130 136.399  1.00  0.00     0.143 C
HETATM   42  C9  UNL     1      43.919   6.887 137.691  1.00  0.00     0.053 C
HETATM   43  C10 UNL     1      45.399   7.149 137.753  1.00  0.00     0.186 C
HETATM   44  C11 UNL     1      46.218   6.013 137.244  1.00  0.00     0.053 C
HETATM   45  C12 UNL     1      45.508   4.696 137.169  1.00  0.00     0.143 C
BRANCH  43  46
HETATM   46  N7  UNL     1      45.747   7.482 139.126  1.00  0.00    -0.075 N
ATOM     47  H73 UNL     1      44.936   7.494 139.744  1.00  0.00     0.274 HD
ATOM     48  H72 UNL     1      46.265   6.735 139.591  1.00  0.00     0.274 HD
ATOM     49  H71 UNL     1      46.252   8.367 139.124  1.00  0.00     0.274 HD
ENDBRANCH  43  46
ENDBRANCH   9  40
TORSDOF 10
ENDMDL