MODEL 1
REMARK VINA RESULT: -10.724482244      0.000      0.000
REMARK  7 active torsions:
REMARK  status: ('A' for Active; 'I' for Inactive)
REMARK    1  A    between atoms: C4_6  and  N2_7
REMARK    2  A    between atoms: N6_17  and  C7_18
REMARK    3  A    between atoms: N7_21  and  C10_22
REMARK    4  A    between atoms: C11_25  and  N9_26
REMARK    5  A    between atoms: C16_34  and  N11_35
REMARK    6  A    between atoms: C20_39  and  C21_40
REMARK    7  A    between atoms: C21_40  and  N12_41
ROOT
HETATM    1  C1  UNL     1      40.760  -9.741 135.839  1.00  0.00     0.019 C
HETATM    2  C2  UNL     1      40.381  -8.770 135.235  1.00  0.00    -0.057 C
HETATM    3  C3  UNL     1      39.939  -7.602 134.530  1.00  0.00     0.133 A
HETATM    4  N1  UNL     1      39.968  -7.603 133.187  1.00  0.00    -0.182 N
ATOM      5  H1  UNL     1      40.300  -8.425 132.682  1.00  0.00     0.185 HD
HETATM    6  C4  UNL     1      39.553  -6.503 132.504  1.00  0.00     0.678 A
HETATM    7  N3  UNL     1      39.103  -5.389 133.121  1.00  0.00    -0.173 N
ATOM      8  H3  UNL     1      38.800  -4.586 132.570  1.00  0.00     0.186 HD
HETATM    9  C5  UNL     1      39.057  -5.344 134.463  1.00  0.00     0.167 A
HETATM   10  C6  UNL     1      39.481  -6.466 135.162  1.00  0.00     0.128 A
HETATM   11  N4  UNL     1      39.332  -6.156 136.449  1.00  0.00    -0.278 N
ATOM     12  H4  UNL     1      39.554  -6.766 137.236  1.00  0.00     0.184 HD
HETATM   13  N5  UNL     1      38.851  -4.930 136.539  1.00  0.00    -0.018 NA
HETATM   14  N6  UNL     1      38.669  -4.400 135.340  1.00  0.00    -0.253 N
ENDROOT
BRANCH   6  15
HETATM   15  N2  UNL     1      39.597  -6.541 131.211  1.00  0.00    -0.234 N
ATOM     16  H22 UNL     1      38.858  -7.021 130.698  1.00  0.00     0.174 HD
ATOM     17  H21 UNL     1      40.381  -6.082 130.746  1.00  0.00     0.174 HD
ENDBRANCH   6  15
BRANCH  14  18
HETATM   18  C7  UNL     1      38.150  -3.057 135.042  1.00  0.00     0.111 C
HETATM   19  C8  UNL     1      37.434  -2.595 136.276  1.00  0.00     0.047 C
HETATM   20  C9  UNL     1      37.343  -1.095 136.390  1.00  0.00     0.143 C
HETATM   21  N7  UNL     1      38.667  -0.525 136.256  1.00  0.00    -0.216 N
HETATM   22  C23 UNL     1      39.755  -1.407 135.895  1.00  0.00     0.143 C
HETATM   23  C24 UNL     1      39.329  -2.190 134.677  1.00  0.00     0.047 C
BRANCH  21  24
HETATM   24  C10 UNL     1      38.949   0.845 136.466  1.00  0.00     0.709 A
HETATM   25  N8  UNL     1      38.109   1.646 137.185  1.00  0.00    -0.021 N
HETATM   26  C11 UNL     1      38.343   2.942 137.397  1.00  0.00     0.709 A
ATOM     27  H8  UNL     1      37.263   1.234 137.579  1.00  0.00     0.203 HD
HETATM   28  N10 UNL     1      39.461   3.463 136.869  1.00  0.00    -0.021 N
HETATM   29  C16 UNL     1      40.333   2.711 136.143  1.00  0.00     0.709 A
ATOM     30  H10 UNL     1      39.664   4.451 137.017  1.00  0.00     0.203 HD
HETATM   31  N16 UNL     1      40.058   1.407 135.955  1.00  0.00    -0.021 N
ATOM     32  H16 UNL     1      40.705   0.833 135.413  1.00  0.00     0.203 HD
BRANCH  26  33
HETATM   33  N9  UNL     1      37.424   3.706 138.159  1.00  0.00    -0.213 N
HETATM   34  C12 UNL     1      36.429   3.044 138.975  1.00  0.00     0.167 C
HETATM   35  C13 UNL     1      36.469   3.596 140.383  1.00  0.00     0.188 C
HETATM   36  O1  UNL     1      36.835   4.924 140.436  1.00  0.00    -0.388 OA
HETATM   37  C14 UNL     1      36.525   5.622 139.263  1.00  0.00     0.188 C
HETATM   38  C15 UNL     1      37.445   5.155 138.150  1.00  0.00     0.167 C
ENDBRANCH  26  33
BRANCH  29  39
HETATM   39  N11 UNL     1      41.525   3.286 135.589  1.00  0.00    -0.210 N
HETATM   40  C17 UNL     1      42.309   2.665 134.574  1.00  0.00     0.142 C
HETATM   41  C18 UNL     1      43.325   3.699 134.171  1.00  0.00     0.022 C
HETATM   42  C19 UNL     1      42.979   4.954 134.885  1.00  0.00     0.029 C
HETATM   43  C20 UNL     1      42.079   4.532 135.982  1.00  0.00     0.122 C
BRANCH  43  44
HETATM   44  C21 UNL     1      42.742   4.511 137.343  1.00  0.00     0.177 C
BRANCH  44  45
HETATM   45  N12 UNL     1      42.824   5.773 137.998  1.00  0.00    -0.269 N
HETATM   46  C22 UNL     1      43.800   6.112 138.849  1.00  0.00     0.219 A
HETATM   47  N13 UNL     1      43.548   7.361 139.266  1.00  0.00    -0.279 N
HETATM   48  N14 UNL     1      42.441   7.747 138.670  1.00  0.00    -0.227 N
ATOM     49  H13 UNL     1      44.107   7.908 139.921  1.00  0.00     0.189 HD
HETATM   50  N15 UNL     1      41.999   6.783 137.898  1.00  0.00    -0.225 N
ATOM     51  H14 UNL     1      41.995   8.657 138.789  1.00  0.00     0.210 HD
ATOM     52  H15 UNL     1      41.159   6.815 137.321  1.00  0.00     0.210 HD
ENDBRANCH  44  45
ENDBRANCH  43  44
ENDBRANCH  29  39
ENDBRANCH  21  24
ENDBRANCH  14  18
TORSDOF 7
ENDMDL