MODEL 4
REMARK VINA RESULT: -6.790732153      8.707     12.611
REMARK  16 active torsions:
REMARK  status: ('A' for Active; 'I' for Inactive)
REMARK    1  A    between atoms: O1_2  and  C2_3
REMARK    2  A    between atoms: C2_3  and  C3_5
REMARK    3  A    between atoms: C4_6  and  O3_7
REMARK    4  A    between atoms: C5_9  and  O4_10
REMARK    5  A    between atoms: O4_10  and  C6_11
REMARK    6  A    between atoms: C6_11  and  O6_13
REMARK    7  A    between atoms: O6_13  and  C7_14
REMARK    8  A    between atoms: C7_14  and  C10_17
REMARK    9  A    between atoms: C10_17  and  N1_18
REMARK   10  A    between atoms: C11_21  and  N3_22
REMARK   11  A    between atoms: C13_28  and  C14_29
REMARK   12  A    between atoms: C14_29  and  O9_31
REMARK   13  A    between atoms: C16_33  and  O10_34
REMARK   14  A    between atoms: O10_34  and  C17_35
REMARK   15  A    between atoms: C19_38  and  O12_39
REMARK   16  A    between atoms: O12_39  and  C20_40
ROOT
HETATM    1  C3  UNL     1      43.350   3.251 135.458  1.00  0.00     0.149 C
HETATM    2  C4  UNL     1      42.016   3.842 135.037  1.00  0.00     0.165 C
HETATM    3  C5  UNL     1      41.028   3.394 136.067  1.00  0.00     0.180 C
HETATM    4  C13 UNL     1      41.448   3.855 137.417  1.00  0.00     0.149 C
HETATM    5  C16 UNL     1      42.745   4.540 137.527  1.00  0.00     0.178 C
HETATM    6  C19 UNL     1      43.867   3.912 136.713  1.00  0.00     0.178 C
ENDROOT
BRANCH   3   7
HETATM    7  O4  UNL     1      40.646   2.063 135.956  1.00  0.00    -0.289 OA
BRANCH   7   8
HETATM    8  C6  UNL     1      39.379   1.549 136.099  1.00  0.00     0.407 C
HETATM    9  O5  UNL     1      38.781   1.792 137.167  1.00  0.00    -0.229 OA
BRANCH   8  10
HETATM   10  O6  UNL     1      38.724   0.795 135.165  1.00  0.00    -0.286 OA
BRANCH  10  11
HETATM   11  C7  UNL     1      38.839  -0.565 134.938  1.00  0.00     0.084 C
HETATM   12  C8  UNL     1      37.657  -0.888 133.993  1.00  0.00     0.048 C
HETATM   13  C9  UNL     1      38.539  -1.392 136.197  1.00  0.00     0.048 C
BRANCH  11  14
HETATM   14  C10 UNL     1      40.112  -1.083 134.396  1.00  0.00     0.191 C
BRANCH  14  15
HETATM   15  N1  UNL     1      40.480  -0.578 133.055  1.00  0.00    -0.247 N
HETATM   16  N2  UNL     1      40.582   0.685 132.806  1.00  0.00    -0.274 N
HETATM   17  C11 UNL     1      40.919   1.068 131.574  1.00  0.00     0.162 A
ATOM     18  H2  UNL     1      40.408   1.375 133.537  1.00  0.00     0.189 HD
HETATM   19  S1  UNL     1      41.094  -0.411 130.757  1.00  0.00     0.010 SA
HETATM   20  C12 UNL     1      40.718  -1.439 132.066  1.00  0.00     0.308 A
HETATM   21  O7  UNL     1      40.673  -2.726 132.109  1.00  0.00    -0.258 OA
BRANCH  17  22
HETATM   22  N3  UNL     1      41.079   2.288 131.105  1.00  0.00    -0.378 N
ATOM     23  H32 UNL     1      40.592   2.740 130.331  1.00  0.00     0.158 HD
ATOM     24  H31 UNL     1      41.722   3.015 131.420  1.00  0.00     0.158 HD
ENDBRANCH  17  22
ENDBRANCH  14  15
ENDBRANCH  11  14
ENDBRANCH  10  11
ENDBRANCH   8  10
ENDBRANCH   7   8
ENDBRANCH   3   7
BRANCH   2  25
HETATM   25  O3  UNL     1      41.745   3.404 133.756  1.00  0.00    -0.392 OA
ATOM     26  H3  UNL     1      40.991   2.827 133.799  1.00  0.00     0.210 HD
ENDBRANCH   2  25
BRANCH   4  27
HETATM   27  C14 UNL     1      40.336   4.605 138.040  1.00  0.00     0.267 C
HETATM   28  O8  UNL     1      40.191   4.848 139.241  1.00  0.00    -0.265 OA
BRANCH  27  29
HETATM   29  O9  UNL     1      39.333   5.098 137.176  1.00  0.00    -0.326 OA
HETATM   30  C15 UNL     1      37.996   5.178 137.627  1.00  0.00     0.213 C
ENDBRANCH  27  29
ENDBRANCH   4  27
BRANCH   1  31
HETATM   31  C2  UNL     1      43.283   1.792 135.603  1.00  0.00     0.267 C
HETATM   32  O2  UNL     1      42.952   1.055 134.651  1.00  0.00    -0.265 OA
BRANCH  31  33
HETATM   33  O1  UNL     1      43.588   1.189 136.814  1.00  0.00    -0.326 OA
HETATM   34  C1  UNL     1      44.271  -0.069 136.859  1.00  0.00     0.213 C
ENDBRANCH  31  33
ENDBRANCH   1  31
BRANCH   5  35
HETATM   35  O10 UNL     1      42.751   5.945 137.421  1.00  0.00    -0.313 OA
BRANCH  35  36
HETATM   36  C17 UNL     1      43.022   6.851 138.387  1.00  0.00     0.255 C
HETATM   37  C18 UNL     1      43.847   6.495 139.555  1.00  0.00     0.126 C
HETATM   38  O11 UNL     1      42.565   7.985 138.271  1.00  0.00    -0.266 OA
ENDBRANCH  35  36
ENDBRANCH   5  35
BRANCH   6  39
HETATM   39  O12 UNL     1      44.826   4.866 136.319  1.00  0.00    -0.313 OA
BRANCH  39  40
HETATM   40  C20 UNL     1      46.017   5.115 136.928  1.00  0.00     0.255 C
HETATM   41  C21 UNL     1      46.893   4.026 137.473  1.00  0.00     0.126 C
HETATM   42  O13 UNL     1      46.389   6.320 137.030  1.00  0.00    -0.266 OA
ENDBRANCH  39  40
ENDBRANCH   6  39
TORSDOF 16
ENDMDL