MODEL 2
REMARK VINA RESULT: -7.002018347      2.269      7.074
REMARK  16 active torsions:
REMARK  status: ('A' for Active; 'I' for Inactive)
REMARK    1  A    between atoms: S1_2  and  C2_3
REMARK    2  A    between atoms: C3_5  and  O2_6
REMARK    3  A    between atoms: C4_8  and  O3_9
REMARK    4  A    between atoms: C5_11  and  O4_12
REMARK    5  A    between atoms: C6_14  and  O5_15
REMARK    6  A    between atoms: O5_15  and  C7_16
REMARK    7  A    between atoms: C8_17  and  O6_18
REMARK    8  A    between atoms: O6_18  and  C9_19
REMARK    9  A    between atoms: C11_22  and  O8_23
REMARK   10  A    between atoms: O8_23  and  C12_24
REMARK   11  A    between atoms: C14_27  and  O10_28
REMARK   12  A    between atoms: O10_28  and  C15_29
REMARK   13  A    between atoms: C17_32  and  O12_33
REMARK   14  A    between atoms: O12_33  and  C18_34
REMARK   15  A    between atoms: C20_37  and  O14_38
REMARK   16  A    between atoms: O14_38  and  C21_39
ROOT
HETATM    1  C7  UNL     1      38.009  -1.527 129.009  1.00  0.00     0.186 C
HETATM    2  C8  UNL     1      37.364  -2.426 127.985  1.00  0.00     0.195 C
HETATM    3  C11 UNL     1      38.306  -3.548 127.597  1.00  0.00     0.196 C
HETATM    4  C14 UNL     1      39.452  -2.810 126.890  1.00  0.00     0.196 C
HETATM    5  C17 UNL     1      40.247  -2.190 128.007  1.00  0.00     0.196 C
HETATM    6  C20 UNL     1      39.479  -1.781 129.196  1.00  0.00     0.195 C
ENDROOT
BRANCH   1   7
HETATM    7  O5  UNL     1      37.309  -1.574 130.218  1.00  0.00    -0.369 OA
BRANCH   7   8
HETATM    8  C6  UNL     1      36.910  -0.372 130.707  1.00  0.00     0.192 C
HETATM    9  C2  UNL     1      36.510   0.654 129.699  1.00  0.00     0.217 C
HETATM   10  O1  UNL     1      35.125   0.893 129.712  1.00  0.00    -0.341 OA
HETATM   11  C3  UNL     1      34.733   1.498 130.906  1.00  0.00     0.289 C
HETATM   12  C4  UNL     1      35.189   0.716 132.100  1.00  0.00     0.204 C
HETATM   13  C5  UNL     1      35.695  -0.625 131.600  1.00  0.00     0.184 C
BRANCH   9  14
HETATM   14  S1  UNL     1      37.375   2.205 130.074  1.00  0.00    -0.139 SA
HETATM   15  C1  UNL     1      39.009   1.878 130.788  1.00  0.00     0.092 C
ENDBRANCH   9  14
BRANCH  11  16
HETATM   16  O2  UNL     1      33.342   1.529 130.913  1.00  0.00    -0.368 OA
ATOM     17  H2  UNL     1      33.083   2.426 131.087  1.00  0.00     0.212 HD
ENDBRANCH  11  16
BRANCH  12  18
HETATM   18  O3  UNL     1      36.175   1.330 132.843  1.00  0.00    -0.388 OA
ATOM     19  H3  UNL     1      36.055   1.270 133.783  1.00  0.00     0.210 HD
ENDBRANCH  12  18
BRANCH  13  20
HETATM   20  O4  UNL     1      34.671  -1.250 130.918  1.00  0.00    -0.390 OA
ATOM     21  H4  UNL     1      34.631  -2.157 131.201  1.00  0.00     0.210 HD
ENDBRANCH  13  20
ENDBRANCH   7   8
ENDBRANCH   1   7
BRANCH   2  22
HETATM   22  O6  UNL     1      36.094  -2.890 128.344  1.00  0.00    -0.311 OA
BRANCH  22  23
HETATM   23  C9  UNL     1      34.923  -2.495 127.710  1.00  0.00     0.255 C
HETATM   24  C10 UNL     1      34.880  -2.552 126.237  1.00  0.00     0.126 C
HETATM   25  O7  UNL     1      34.000  -2.122 128.448  1.00  0.00    -0.266 OA
ENDBRANCH  22  23
ENDBRANCH   2  22
BRANCH   6  26
HETATM   26  O14 UNL     1      39.726  -2.664 130.274  1.00  0.00    -0.311 OA
BRANCH  26  27
HETATM   27  C21 UNL     1      40.655  -2.454 131.269  1.00  0.00     0.255 C
HETATM   28  C22 UNL     1      40.355  -1.582 132.403  1.00  0.00     0.126 C
HETATM   29  O15 UNL     1      41.744  -3.045 131.136  1.00  0.00    -0.266 OA
ENDBRANCH  26  27
ENDBRANCH   6  26
BRANCH   3  30
HETATM   30  O8  UNL     1      37.716  -4.496 126.775  1.00  0.00    -0.311 OA
BRANCH  30  31
HETATM   31  C12 UNL     1      37.843  -5.844 127.071  1.00  0.00     0.255 C
HETATM   32  C13 UNL     1      37.227  -6.470 128.258  1.00  0.00     0.126 C
HETATM   33  O9  UNL     1      38.517  -6.597 126.301  1.00  0.00    -0.266 OA
ENDBRANCH  30  31
ENDBRANCH   3  30
BRANCH   5  34
HETATM   34  O12 UNL     1      40.882  -1.039 127.423  1.00  0.00    -0.311 OA
BRANCH  34  35
HETATM   35  C18 UNL     1      40.259  -0.181 126.566  1.00  0.00     0.255 C
HETATM   36  C19 UNL     1      39.207   0.789 126.975  1.00  0.00     0.126 C
HETATM   37  O13 UNL     1      40.604  -0.219 125.343  1.00  0.00    -0.266 OA
ENDBRANCH  34  35
ENDBRANCH   5  34
BRANCH   4  38
HETATM   38  O10 UNL     1      40.217  -3.671 126.094  1.00  0.00    -0.311 OA
BRANCH  38  39
HETATM   39  C15 UNL     1      40.361  -3.363 124.741  1.00  0.00     0.255 C
HETATM   40  C16 UNL     1      39.218  -3.189 123.820  1.00  0.00     0.126 C
HETATM   41  O11 UNL     1      41.523  -3.215 124.230  1.00  0.00    -0.266 OA
ENDBRANCH  38  39
ENDBRANCH   4  38
TORSDOF 16
ENDMDL