MODEL 1
REMARK VINA RESULT: -9.886188658      0.000      0.000
REMARK  11 active torsions:
REMARK  status: ('A' for Active; 'I' for Inactive)
REMARK    1  A    between atoms: C2_5  and  C3_6
REMARK    2  A    between atoms: C3_6  and  C4_7
REMARK    3  A    between atoms: C4_7  and  N2_8
REMARK    4  A    between atoms: C12_16  and  O1_17
REMARK    5  A    between atoms: C12_16  and  C13_19
REMARK    6  A    between atoms: C13_19  and  C14_20
REMARK    7  A    between atoms: C14_20  and  C15_21
REMARK    8  A    between atoms: C15_21  and  C16_22
REMARK    9  A    between atoms: C16_22  and  C17_23
REMARK   10  A    between atoms: N3_30  and  C24_31
REMARK   11  A    between atoms: C24_31  and  C25_32
ROOT
HETATM    1  N1  UNL     1      14.694  -8.032  24.656  1.00  0.00    -0.389 N
ATOM      2  H11 UNL     1      14.924  -7.495  25.492  1.00  0.00     0.157 HD
ATOM      3  H12 UNL     1      13.693  -8.227  24.669  1.00  0.00     0.157 HD
HETATM    4  C1  UNL     1      15.512  -8.399  23.747  1.00  0.00     0.080 C
HETATM    5  C2  UNL     1      15.172  -9.190  22.517  1.00  0.00     0.090 C
HETATM    6  C12 UNL     1      16.356  -8.903  21.682  1.00  0.00     0.084 C
HETATM    7  C23 UNL     1      17.457  -9.051  22.754  1.00  0.00     0.162 C
HETATM    8  N3  UNL     1      16.918  -8.125  23.730  1.00  0.00    -0.367 N
ENDROOT
BRANCH   6   9
HETATM    9  O1  UNL     1      16.490  -7.594  21.250  1.00  0.00    -0.387 OA
ATOM     10  H1  UNL     1      17.351  -7.347  20.934  1.00  0.00     0.210 HD
ENDBRANCH   6   9
BRANCH   6  11
HETATM   11  C13 UNL     1      16.606  -9.809  20.517  1.00  0.00     0.040 C
BRANCH  11  12
HETATM   12  C14 UNL     1      17.966 -10.395  20.466  1.00  0.00     0.003 C
BRANCH  12  13
HETATM   13  C15 UNL     1      18.003 -11.559  19.516  1.00  0.00     0.000 C
BRANCH  13  14
HETATM   14  C16 UNL     1      16.642 -11.851  19.003  1.00  0.00     0.004 C
BRANCH  14  15
HETATM   15  C17 UNL     1      16.612 -12.568  17.672  1.00  0.00    -0.014 C
HETATM   16  C18 UNL     1      16.906 -14.026  17.743  1.00  0.00     0.004 C
HETATM   17  C19 UNL     1      16.014 -14.736  16.738  1.00  0.00     0.000 C
HETATM   18  C20 UNL     1      16.122 -14.092  15.393  1.00  0.00     0.000 C
HETATM   19  C21 UNL     1      15.761 -12.635  15.414  1.00  0.00     0.000 C
HETATM   20  C22 UNL     1      15.383 -12.249  16.849  1.00  0.00     0.004 C
ENDBRANCH  14  15
ENDBRANCH  13  14
ENDBRANCH  12  13
ENDBRANCH  11  12
ENDBRANCH   6  11
BRANCH   5  21
HETATM   21  C3  UNL     1      13.834  -8.928  21.971  1.00  0.00     0.043 C
BRANCH  21  22
HETATM   22  C4  UNL     1      12.799  -9.975  22.134  1.00  0.00     0.238 C
BRANCH  22  23
HETATM   23  N2  UNL     1      11.449  -9.486  21.886  1.00  0.00    -0.067 N
HETATM   24  C5  UNL     1      11.382  -8.096  21.578  1.00  0.00     0.238 C
HETATM   25  C6  UNL     1      10.079  -7.861  20.811  1.00  0.00     0.032 C
HETATM   26  C7  UNL     1       9.060  -8.910  21.247  1.00  0.00    -0.010 C
HETATM   27  C8  UNL     1       9.210  -9.189  22.726  1.00  0.00     0.032 C
HETATM   28  C10 UNL     1       9.503 -10.200  20.543  1.00  0.00     0.032 C
HETATM   29  C9  UNL     1      10.590  -9.726  23.036  1.00  0.00     0.238 C
HETATM   30  C11 UNL     1      10.985 -10.292  20.739  1.00  0.00     0.238 C
ENDBRANCH  22  23
ENDBRANCH  21  22
ENDBRANCH   5  21
BRANCH   8  31
HETATM   31  C24 UNL     1      17.670  -7.166  24.480  1.00  0.00     0.128 C
BRANCH  31  32
HETATM   32  C25 UNL     1      18.624  -6.319  23.740  1.00  0.00     0.004 C
HETATM   33  C26 UNL     1      18.317  -4.834  23.758  1.00  0.00     0.006 C
HETATM   34  C27 UNL     1      19.504  -4.317  22.934  1.00  0.00     0.000 C
HETATM   35  C28 UNL     1      20.659  -5.146  23.407  1.00  0.00     0.000 C
HETATM   36  C29 UNL     1      20.052  -6.354  24.137  1.00  0.00     0.006 C
ENDBRANCH  31  32
ENDBRANCH   8  31
TORSDOF 11
ENDMDL