MODEL 4
REMARK VINA RESULT: -8.735424395      2.924      5.262
REMARK  10 active torsions:
REMARK  status: ('A' for Active; 'I' for Inactive)
REMARK    1  A    between atoms: C2_2  and  C3_3
REMARK    2  A    between atoms: C2_2  and  C20_22
REMARK    3  A    between atoms: C12_12  and  C13_13
REMARK    4  A    between atoms: C13_13  and  C14_14
REMARK    5  A    between atoms: C13_13  and  N1_16
REMARK    6  A    between atoms: C23_25  and  C25_27
REMARK       I    between atoms: C25_27  and  N2_29
REMARK    7  A    between atoms: N2_29  and  C26_31
REMARK    8  A    between atoms: C26_31  and  C27_32
REMARK    9  A    between atoms: C27_32  and  C28_33
REMARK   10  A    between atoms: C28_33  and  C29_34
ROOT
HETATM    1  C3  UNL     1      11.315  -6.580  23.046  1.00  0.00     0.018 C
HETATM    2  C4  UNL     1      11.376  -5.053  22.838  1.00  0.00     0.010 C
HETATM    3  C5  UNL     1      12.370  -4.578  23.895  1.00  0.00     0.006 C
HETATM    4  C6  UNL     1      12.964  -5.803  24.462  1.00  0.00    -0.005 C
HETATM    5  C7  UNL     1      12.735  -6.840  23.368  1.00  0.00    -0.002 C
HETATM    6  C8  UNL     1      13.053  -8.139  24.049  1.00  0.00     0.006 C
HETATM    7  C9  UNL     1      14.563  -8.155  24.225  1.00  0.00     0.011 C
HETATM    8  C10 UNL     1      15.035  -7.062  25.104  1.00  0.00    -0.031 C
HETATM    9  C11 UNL     1      14.660  -7.414  26.549  1.00  0.00     0.016 C
HETATM   10  C12 UNL     1      16.487  -6.722  24.947  1.00  0.00     0.039 C
HETATM   11  C17 UNL     1      16.480  -5.912  23.697  1.00  0.00     0.011 C
HETATM   12  C18 UNL     1      15.260  -4.975  23.885  1.00  0.00     0.006 C
HETATM   13  C19 UNL     1      14.403  -5.708  24.855  1.00  0.00    -0.001 C
ENDROOT
BRANCH   1  14
HETATM   14  C2  UNL     1      10.816  -7.203  21.810  1.00  0.00    -0.079 C
HETATM   15  C1  UNL     1      11.244  -6.827  20.604  1.00  0.00     0.015 C
BRANCH  14  16
HETATM   16  C20 UNL     1       9.816  -8.269  21.865  1.00  0.00     0.031 C
HETATM   17  C21 UNL     1       9.068  -8.555  20.557  1.00  0.00     0.011 C
HETATM   18  C22 UNL     1       8.948  -9.988  21.088  1.00  0.00     0.020 C
HETATM   19  C23 UNL     1      10.253  -9.691  21.846  1.00  0.00     0.044 C
HETATM   20  C24 UNL     1      10.164 -10.404  23.195  1.00  0.00     0.026 C
BRANCH  19  21
HETATM   21  C25 UNL     1      11.451 -10.058  21.133  1.00  0.00     0.226 C
HETATM   22  O1  UNL     1      11.497 -10.133  19.891  1.00  0.00    -0.273 OA
HETATM   23  N2  UNL     1      12.643 -10.351  21.854  1.00  0.00    -0.360 N
ATOM     24  H2  UNL     1      12.619 -10.296  22.873  1.00  0.00     0.162 HD
BRANCH  23  25
HETATM   25  C26 UNL     1      13.868 -10.719  21.227  1.00  0.00     0.122 C
BRANCH  25  26
HETATM   26  C27 UNL     1      14.854  -9.628  21.117  1.00  0.00     0.020 C
BRANCH  26  27
HETATM   27  C28 UNL     1      16.286  -9.913  21.315  1.00  0.00     0.001 C
BRANCH  27  28
HETATM   28  C29 UNL     1      17.108 -10.332  20.139  1.00  0.00    -0.004 C
HETATM   29  C30 UNL     1      18.588 -10.462  20.582  1.00  0.00     0.005 C
ENDBRANCH  27  28
ENDBRANCH  26  27
ENDBRANCH  25  26
ENDBRANCH  23  25
ENDBRANCH  19  21
ENDBRANCH  14  16
ENDBRANCH   1  14
BRANCH  10  30
HETATM   30  C13 UNL     1      17.482  -7.785  24.953  1.00  0.00    -0.014 C
BRANCH  30  31
HETATM   31  C14 UNL     1      18.288  -7.857  23.631  1.00  0.00     0.048 C
HETATM   32  C15 UNL     1      19.392  -8.909  23.859  1.00  0.00     0.011 C
ENDBRANCH  30  31
BRANCH  30  33
HETATM   33  N1  UNL     1      18.314  -8.051  26.047  1.00  0.00    -0.400 N
HETATM   34  C16 UNL     1      18.466  -7.113  27.099  1.00  0.00     0.145 C
ATOM     35  H1  UNL     1      18.819  -8.936  26.088  1.00  0.00     0.158 HD
ENDBRANCH  30  33
ENDBRANCH  10  30
TORSDOF 10
ENDMDL