MODEL 2
REMARK VINA RESULT: -9.475521116      2.160      7.801
REMARK  10 active torsions:
REMARK  status: ('A' for Active; 'I' for Inactive)
REMARK    1  A    between atoms: C2_2  and  C3_3
REMARK    2  A    between atoms: C3_3  and  C4_4
REMARK    3  A    between atoms: C4_4  and  C5_5
REMARK    4  A    between atoms: C5_5  and  N1_6
REMARK       I    between atoms: N1_6  and  C6_8
REMARK       I    between atoms: C6_8  and  N2_10
REMARK    5  A    between atoms: C13_17  and  C14_18
REMARK    6  A    between atoms: C14_18  and  C15_19
REMARK    7  A    between atoms: C15_19  and  C16_20
REMARK       I    between atoms: C16_20  and  N3_22
REMARK    8  A    between atoms: N3_22  and  C17_23
REMARK    9  A    between atoms: C17_23  and  C18_24
REMARK   10  A    between atoms: C18_24  and  C19_25
ROOT
HETATM    1  N1  UNL     1      10.249  -5.707  28.724  1.00  0.00    -0.343 N
ATOM      2  H1  UNL     1       9.317  -5.716  28.308  1.00  0.00     0.164 HD
HETATM    3  C6  UNL     1      11.311  -6.135  27.911  1.00  0.00     0.319 C
HETATM    4  O1  UNL     1      12.437  -6.085  28.556  1.00  0.00    -0.247 OA
HETATM    5  N2  UNL     1      11.324  -6.573  26.586  1.00  0.00    -0.320 N
HETATM    6  C7  UNL     1      10.277  -6.852  25.681  1.00  0.00     0.094 C
HETATM    7  C8  UNL     1       8.988  -7.400  26.261  1.00  0.00     0.026 C
HETATM    8  C9  UNL     1       9.204  -8.621  27.091  1.00  0.00     0.002 C
HETATM    9  C10 UNL     1       9.905  -9.635  26.205  1.00  0.00     0.001 C
HETATM   10  C11 UNL     1      10.046  -9.206  24.786  1.00  0.00     0.007 C
HETATM   11  C12 UNL     1      10.585  -7.827  24.567  1.00  0.00     0.013 C
HETATM   12  C13 UNL     1      11.968  -7.887  24.066  1.00  0.00    -0.006 C
HETATM   13  C25 UNL     1      12.710  -6.694  24.532  1.00  0.00     0.035 C
HETATM   14  C26 UNL     1      12.703  -6.674  26.026  1.00  0.00     0.030 C
HETATM   15  C27 UNL     1      13.421  -7.879  26.550  1.00  0.00     0.038 C
HETATM   16  C28 UNL     1      13.519  -5.430  26.398  1.00  0.00     0.038 C
ENDROOT
BRANCH  12  17
HETATM   17  C14 UNL     1      11.967  -7.915  22.539  1.00  0.00     0.015 C
BRANCH  17  18
HETATM   18  C15 UNL     1      10.757  -7.279  21.968  1.00  0.00     0.120 C
BRANCH  18  19
HETATM   19  C16 UNL     1      11.191  -6.359  20.807  1.00  0.00     0.290 C
HETATM   20  O2  UNL     1      11.097  -6.921  19.695  1.00  0.00    -0.257 OA
HETATM   21  N3  UNL     1      11.582  -5.147  21.115  1.00  0.00    -0.388 NA
BRANCH  21  22
HETATM   22  C17 UNL     1      12.000  -3.848  21.437  1.00  0.00     0.159 C
BRANCH  22  23
HETATM   23  C18 UNL     1      12.353  -3.691  22.879  1.00  0.00     0.064 C
BRANCH  23  24
HETATM   24  C19 UNL     1      11.371  -2.900  23.689  1.00  0.00    -0.009 C
HETATM   25  C20 UNL     1      11.115  -1.617  22.868  1.00  0.00     0.005 C
HETATM   26  C21 UNL     1      10.642  -0.550  23.822  1.00  0.00     0.000 C
HETATM   27  C22 UNL     1      11.866   0.005  24.545  1.00  0.00     0.000 C
HETATM   28  C23 UNL     1      12.836  -1.166  24.785  1.00  0.00     0.000 C
HETATM   29  C24 UNL     1      12.018  -2.437  24.985  1.00  0.00     0.005 C
ENDBRANCH  23  24
ENDBRANCH  22  23
ENDBRANCH  21  22
ENDBRANCH  18  19
ENDBRANCH  17  18
ENDBRANCH  12  17
BRANCH   1  30
HETATM   30  C5  UNL     1      10.352  -5.253  30.098  1.00  0.00     0.124 C
BRANCH  30  31
HETATM   31  C4  UNL     1       9.378  -5.934  31.027  1.00  0.00     0.020 C
BRANCH  31  32
HETATM   32  C3  UNL     1       9.396  -7.411  30.632  1.00  0.00     0.001 C
BRANCH  32  33
HETATM   33  C2  UNL     1       8.402  -8.225  31.397  1.00  0.00    -0.004 C
HETATM   34  C1  UNL     1       7.917  -9.352  30.521  1.00  0.00     0.005 C
ENDBRANCH  32  33
ENDBRANCH  31  32
ENDBRANCH  30  31
ENDBRANCH   1  30
TORSDOF 10
ENDMDL