MODEL 1
REMARK VINA RESULT: -10.116451966      0.000      0.000
REMARK  11 active torsions:
REMARK  status: ('A' for Active; 'I' for Inactive)
REMARK    1  A    between atoms: C2_5  and  C3_6
REMARK    2  A    between atoms: C3_6  and  C4_7
REMARK    3  A    between atoms: C4_7  and  C5_8
REMARK    4  A    between atoms: C5_8  and  C6_9
REMARK    5  A    between atoms: C6_9  and  O2_10
REMARK    6  A    between atoms: C12_17  and  C13_18
REMARK    7  A    between atoms: C14_19  and  C15_20
REMARK    8  A    between atoms: C15_20  and  C16_21
REMARK    9  A    between atoms: C17_22  and  C18_23
REMARK   10  A    between atoms: C18_23  and  C19_24
REMARK   11  A    between atoms: C20_25  and  C21_26
ROOT
HETATM    1  O1  UNL     1       8.939  -2.561  26.852  1.00  0.00    -0.273 OA
HETATM    2  C1  UNL     1      10.143  -2.857  26.687  1.00  0.00     0.222 C
HETATM    3  N1  UNL     1      10.866  -2.478  25.526  1.00  0.00    -0.356 N
ATOM      4  H1  UNL     1      10.406  -2.391  24.619  1.00  0.00     0.162 HD
HETATM    5  C2  UNL     1      12.277  -2.219  25.680  1.00  0.00     0.084 C
HETATM    6  C7  UNL     1      12.453  -1.732  27.093  1.00  0.00     0.030 C
HETATM    7  C8  UNL     1      12.168  -2.930  28.015  1.00  0.00     0.001 C
HETATM    8  C9  UNL     1      12.315  -2.394  29.411  1.00  0.00     0.010 C
HETATM    9  C10 UNL     1      11.601  -3.270  30.429  1.00  0.00    -0.013 C
HETATM   10  C11 UNL     1      11.894  -4.728  30.138  1.00  0.00     0.013 C
HETATM   11  C12 UNL     1      10.708  -5.303  29.476  1.00  0.00     0.013 C
HETATM   12  C28 UNL     1      10.051  -4.044  28.861  1.00  0.00     0.007 C
HETATM   13  C29 UNL     1      10.124  -3.129  30.058  1.00  0.00     0.011 C
HETATM   14  C30 UNL     1      10.907  -3.633  27.707  1.00  0.00     0.086 C
ENDROOT
BRANCH  11  15
HETATM   15  C13 UNL     1       9.732  -6.025  30.301  1.00  0.00    -0.025 C
HETATM   16  C14 UNL     1       9.648  -7.323  30.335  1.00  0.00    -0.027 C
BRANCH  16  17
HETATM   17  C15 UNL     1       8.597  -7.975  31.223  1.00  0.00     0.053 C
BRANCH  17  18
HETATM   18  C16 UNL     1       8.098  -9.171  30.572  1.00  0.00    -0.027 C
HETATM   19  C17 UNL     1       8.138  -9.654  29.382  1.00  0.00    -0.027 C
BRANCH  19  20
HETATM   20  C18 UNL     1       8.748  -9.139  28.160  1.00  0.00     0.053 C
BRANCH  20  21
HETATM   21  C19 UNL     1       9.077 -10.053  27.087  1.00  0.00    -0.027 C
HETATM   22  C20 UNL     1       9.702  -9.732  25.976  1.00  0.00    -0.026 C
BRANCH  22  23
HETATM   23  C21 UNL     1      10.169  -8.372  25.660  1.00  0.00     0.008 C
HETATM   24  C22 UNL     1      11.669  -8.319  25.963  1.00  0.00     0.008 C
HETATM   25  C23 UNL     1      12.023  -6.935  26.507  1.00  0.00     0.001 C
HETATM   26  C24 UNL     1      12.195  -5.974  25.337  1.00  0.00     0.000 C
HETATM   27  C25 UNL     1      10.953  -5.964  24.475  1.00  0.00     0.000 C
HETATM   28  C26 UNL     1      10.893  -7.174  23.578  1.00  0.00     0.001 C
HETATM   29  C27 UNL     1       9.965  -8.187  24.150  1.00  0.00     0.008 C
ENDBRANCH  22  23
ENDBRANCH  20  21
ENDBRANCH  19  20
ENDBRANCH  17  18
ENDBRANCH  16  17
ENDBRANCH  11  15
BRANCH   5  30
HETATM   30  C3  UNL     1      12.789  -1.345  24.635  1.00  0.00     0.025 C
BRANCH  30  31
HETATM   31  C4  UNL     1      12.539   0.085  24.578  1.00  0.00     0.004 C
BRANCH  31  32
HETATM   32  C5  UNL     1      11.348   0.498  23.767  1.00  0.00     0.026 C
BRANCH  32  33
HETATM   33  C6  UNL     1      11.828   1.635  22.826  1.00  0.00     0.164 C
BRANCH  33  34
HETATM   34  O2  UNL     1      12.811   2.336  23.511  1.00  0.00    -0.401 OA
ATOM     35  H2  UNL     1      12.454   3.195  23.703  1.00  0.00     0.209 HD
ENDBRANCH  33  34
ENDBRANCH  32  33
ENDBRANCH  31  32
ENDBRANCH  30  31
ENDBRANCH   5  30
TORSDOF 11
ENDMDL