MODEL 2
REMARK VINA RESULT: -8.946993795      3.264      5.936
REMARK  12 active torsions:
REMARK  status: ('A' for Active; 'I' for Inactive)
REMARK    1  A    between atoms: C2_2  and  C4_4
REMARK    2  A    between atoms: C11_11  and  N1_12
REMARK    3  A    between atoms: N1_12  and  C12_14
REMARK    4  A    between atoms: C12_14  and  C13_15
REMARK    5  A    between atoms: C12_14  and  C17_19
REMARK    6  A    between atoms: C13_15  and  C14_16
REMARK       I    between atoms: C17_19  and  N2_21
REMARK    7  A    between atoms: N2_21  and  C18_23
REMARK    8  A    between atoms: C18_23  and  C19_24
REMARK    9  A    between atoms: C19_24  and  C20_25
REMARK   10  A    between atoms: C20_25  and  C21_26
REMARK   11  A    between atoms: C21_26  and  C22_27
REMARK   12  A    between atoms: C23_28  and  C24_29
ROOT
HETATM    1  N1  UNL     1      14.131  -8.123  22.857  1.00  0.00    -0.404 N
ATOM      2  H1  UNL     1      13.749  -7.370  22.283  1.00  0.00     0.154 HD
ENDROOT
BRANCH   1   3
HETATM    3  C11 UNL     1      14.144  -7.999  24.225  1.00  0.00     0.085 C
HETATM    4  C10 UNL     1      15.302  -7.374  24.948  1.00  0.00     0.026 C
HETATM    5  C9  UNL     1      14.678  -6.292  25.872  1.00  0.00     0.008 C
HETATM    6  C8  UNL     1      13.550  -5.905  25.008  1.00  0.00     0.001 C
HETATM    7  C7  UNL     1      12.700  -4.790  25.307  1.00  0.00    -0.001 C
HETATM    8  C26 UNL     1      12.906  -7.263  24.790  1.00  0.00    -0.020 C
HETATM    9  C6  UNL     1      12.496  -4.171  26.608  1.00  0.00     0.006 C
HETATM   10  C30 UNL     1      11.250  -4.952  24.816  1.00  0.00    -0.033 C
HETATM   11  C5  UNL     1      11.302  -3.237  26.323  1.00  0.00     0.010 C
HETATM   12  C4  UNL     1      10.868  -3.514  24.903  1.00  0.00     0.022 C
HETATM   13  C29 UNL     1      11.356  -5.655  23.554  1.00  0.00     0.011 C
HETATM   14  C31 UNL     1      10.309  -5.609  25.787  1.00  0.00     0.016 C
HETATM   15  C28 UNL     1      11.805  -7.101  23.828  1.00  0.00     0.012 C
HETATM   16  C27 UNL     1      12.609  -7.994  26.060  1.00  0.00     0.018 C
BRANCH  12  17
HETATM   17  C2  UNL     1      11.347  -2.583  23.916  1.00  0.00    -0.088 C
HETATM   18  C1  UNL     1      11.214  -2.786  22.623  1.00  0.00     0.014 C
HETATM   19  C3  UNL     1      12.051  -1.324  24.322  1.00  0.00     0.043 C
ENDBRANCH  12  17
ENDBRANCH   1   3
BRANCH   1  20
HETATM   20  C12 UNL     1      14.647  -9.296  22.235  1.00  0.00     0.170 C
BRANCH  20  21
HETATM   21  C13 UNL     1      15.806  -9.058  21.365  1.00  0.00     0.038 C
BRANCH  21  22
HETATM   22  C14 UNL     1      17.116  -9.704  21.686  1.00  0.00    -0.020 C
HETATM   23  C15 UNL     1      17.813 -10.340  20.516  1.00  0.00     0.009 C
HETATM   24  C16 UNL     1      18.043  -8.977  22.579  1.00  0.00     0.009 C
ENDBRANCH  21  22
ENDBRANCH  20  21
BRANCH  20  25
HETATM   25  C17 UNL     1      13.540  -9.990  21.492  1.00  0.00     0.240 C
HETATM   26  O1  UNL     1      13.836 -10.996  20.802  1.00  0.00    -0.271 OA
HETATM   27  N2  UNL     1      12.206  -9.537  21.548  1.00  0.00    -0.359 N
ATOM     28  H2  UNL     1      11.990  -8.713  22.110  1.00  0.00     0.162 HD
BRANCH  27  29
HETATM   29  C18 UNL     1      11.131 -10.199  20.837  1.00  0.00     0.122 C
BRANCH  29  30
HETATM   30  C19 UNL     1      10.015  -9.225  20.482  1.00  0.00     0.021 C
BRANCH  30  31
HETATM   31  C20 UNL     1       9.450  -8.600  21.737  1.00  0.00     0.014 C
BRANCH  31  32
HETATM   32  C21 UNL     1       8.657  -9.648  22.470  1.00  0.00     0.094 C
BRANCH  32  33
HETATM   33  C22 UNL     1       9.033  -9.662  23.873  1.00  0.00    -0.107 C
HETATM   34  C23 UNL     1       9.328  -9.687  25.047  1.00  0.00    -0.107 C
BRANCH  34  35
HETATM   35  C24 UNL     1       9.665  -9.736  26.466  1.00  0.00     0.089 C
HETATM   36  C25 UNL     1       9.023  -8.566  27.175  1.00  0.00     0.018 C
ENDBRANCH  34  35
ENDBRANCH  32  33
ENDBRANCH  31  32
ENDBRANCH  30  31
ENDBRANCH  29  30
ENDBRANCH  27  29
ENDBRANCH  20  25
ENDBRANCH   1  20
TORSDOF 12
ENDMDL