MODEL 4
REMARK VINA RESULT: -8.894318589      1.546      5.040
REMARK  10 active torsions:
REMARK  status: ('A' for Active; 'I' for Inactive)
REMARK    1  A    between atoms: C2_2  and  C3_3
REMARK    2  A    between atoms: C3_3  and  C4_4
REMARK    3  A    between atoms: C4_4  and  C5_5
REMARK    4  A    between atoms: C5_5  and  N1_6
REMARK       I    between atoms: N1_6  and  C6_8
REMARK    5  A    between atoms: C6_8  and  C7_10
REMARK    6  A    between atoms: C7_10  and  C8_11
REMARK    7  A    between atoms: C7_10  and  C14_17
REMARK    8  A    between atoms: C8_11  and  C9_12
REMARK    9  A    between atoms: C9_12  and  C10_13
REMARK   10  A    between atoms: C10_13  and  C11_14
ROOT
HETATM    1  C14 UNL     1      12.036  -4.878  25.720  1.00  0.00     0.007 C
HETATM    2  C15 UNL     1      13.280  -5.695  25.661  1.00  0.00     0.007 C
HETATM    3  C16 UNL     1      12.665  -7.060  26.063  1.00  0.00     0.006 C
HETATM    4  C17 UNL     1      11.255  -7.034  25.507  1.00  0.00    -0.002 C
HETATM    5  C18 UNL     1      11.092  -8.205  24.623  1.00  0.00    -0.004 C
HETATM    6  C19 UNL     1       9.716  -8.838  24.645  1.00  0.00     0.007 C
HETATM    7  C20 UNL     1       9.482  -9.727  23.451  1.00  0.00     0.027 C
HETATM    8  C21 UNL     1      10.732 -10.299  22.871  1.00  0.00     0.102 C
HETATM    9  N2  UNL     1      10.537 -10.628  21.471  1.00  0.00    -0.354 N
ATOM     10  H2  UNL     1      10.346 -11.473  20.932  1.00  0.00     0.162 HD
HETATM   11  C22 UNL     1      10.730  -9.246  21.184  1.00  0.00     0.228 C
HETATM   12  O2  UNL     1      10.267  -8.543  20.248  1.00  0.00    -0.273 OA
HETATM   13  C23 UNL     1      11.588  -9.167  22.364  1.00  0.00     0.061 C
HETATM   14  C24 UNL     1      12.999  -9.705  22.092  1.00  0.00     0.028 C
HETATM   15  C25 UNL     1      11.563  -7.948  23.196  1.00  0.00     0.009 C
HETATM   16  C26 UNL     1      10.732  -6.828  22.680  1.00  0.00     0.007 C
HETATM   17  C27 UNL     1      11.183  -5.592  23.438  1.00  0.00     0.010 C
HETATM   18  C28 UNL     1      11.057  -5.677  24.904  1.00  0.00    -0.036 C
HETATM   19  C29 UNL     1       9.672  -5.109  25.264  1.00  0.00     0.016 C
ENDROOT
BRANCH   1  20
HETATM   20  C7  UNL     1      12.028  -3.456  25.697  1.00  0.00     0.082 C
BRANCH  20  21
HETATM   21  C6  UNL     1      11.916  -2.906  27.074  1.00  0.00     0.222 C
HETATM   22  N1  UNL     1      12.849  -3.171  28.082  1.00  0.00    -0.361 N
ATOM     23  H1  UNL     1      13.640  -3.778  27.867  1.00  0.00     0.162 HD
HETATM   24  O1  UNL     1      10.945  -2.174  27.347  1.00  0.00    -0.273 OA
BRANCH  22  25
HETATM   25  C5  UNL     1      12.740  -2.622  29.411  1.00  0.00     0.122 C
BRANCH  25  26
HETATM   26  C4  UNL     1      12.183  -3.635  30.347  1.00  0.00     0.020 C
BRANCH  26  27
HETATM   27  C3  UNL     1      11.835  -4.975  29.830  1.00  0.00     0.001 C
BRANCH  27  28
HETATM   28  C2  UNL     1      10.428  -5.264  29.489  1.00  0.00    -0.004 C
HETATM   29  C1  UNL     1      10.117  -6.657  29.066  1.00  0.00     0.005 C
ENDBRANCH  27  28
ENDBRANCH  26  27
ENDBRANCH  25  26
ENDBRANCH  22  25
ENDBRANCH  20  21
BRANCH  20  30
HETATM   30  C8  UNL     1      13.031  -2.671  24.942  1.00  0.00     0.014 C
BRANCH  30  31
HETATM   31  C9  UNL     1      12.498  -1.359  24.405  1.00  0.00     0.001 C
BRANCH  31  32
HETATM   32  C10 UNL     1      11.081  -1.571  23.848  1.00  0.00     0.004 C
BRANCH  32  33
HETATM   33  C11 UNL     1      11.142  -1.273  22.352  1.00  0.00    -0.023 C
HETATM   34  C12 UNL     1      11.026  -2.554  21.568  1.00  0.00     0.009 C
HETATM   35  C13 UNL     1      10.032  -0.340  21.962  1.00  0.00     0.009 C
ENDBRANCH  32  33
ENDBRANCH  31  32
ENDBRANCH  30  31
ENDBRANCH  20  30
ENDBRANCH   1  20
TORSDOF 10
ENDMDL