MODEL 3
REMARK VINA RESULT: -8.681227894      1.319      1.842
REMARK  10 active torsions:
REMARK  status: ('A' for Active; 'I' for Inactive)
REMARK    1  A    between atoms: C11_11  and  C12_12
REMARK    2  A    between atoms: C12_12  and  C13_13
REMARK    3  A    between atoms: C12_12  and  C17_20
REMARK    4  A    between atoms: C13_13  and  C14_14
REMARK    5  A    between atoms: C14_14  and  C15_15
REMARK    6  A    between atoms: C15_15  and  N1_16
REMARK       I    between atoms: C17_20  and  N2_22
REMARK    7  A    between atoms: N2_22  and  C18_24
REMARK    8  A    between atoms: C18_24  and  C19_25
REMARK    9  A    between atoms: C19_25  and  C20_26
REMARK   10  A    between atoms: C20_26  and  C21_27
ROOT
HETATM    1  C1  UNL     1      12.829   0.262  24.660  1.00  0.00     0.015 C
HETATM    2  C2  UNL     1      12.524  -0.856  25.308  1.00  0.00    -0.081 C
HETATM    3  C3  UNL     1      12.719  -1.114  26.734  1.00  0.00     0.034 C
HETATM    4  C4  UNL     1      11.923  -2.333  27.017  1.00  0.00     0.010 C
HETATM    5  C5  UNL     1      11.401  -2.860  25.697  1.00  0.00     0.002 C
HETATM    6  C6  UNL     1      11.591  -4.365  25.572  1.00  0.00    -0.005 C
HETATM    7  C7  UNL     1      10.371  -4.988  24.944  1.00  0.00     0.006 C
HETATM    8  C8  UNL     1      10.570  -5.417  23.532  1.00  0.00     0.010 C
HETATM    9  C9  UNL     1      11.741  -6.326  23.334  1.00  0.00    -0.036 C
HETATM   10  C10 UNL     1      12.039  -6.310  21.859  1.00  0.00     0.016 C
HETATM   11  C11 UNL     1      11.406  -7.676  23.882  1.00  0.00     0.007 C
HETATM   12  C23 UNL     1      12.777  -8.310  23.950  1.00  0.00     0.007 C
HETATM   13  C24 UNL     1      13.443  -7.226  24.816  1.00  0.00     0.006 C
HETATM   14  C25 UNL     1      12.961  -5.959  24.115  1.00  0.00    -0.002 C
HETATM   15  C26 UNL     1      12.891  -4.796  25.048  1.00  0.00    -0.005 C
HETATM   16  C27 UNL     1      13.768  -3.631  24.547  1.00  0.00     0.006 C
HETATM   17  C28 UNL     1      12.988  -2.634  23.755  1.00  0.00     0.014 C
HETATM   18  C29 UNL     1      11.918  -2.032  24.617  1.00  0.00    -0.017 C
HETATM   19  C30 UNL     1      10.841  -1.449  23.699  1.00  0.00     0.020 C
ENDROOT
BRANCH  11  20
HETATM   20  C12 UNL     1      10.305  -8.460  23.387  1.00  0.00     0.083 C
BRANCH  20  21
HETATM   21  C13 UNL     1      10.325  -9.225  22.150  1.00  0.00     0.016 C
BRANCH  21  22
HETATM   22  C14 UNL     1       9.417  -8.897  21.027  1.00  0.00     0.028 C
BRANCH  22  23
HETATM   23  C15 UNL     1       8.879 -10.238  20.454  1.00  0.00     0.231 C
BRANCH  23  24
HETATM   24  N1  UNL     1       8.041 -10.874  21.461  1.00  0.00    -0.079 N
HETATM   25  C16 UNL     1       6.650 -10.750  21.133  1.00  0.00     0.266 C
ATOM     26  H12 UNL     1       8.306 -11.848  21.608  1.00  0.00     0.276 HD
ATOM     27  H11 UNL     1       8.239 -10.514  22.394  1.00  0.00     0.276 HD
ENDBRANCH  23  24
ENDBRANCH  22  23
ENDBRANCH  21  22
ENDBRANCH  20  21
BRANCH  20  28
HETATM   28  C17 UNL     1       9.794  -9.335  24.520  1.00  0.00     0.222 C
HETATM   29  O1  UNL     1       9.363 -10.457  24.204  1.00  0.00    -0.273 OA
HETATM   30  N2  UNL     1       9.822  -8.866  25.852  1.00  0.00    -0.361 N
ATOM     31  H2  UNL     1      10.216  -7.934  25.977  1.00  0.00     0.162 HD
BRANCH  30  32
HETATM   32  C18 UNL     1       9.386  -9.499  27.035  1.00  0.00     0.122 C
BRANCH  32  33
HETATM   33  C19 UNL     1       8.866  -8.736  28.174  1.00  0.00     0.020 C
BRANCH  33  34
HETATM   34  C20 UNL     1       9.604  -7.600  28.742  1.00  0.00     0.001 C
BRANCH  34  35
HETATM   35  C21 UNL     1       9.509  -7.645  30.276  1.00  0.00    -0.004 C
HETATM   36  C22 UNL     1       8.496  -8.673  30.715  1.00  0.00     0.005 C
ENDBRANCH  34  35
ENDBRANCH  33  34
ENDBRANCH  32  33
ENDBRANCH  30  32
ENDBRANCH  20  28
ENDBRANCH  11  20
TORSDOF 10
ENDMDL