MODEL 4
REMARK VINA RESULT: -8.608873113      3.691      6.326
REMARK  10 active torsions:
REMARK  status: ('A' for Active; 'I' for Inactive)
REMARK    1  A    between atoms: C12_12  and  N1_13
REMARK       I    between atoms: N1_13  and  C13_15
REMARK    2  A    between atoms: C13_15  and  C14_17
REMARK    3  A    between atoms: C14_17  and  C15_18
REMARK    4  A    between atoms: C15_18  and  C16_19
REMARK    5  A    between atoms: C16_19  and  C17_20
REMARK    6  A    between atoms: C17_20  and  N2_21
REMARK    7  A    between atoms: N2_21  and  C19_23
REMARK    8  A    between atoms: C19_23  and  C20_24
REMARK    9  A    between atoms: C20_24  and  C21_25
REMARK   10  A    between atoms: C25_29  and  C26_30
ROOT
HETATM    1  C1  UNL     1      11.599  -5.578  28.582  1.00  0.00     0.102 C
HETATM    2  C2  UNL     1      11.728  -4.891  27.569  1.00  0.00    -0.153 C
HETATM    3  C3  UNL     1      11.831  -4.063  26.419  1.00  0.00    -0.014 C
HETATM    4  C4  UNL     1      12.674  -4.322  25.445  1.00  0.00    -0.046 C
HETATM    5  C5  UNL     1      12.646  -3.327  24.298  1.00  0.00    -0.011 C
HETATM    6  C6  UNL     1      13.342  -2.075  24.791  1.00  0.00     0.021 C
HETATM    7  C7  UNL     1      13.406  -3.790  23.089  1.00  0.00     0.015 C
HETATM    8  C8  UNL     1      14.743  -4.276  23.488  1.00  0.00     0.007 C
HETATM    9  C9  UNL     1      14.844  -5.186  24.597  1.00  0.00     0.000 C
HETATM   10  C10 UNL     1      15.331  -6.548  24.170  1.00  0.00     0.008 C
HETATM   11  C11 UNL     1      14.148  -7.437  24.256  1.00  0.00     0.027 C
HETATM   12  C12 UNL     1      12.960  -6.576  24.638  1.00  0.00     0.097 C
HETATM   13  C23 UNL     1      13.563  -5.431  25.439  1.00  0.00     0.005 C
HETATM   14  C24 UNL     1      14.126  -6.053  26.627  1.00  0.00     0.023 C
HETATM   15  C25 UNL     1      11.240  -3.021  23.939  1.00  0.00     0.026 C
HETATM   16  C29 UNL     1      10.312  -2.671  25.066  1.00  0.00     0.015 C
HETATM   17  C30 UNL     1      10.906  -2.891  26.405  1.00  0.00     0.048 C
ENDROOT
BRANCH  15  18
HETATM   18  C26 UNL     1      10.969  -2.032  22.892  1.00  0.00    -0.088 C
HETATM   19  C27 UNL     1      10.855  -2.126  21.602  1.00  0.00     0.014 C
HETATM   20  C28 UNL     1      10.804  -0.607  23.437  1.00  0.00     0.043 C
ENDBRANCH  15  18
BRANCH  12  21
HETATM   21  N1  UNL     1      11.991  -7.371  25.330  1.00  0.00    -0.355 N
HETATM   22  C13 UNL     1      10.579  -7.258  25.076  1.00  0.00     0.217 C
HETATM   23  O1  UNL     1      10.219  -6.425  24.211  1.00  0.00    -0.274 OA
ATOM     24  H1  UNL     1      12.313  -8.041  26.029  1.00  0.00     0.162 HD
BRANCH  22  25
HETATM   25  C14 UNL     1       9.550  -8.048  25.757  1.00  0.00     0.103 C
BRANCH  25  26
HETATM   26  C15 UNL     1       9.641  -9.514  25.483  1.00  0.00     0.011 C
BRANCH  26  27
HETATM   27  C16 UNL     1       9.147  -9.721  24.043  1.00  0.00     0.031 C
BRANCH  27  28
HETATM   28  C17 UNL     1      10.265 -10.344  23.272  1.00  0.00     0.271 C
BRANCH  28  29
HETATM   29  N2  UNL     1      10.432  -9.745  21.984  1.00  0.00     0.084 N
HETATM   30  C18 UNL     1      11.725  -9.074  21.911  1.00  0.00     0.309 C
BRANCH  29  31
HETATM   31  C19 UNL     1       9.348  -8.860  21.681  1.00  0.00     0.271 C
BRANCH  31  32
HETATM   32  C20 UNL     1       8.630  -9.237  20.400  1.00  0.00     0.030 C
BRANCH  32  33
HETATM   33  C21 UNL     1       8.117 -10.664  20.579  1.00  0.00    -0.003 C
HETATM   34  C22 UNL     1       6.694 -10.676  21.050  1.00  0.00     0.005 C
ENDBRANCH  32  33
ENDBRANCH  31  32
ENDBRANCH  29  31
ENDBRANCH  28  29
ENDBRANCH  27  28
ENDBRANCH  26  27
ENDBRANCH  25  26
ENDBRANCH  22  25
ENDBRANCH  12  21
TORSDOF 10
ENDMDL