MODEL 2
REMARK VINA RESULT: -8.846666026      0.521      1.308
REMARK  10 active torsions:
REMARK  status: ('A' for Active; 'I' for Inactive)
REMARK    1  A    between atoms: C2_2  and  N1_3
REMARK    2  A    between atoms: N1_3  and  C3_4
REMARK    3  A    between atoms: N1_3  and  C5_6
REMARK    4  A    between atoms: C5_6  and  C6_7
REMARK    5  A    between atoms: C6_7  and  C7_8
REMARK    6  A    between atoms: C7_8  and  C8_9
REMARK    7  A    between atoms: C8_9  and  N2_10
REMARK       I    between atoms: N2_10  and  C9_12
REMARK       I    between atoms: C9_12  and  N3_14
REMARK    8  A    between atoms: N3_14  and  C10_16
REMARK    9  A    between atoms: C21_27  and  C22_28
REMARK   10  A    between atoms: C22_28  and  C24_30
ROOT
HETATM    1  C10 UNL     1      11.082  -6.033  25.859  1.00  0.00     0.096 C
HETATM    2  C11 UNL     1      11.987  -4.853  26.273  1.00  0.00     0.036 C
HETATM    3  C12 UNL     1      12.559  -4.939  24.850  1.00  0.00    -0.029 C
HETATM    4  C13 UNL     1      11.870  -3.881  24.013  1.00  0.00     0.016 C
HETATM    5  C14 UNL     1      14.006  -4.736  24.887  1.00  0.00    -0.010 C
HETATM    6  C15 UNL     1      14.521  -4.072  23.621  1.00  0.00     0.011 C
HETATM    7  C16 UNL     1      14.867  -5.891  25.211  1.00  0.00     0.005 C
HETATM    8  C17 UNL     1      14.129  -7.118  25.649  1.00  0.00     0.006 C
HETATM    9  C18 UNL     1      12.930  -7.429  24.768  1.00  0.00    -0.003 C
HETATM   10  C19 UNL     1      13.399  -7.877  23.409  1.00  0.00     0.006 C
HETATM   11  C20 UNL     1      12.505  -8.701  22.605  1.00  0.00     0.005 C
HETATM   12  C21 UNL     1      11.155  -9.004  23.201  1.00  0.00    -0.010 C
HETATM   13  C27 UNL     1      10.402  -7.780  23.579  1.00  0.00     0.006 C
HETATM   14  C28 UNL     1      11.153  -6.488  23.440  1.00  0.00     0.013 C
HETATM   15  C29 UNL     1      11.985  -6.292  24.719  1.00  0.00    -0.009 C
ENDROOT
BRANCH   1  16
HETATM   16  N3  UNL     1      11.018  -6.932  26.961  1.00  0.00    -0.338 N
HETATM   17  C9  UNL     1       9.803  -7.628  27.219  1.00  0.00     0.316 C
HETATM   18  N2  UNL     1       9.658  -8.528  28.293  1.00  0.00    -0.343 N
HETATM   19  O1  UNL     1       8.830  -7.406  26.441  1.00  0.00    -0.247 OA
ATOM     20  H2  UNL     1      10.467  -8.683  28.895  1.00  0.00     0.164 HD
ATOM     21  H3  UNL     1      11.832  -7.076  27.559  1.00  0.00     0.164 HD
BRANCH  18  22
HETATM   22  C8  UNL     1       8.462  -9.237  28.598  1.00  0.00     0.124 C
BRANCH  22  23
HETATM   23  C7  UNL     1       8.173  -9.230  30.055  1.00  0.00     0.021 C
BRANCH  23  24
HETATM   24  C6  UNL     1       8.954  -8.281  30.895  1.00  0.00     0.032 C
BRANCH  24  25
HETATM   25  C5  UNL     1       8.231  -7.651  32.038  1.00  0.00     0.272 C
BRANCH  25  26
HETATM   26  N1  UNL     1       8.632  -6.335  32.399  1.00  0.00     0.087 N
BRANCH  26  27
HETATM   27  C2  UNL     1       7.670  -5.654  33.202  1.00  0.00     0.268 C
HETATM   28  C1  UNL     1       6.639  -6.565  33.842  1.00  0.00     0.037 C
ENDBRANCH  26  27
BRANCH  26  29
HETATM   29  C3  UNL     1       8.940  -5.567  31.229  1.00  0.00     0.268 C
HETATM   30  C4  UNL     1       9.233  -4.109  31.551  1.00  0.00     0.037 C
ENDBRANCH  26  29
ENDBRANCH  25  26
ENDBRANCH  24  25
ENDBRANCH  23  24
ENDBRANCH  22  23
ENDBRANCH  18  22
ENDBRANCH   1  16
BRANCH  12  31
HETATM   31  C22 UNL     1      10.405  -9.945  22.271  1.00  0.00    -0.011 C
HETATM   32  C23 UNL     1      11.246 -10.298  21.059  1.00  0.00     0.011 C
BRANCH  31  33
HETATM   33  C24 UNL     1       9.057  -9.427  21.886  1.00  0.00    -0.010 A
HETATM   34  C25 UNL     1       7.880 -10.376  21.877  1.00  0.00     0.005 A
HETATM   35  C26 UNL     1       8.357  -9.696  20.639  1.00  0.00     0.005 A
ENDBRANCH  31  33
ENDBRANCH  12  31
TORSDOF 10
ENDMDL