MODEL 1
REMARK VINA RESULT: -9.989921489      0.000      0.000
REMARK  10 active torsions:
REMARK  status: ('A' for Active; 'I' for Inactive)
REMARK    1  A    between atoms: C1_2  and  C2_4
REMARK    2  A    between atoms: C2_4  and  C3_5
REMARK    3  A    between atoms: C3_5  and  C4_6
REMARK    4  A    between atoms: C4_6  and  C5_7
REMARK    5  A    between atoms: C13_16  and  C14_17
REMARK    6  A    between atoms: C14_17  and  C15_18
REMARK    7  A    between atoms: C15_18  and  N2_19
REMARK    8  A    between atoms: N2_19  and  C16_21
REMARK    9  A    between atoms: C20_25  and  C21_26
REMARK   10  A    between atoms: C21_26  and  C22_27
ROOT
HETATM    1  C5  UNL     1      10.893  -8.850  23.563  1.00  0.00     0.190 C
HETATM    2  C6  UNL     1       9.943 -10.002  23.348  1.00  0.00     0.033 C
HETATM    3  C7  UNL     1       8.889  -9.652  22.310  1.00  0.00     0.004 C
HETATM    4  C8  UNL     1       9.484  -8.995  21.107  1.00  0.00     0.028 C
HETATM    5  C9  UNL     1      10.707  -8.184  21.330  1.00  0.00     0.238 C
HETATM    6  N1  UNL     1      11.627  -8.689  22.323  1.00  0.00    -0.063 N
HETATM    7  C10 UNL     1      12.697  -7.724  22.423  1.00  0.00     0.238 C
HETATM    8  C11 UNL     1      13.793  -8.100  23.340  1.00  0.00     0.028 C
HETATM    9  C12 UNL     1      14.568  -9.301  23.054  1.00  0.00     0.006 C
HETATM   10  C13 UNL     1      14.641  -9.774  21.654  1.00  0.00    -0.011 C
HETATM   11  C28 UNL     1      13.326  -9.853  20.946  1.00  0.00     0.032 C
HETATM   12  C29 UNL     1      12.160  -9.970  21.911  1.00  0.00     0.238 C
ENDROOT
BRANCH  10  13
HETATM   13  C14 UNL     1      15.697  -9.016  20.836  1.00  0.00     0.024 C
BRANCH  13  14
HETATM   14  C15 UNL     1      16.831  -9.976  20.473  1.00  0.00     0.114 C
BRANCH  14  15
HETATM   15  N2  UNL     1      16.274 -11.046  19.725  1.00  0.00    -0.417 N
ATOM     16  H2  UNL     1      15.305 -11.338  19.848  1.00  0.00     0.153 HD
BRANCH  15  17
HETATM   17  C16 UNL     1      17.137 -11.689  18.796  1.00  0.00     0.080 C
HETATM   18  C17 UNL     1      18.571 -11.226  18.873  1.00  0.00     0.025 C
HETATM   19  C18 UNL     1      19.330 -12.309  19.604  1.00  0.00     0.002 C
HETATM   20  C19 UNL     1      18.449 -13.521  19.652  1.00  0.00     0.007 C
HETATM   21  C20 UNL     1      17.180 -13.202  18.929  1.00  0.00     0.008 C
BRANCH  21  22
HETATM   22  C21 UNL     1      17.076 -13.780  17.561  1.00  0.00     0.011 C
BRANCH  22  23
HETATM   23  C22 UNL     1      16.036 -13.198  16.680  1.00  0.00    -0.014 C
HETATM   24  C23 UNL     1      15.023 -14.319  16.392  1.00  0.00     0.005 C
HETATM   25  C24 UNL     1      13.828 -13.612  15.760  1.00  0.00     0.000 C
HETATM   26  C25 UNL     1      14.265 -13.191  14.372  1.00  0.00     0.000 C
HETATM   27  C26 UNL     1      15.761 -13.303  14.183  1.00  0.00     0.000 C
HETATM   28  C27 UNL     1      16.548 -12.752  15.334  1.00  0.00     0.005 C
ENDBRANCH  22  23
ENDBRANCH  21  22
ENDBRANCH  15  17
ENDBRANCH  14  15
ENDBRANCH  13  14
ENDBRANCH  10  13
BRANCH   1  29
HETATM   29  C4  UNL     1      10.127  -7.658  23.977  1.00  0.00     0.034 C
BRANCH  29  30
HETATM   30  C3  UNL     1      10.356  -7.351  25.437  1.00  0.00     0.012 C
BRANCH  30  31
HETATM   31  C2  UNL     1       9.083  -7.840  26.159  1.00  0.00     0.113 C
BRANCH  31  32
HETATM   32  C1  UNL     1       9.439  -8.853  27.180  1.00  0.00     0.172 C
HETATM   33  O1  UNL     1       9.262  -8.678  28.397  1.00  0.00    -0.648 OA
HETATM   34  O2  UNL     1       9.996 -10.052  26.757  1.00  0.00    -0.648 OA
ENDBRANCH  31  32
ENDBRANCH  30  31
ENDBRANCH  29  30
ENDBRANCH   1  29
TORSDOF 10
ENDMDL