MODEL 1
REMARK VINA RESULT: -9.013904885      0.000      0.000
REMARK  5 active torsions:
REMARK  status: ('A' for Active; 'I' for Inactive)
REMARK    1  A    between atoms: C2_2  and  O1_5
REMARK    2  A    between atoms: O1_5  and  C5_6
REMARK       I    between atoms: C5_6  and  N1_8
REMARK    3  A    between atoms: N1_8  and  C6_10
REMARK    4  A    between atoms: C19_35  and  C20_36
REMARK    5  A    between atoms: C20_36  and  C21_37
ROOT
HETATM    1  C6  UNL     1      11.643  -8.553  23.067  1.00  0.00     0.212 C
HETATM    2  C7  UNL     1      12.860  -9.208  22.447  1.00  0.00     0.267 C
HETATM    3  N2  UNL     1      14.012  -8.351  22.451  1.00  0.00    -0.071 N
ATOM      4  H21 UNL     1      14.411  -8.232  23.382  1.00  0.00     0.277 HD
ATOM      5  H22 UNL     1      13.778  -7.374  22.276  1.00  0.00     0.277 HD
HETATM    6  C8  UNL     1      14.970  -8.882  21.491  1.00  0.00     0.258 C
HETATM    7  C9  UNL     1      16.248  -9.318  22.166  1.00  0.00     0.195 C
HETATM    8  O3  UNL     1      16.536  -8.532  23.275  1.00  0.00    -0.387 OA
HETATM    9  C10 UNL     1      17.921  -8.509  23.431  1.00  0.00     0.193 C
HETATM   10  C11 UNL     1      18.310  -7.715  24.667  1.00  0.00     0.193 C
HETATM   11  O4  UNL     1      17.347  -7.843  25.671  1.00  0.00    -0.387 OA
HETATM   12  C12 UNL     1      17.979  -7.413  26.860  1.00  0.00     0.193 C
HETATM   13  C13 UNL     1      17.023  -7.465  28.029  1.00  0.00     0.193 C
HETATM   14  O5  UNL     1      16.735  -6.183  28.508  1.00  0.00    -0.387 OA
HETATM   15  C14 UNL     1      16.060  -6.305  29.721  1.00  0.00     0.195 C
HETATM   16  C15 UNL     1      15.356  -4.995  30.004  1.00  0.00     0.258 C
HETATM   17  N3  UNL     1      14.798  -4.440  28.786  1.00  0.00    -0.073 N
ATOM     18  H31 UNL     1      15.460  -4.505  28.013  1.00  0.00     0.277 HD
ATOM     19  H32 UNL     1      14.718  -3.425  28.846  1.00  0.00     0.277 HD
HETATM   20  C16 UNL     1      13.532  -5.044  28.442  1.00  0.00     0.234 C
HETATM   21  C17 UNL     1      13.506  -5.260  26.951  1.00  0.00     0.055 C
HETATM   22  C18 UNL     1      12.374  -6.200  26.542  1.00  0.00     0.237 C
HETATM   23  N4  UNL     1      12.272  -6.239  25.118  1.00  0.00    -0.048 N
ATOM     24  H41 UNL     1      12.551  -7.154  24.763  1.00  0.00     0.280 HD
ATOM     25  H42 UNL     1      12.996  -5.661  24.690  1.00  0.00     0.280 HD
HETATM   26  C19 UNL     1      10.980  -5.879  24.621  1.00  0.00     0.330 C
HETATM   27  O6  UNL     1      10.771  -6.265  23.295  1.00  0.00    -0.286 OA
HETATM   28  C24 UNL     1      11.429  -7.184  22.550  1.00  0.00     0.285 C
HETATM   29  O7  UNL     1      11.876  -6.923  21.412  1.00  0.00    -0.263 OA
ENDROOT
BRANCH   1  30
HETATM   30  N1  UNL     1      10.509  -9.339  22.634  1.00  0.00    -0.321 N
HETATM   31  C5  UNL     1      10.608 -10.075  21.428  1.00  0.00     0.362 C
HETATM   32  O2  UNL     1      11.665 -10.040  20.753  1.00  0.00    -0.238 OA
ATOM     33  H1  UNL     1       9.652  -9.364  23.188  1.00  0.00     0.165 HD
BRANCH  31  34
HETATM   34  O1  UNL     1       9.573 -10.846  20.953  1.00  0.00    -0.294 OA
BRANCH  34  35
HETATM   35  C2  UNL     1       8.240 -10.465  20.826  1.00  0.00     0.061 C
HETATM   36  C1  UNL     1       7.497 -10.430  22.141  1.00  0.00     0.046 C
HETATM   37  C3  UNL     1       7.512 -11.435  19.908  1.00  0.00     0.046 C
HETATM   38  C4  UNL     1       8.198  -9.060  20.263  1.00  0.00     0.046 C
ENDBRANCH  34  35
ENDBRANCH  31  34
ENDBRANCH   1  30
BRANCH  26  39
HETATM   39  C20 UNL     1      10.737  -4.380  24.683  1.00  0.00     0.066 C
BRANCH  39  40
HETATM   40  C21 UNL     1      11.697  -3.632  23.788  1.00  0.00    -0.010 A
HETATM   41  C22 UNL     1      11.168  -2.788  22.683  1.00  0.00     0.005 A
HETATM   42  C23 UNL     1      11.662  -2.119  23.912  1.00  0.00     0.005 A
ENDBRANCH  39  40
ENDBRANCH  26  39
TORSDOF 5
ENDMDL