MODEL 1
REMARK VINA RESULT: -10.635447467      0.000      0.000
REMARK  5 active torsions:
REMARK  status: ('A' for Active; 'I' for Inactive)
REMARK    1  A    between atoms: C8_14  and  N3_15
REMARK    2  A    between atoms: N4_18  and  C11_19
REMARK    3  A    between atoms: C12_22  and  N6_23
REMARK    4  A    between atoms: N6_23  and  C13_25
REMARK    5  A    between atoms: C21_36  and  N9_37
ROOT
HETATM    1  C11 UNL     1      12.958  -8.287  23.364  1.00  0.00     0.725 A
HETATM    2  N5  UNL     1      11.943  -8.949  22.775  1.00  0.00    -0.020 N
ATOM      3  H5  UNL     1      10.996  -8.822  23.131  1.00  0.00     0.203 HD
HETATM    4  C12 UNL     1      12.146  -9.782  21.717  1.00  0.00     0.694 A
HETATM    5  N7  UNL     1      13.410  -9.913  21.291  1.00  0.00    -0.172 N
ATOM      6  H7  UNL     1      13.593 -10.532  20.501  1.00  0.00     0.186 HD
HETATM    7  C18 UNL     1      14.453  -9.268  21.853  1.00  0.00     0.185 A
HETATM    8  C19 UNL     1      15.805  -9.246  21.594  1.00  0.00     0.136 A
HETATM    9  C20 UNL     1      16.423  -9.999  20.546  1.00  0.00     0.107 C
HETATM   10  N8  UNL     1      16.924 -10.610  19.719  1.00  0.00    -0.191 NA
HETATM   11  C21 UNL     1      16.346  -8.390  22.521  1.00  0.00     0.139 A
HETATM   12  N10 UNL     1      15.366  -7.914  23.308  1.00  0.00    -0.262 N
ATOM     13  H10 UNL     1      15.480  -7.258  24.081  1.00  0.00     0.190 HD
HETATM   14  N11 UNL     1      14.209  -8.457  22.892  1.00  0.00    -0.065 N
ENDROOT
BRANCH  11  15
HETATM   15  N9  UNL     1      17.594  -8.096  22.615  1.00  0.00    -0.383 N
ATOM     16  H92 UNL     1      18.223  -8.398  23.360  1.00  0.00     0.157 HD
ATOM     17  H91 UNL     1      18.113  -7.521  21.951  1.00  0.00     0.157 HD
ENDBRANCH  11  15
BRANCH   4  18
HETATM   18  N6  UNL     1      11.173 -10.408  21.161  1.00  0.00    -0.221 N
ATOM     19  H6  UNL     1      11.361 -11.285  20.676  1.00  0.00     0.178 HD
BRANCH  18  20
HETATM   20  C13 UNL     1       9.822  -9.906  21.204  1.00  0.00     0.099 C
HETATM   21  C14 UNL     1       9.117 -10.317  22.486  1.00  0.00     0.026 C
HETATM   22  C15 UNL     1       7.654 -10.095  22.178  1.00  0.00     0.002 C
HETATM   23  C16 UNL     1       7.529 -10.092  20.672  1.00  0.00     0.002 C
HETATM   24  C17 UNL     1       8.922 -10.484  20.161  1.00  0.00     0.026 C
ENDBRANCH  18  20
ENDBRANCH   4  18
BRANCH   1  25
HETATM   25  N4  UNL     1      12.731  -7.416  24.478  1.00  0.00    -0.142 N
HETATM   26  C10 UNL     1      12.623  -7.928  25.856  1.00  0.00     0.171 C
HETATM   27  C9  UNL     1      13.264  -6.869  26.771  1.00  0.00     0.143 C
HETATM   28  N3  UNL     1      12.547  -5.634  26.737  1.00  0.00    -0.379 N
HETATM   29  C23 UNL     1      12.006  -5.254  25.493  1.00  0.00     0.161 C
HETATM   30  C22 UNL     1      12.603  -6.012  24.373  1.00  0.00     0.277 C
HETATM   31  O2  UNL     1      13.010  -5.459  23.312  1.00  0.00    -0.266 OA
BRANCH  28  32
HETATM   32  C8  UNL     1      11.710  -5.389  27.856  1.00  0.00     0.085 C
HETATM   33  C7  UNL     1      12.425  -5.312  29.170  1.00  0.00     0.027 C
HETATM   34  C6  UNL     1      13.062  -3.941  29.076  1.00  0.00     0.025 C
HETATM   35  C5  UNL     1      11.856  -3.131  28.602  1.00  0.00     0.051 C
HETATM   36  C2  UNL     1      11.131  -2.662  29.821  1.00  0.00     0.017 C
HETATM   37  C4  UNL     1      12.239  -1.850  27.999  1.00  0.00     0.091 C
HETATM   38  C24 UNL     1      11.057  -4.046  27.740  1.00  0.00     0.047 C
HETATM   39  C1  UNL     1      10.056  -3.107  30.383  1.00  0.00     0.025 C
HETATM   40  C3  UNL     1      11.935  -1.519  30.292  1.00  0.00     0.253 C
HETATM   41  O1  UNL     1      12.001  -1.073  31.466  1.00  0.00    -0.268 OA
HETATM   42  N1  UNL     1      12.621  -1.028  29.126  1.00  0.00    -0.312 N
ATOM     43  H1  UNL     1      13.265  -0.238  29.100  1.00  0.00     0.170 HD
HETATM   44  N2  UNL     1      12.277  -1.410  26.795  1.00  0.00    -0.388 N
ATOM     45  H22 UNL     1      12.543  -0.520  26.376  1.00  0.00     0.157 HD
ATOM     46  H21 UNL     1      12.008  -1.990  26.000  1.00  0.00     0.157 HD
ENDBRANCH  28  32
ENDBRANCH   1  25
TORSDOF 5
ENDMDL