MODEL 4
REMARK VINA RESULT: -10.419435798      2.364      3.052
REMARK  6 active torsions:
REMARK  status: ('A' for Active; 'I' for Inactive)
REMARK    1  A    between atoms: C4_6  and  C5_7
REMARK       I    between atoms: C5_7  and  N2_9
REMARK    2  A    between atoms: N2_9  and  C6_11
REMARK    3  A    between atoms: C8_17  and  C9_18
REMARK       I    between atoms: C9_18  and  N5_20
REMARK    4  A    between atoms: C16_27  and  C17_28
REMARK    5  A    between atoms: C18_29  and  C19_30
REMARK    6  A    between atoms: C20_33  and  N7_34
ROOT
HETATM    1  C1  UNL     1      19.152 -10.510  20.949  1.00  0.00     0.070 C
HETATM    2  C2  UNL     1      18.175  -9.652  21.707  1.00  0.00     0.024 A
HETATM    3  N1  UNL     1      18.556  -8.883  22.728  1.00  0.00    -0.367 N
ATOM      4  H1  UNL     1      19.536  -8.871  23.011  1.00  0.00     0.165 HD
HETATM    5  C3  UNL     1      17.672  -8.127  23.388  1.00  0.00     0.105 A
HETATM    6  C4  UNL     1      16.353  -8.146  23.005  1.00  0.00     0.048 A
HETATM    7  C15 UNL     1      15.962  -8.942  21.949  1.00  0.00     0.041 A
HETATM    8  C16 UNL     1      16.865  -9.725  21.262  1.00  0.00     0.041 A
ENDROOT
BRANCH   6   9
HETATM    9  C5  UNL     1      15.373  -7.331  23.711  1.00  0.00     0.254 C
HETATM   10  O1  UNL     1      15.484  -6.059  23.648  1.00  0.00    -0.268 OA
HETATM   11  N2  UNL     1      14.294  -7.838  24.472  1.00  0.00    -0.334 N
ATOM     12  H2  UNL     1      14.170  -8.848  24.548  1.00  0.00     0.165 HD
BRANCH  11  13
HETATM   13  C6  UNL     1      13.347  -6.946  25.155  1.00  0.00     0.209 C
HETATM   14  N3  UNL     1      12.775  -7.618  26.219  1.00  0.00    -0.350 N
HETATM   15  C7  UNL     1      11.630  -8.102  26.178  1.00  0.00     0.152 C
ATOM     16  H3  UNL     1      13.317  -7.722  27.077  1.00  0.00     0.163 HD
HETATM   17  N4  UNL     1      10.892  -8.814  27.164  1.00  0.00    -0.075 NA
HETATM   18  S1  UNL     1      10.992  -7.734  24.553  1.00  0.00    -0.079 SA
HETATM   19  C8  UNL     1      12.328  -6.545  24.124  1.00  0.00     0.189 C
BRANCH  19  20
HETATM   20  C9  UNL     1      11.792  -5.203  24.461  1.00  0.00     0.237 C
HETATM   21  O2  UNL     1      11.110  -5.033  25.500  1.00  0.00    -0.272 OA
HETATM   22  N5  UNL     1      12.034  -4.075  23.617  1.00  0.00    -0.351 N
HETATM   23  C10 UNL     1      11.495  -2.754  23.962  1.00  0.00     0.126 C
HETATM   24  C14 UNL     1      12.805  -4.138  22.400  1.00  0.00     0.126 C
HETATM   25  C11 UNL     1      10.477  -2.360  22.924  1.00  0.00     0.020 C
HETATM   26  C12 UNL     1      10.921  -2.811  21.544  1.00  0.00     0.003 C
HETATM   27  C13 UNL     1      12.446  -2.936  21.520  1.00  0.00     0.020 C
ENDBRANCH  19  20
ENDBRANCH  11  13
ENDBRANCH   6   9
BRANCH   8  28
HETATM   28  C17 UNL     1      16.464 -10.559  20.159  1.00  0.00    -0.058 C
HETATM   29  C18 UNL     1      16.147 -11.265  19.233  1.00  0.00    -0.042 C
BRANCH  29  30
HETATM   30  C19 UNL     1      15.787 -12.124  18.140  1.00  0.00     0.112 A
HETATM   31  N6  UNL     1      14.651 -11.926  17.447  1.00  0.00    -0.183 N
HETATM   32  C20 UNL     1      14.299 -12.737  16.407  1.00  0.00     0.678 A
ATOM     33  H6  UNL     1      14.038 -11.152  17.705  1.00  0.00     0.185 HD
HETATM   34  N8  UNL     1      15.059 -13.773  16.014  1.00  0.00    -0.178 N
HETATM   35  C21 UNL     1      16.198 -14.006  16.677  1.00  0.00     0.140 A
ATOM     36  H8  UNL     1      14.775 -14.366  15.233  1.00  0.00     0.185 HD
HETATM   37  N9  UNL     1      17.011 -15.096  16.276  1.00  0.00    -0.082 NA
HETATM   38  C22 UNL     1      16.565 -13.198  17.727  1.00  0.00     0.016 A
HETATM   39  C23 UNL     1      17.845 -13.460  18.470  1.00  0.00     0.055 C
BRANCH  32  40
HETATM   40  N7  UNL     1      13.178 -12.455  15.804  1.00  0.00    -0.234 N
ATOM     41  H72 UNL     1      12.330 -12.253  16.333  1.00  0.00     0.174 HD
ATOM     42  H71 UNL     1      13.199 -12.449  14.784  1.00  0.00     0.174 HD
ENDBRANCH  32  40
ENDBRANCH  29  30
ENDBRANCH   8  28
TORSDOF 6
ENDMDL