MODEL 1
REMARK VINA RESULT: -10.907214856      0.000      0.000
REMARK  4 active torsions:
REMARK  status: ('A' for Active; 'I' for Inactive)
REMARK    1  A    between atoms: C2_5  and  N2_6
REMARK    2  A    between atoms: N2_6  and  C3_8
REMARK    3  A    between atoms: C3_8  and  C4_9
REMARK    4  A    between atoms: C4_9  and  N3_10
ROOT
HETATM    1  C4  UNL     1      10.754  -7.591  22.728  1.00  0.00     0.292 C
ENDROOT
BRANCH   1   2
HETATM    2  C3  UNL     1      11.894  -7.490  21.767  1.00  0.00     0.168 C
BRANCH   2   3
HETATM    3  N2  UNL     1      12.573  -8.770  21.732  1.00  0.00    -0.224 N
ATOM      4  H2  UNL     1      11.998  -9.604  21.612  1.00  0.00     0.177 HD
BRANCH   3   5
HETATM    5  C2  UNL     1      13.831  -8.936  21.839  1.00  0.00     0.681 A
HETATM    6  N1  UNL     1      14.595  -8.516  22.838  1.00  0.00    -0.155 N
HETATM    7  C1  UNL     1      15.938  -8.714  22.913  1.00  0.00     0.272 A
ATOM      8  H1  UNL     1      14.144  -8.011  23.602  1.00  0.00     0.187 HD
HETATM    9  O1  UNL     1      16.637  -8.304  23.875  1.00  0.00    -0.267 OA
HETATM   10  C24 UNL     1      16.559  -9.393  21.888  1.00  0.00     0.061 A
HETATM   11  C16 UNL     1      15.770  -9.828  20.855  1.00  0.00     0.066 A
HETATM   12  C23 UNL     1      17.915  -9.623  21.911  1.00  0.00     0.036 A
HETATM   13  N7  UNL     1      14.443  -9.610  20.821  1.00  0.00    -0.191 N
HETATM   14  C17 UNL     1      16.391 -10.508  19.829  1.00  0.00     0.051 A
ATOM     15  H7  UNL     1      13.892  -9.949  20.032  1.00  0.00     0.184 HD
HETATM   16  C18 UNL     1      17.748 -10.737  19.852  1.00  0.00     0.021 A
HETATM   17  S1  UNL     1      18.564 -11.582  18.591  1.00  0.00    -0.101 SA
HETATM   18  C22 UNL     1      18.559 -10.312  20.878  1.00  0.00     0.032 A
HETATM   19  C19 UNL     1      20.237 -11.727  18.864  1.00  0.00     0.054 A
HETATM   20  C20 UNL     1      20.694 -11.155  20.041  1.00  0.00     0.063 A
HETATM   21  C21 UNL     1      19.910 -10.510  20.951  1.00  0.00     0.183 A
HETATM   22  O3  UNL     1      20.514 -10.047  21.979  1.00  0.00    -0.288 OA
ENDBRANCH   3   5
ENDBRANCH   2   3
ENDBRANCH   1   2
BRANCH   1  23
HETATM   23  N3  UNL     1      11.052  -7.061  24.040  1.00  0.00     0.091 N
HETATM   24  C5  UNL     1      12.193  -6.176  24.037  1.00  0.00     0.274 C
HETATM   25  C6  UNL     1      11.924  -5.023  24.942  1.00  0.00     0.057 C
HETATM   26  C7  UNL     1      11.947  -3.673  24.277  1.00  0.00     0.234 C
HETATM   27  N4  UNL     1      11.522  -2.720  25.318  1.00  0.00    -0.073 N
HETATM   28  C8  UNL     1      10.103  -2.615  25.429  1.00  0.00     0.258 C
ATOM     29  H42 UNL     1      11.942  -2.952  26.218  1.00  0.00     0.277 HD
ATOM     30  H41 UNL     1      11.945  -1.804  25.169  1.00  0.00     0.277 HD
HETATM   31  C9  UNL     1       9.529  -3.011  26.756  1.00  0.00     0.195 C
HETATM   32  O2  UNL     1      10.219  -2.563  27.852  1.00  0.00    -0.388 OA
HETATM   33  C10 UNL     1      10.987  -3.493  28.508  1.00  0.00     0.195 C
HETATM   34  C11 UNL     1      10.252  -4.696  29.014  1.00  0.00     0.258 C
HETATM   35  N5  UNL     1      10.960  -5.924  28.683  1.00  0.00    -0.072 N
HETATM   36  C12 UNL     1      10.264  -7.077  29.198  1.00  0.00     0.251 C
ATOM     37  H52 UNL     1      11.127  -6.002  27.681  1.00  0.00     0.277 HD
ATOM     38  H51 UNL     1      11.928  -5.896  29.001  1.00  0.00     0.277 HD
HETATM   39  C13 UNL     1       9.551  -7.886  28.169  1.00  0.00     0.141 C
HETATM   40  N6  UNL     1       9.860  -7.603  26.813  1.00  0.00    -0.418 N
HETATM   41  C14 UNL     1      11.181  -7.875  26.372  1.00  0.00     0.144 C
ATOM     42  H6  UNL     1       9.160  -7.219  26.180  1.00  0.00     0.153 HD
HETATM   43  C15 UNL     1      11.220  -8.200  24.909  1.00  0.00     0.291 C
ENDBRANCH   1  23
TORSDOF 4
ENDMDL