MODEL 1
REMARK VINA RESULT: -8.334255239      0.000      0.000
REMARK  5 active torsions:
REMARK  status: ('A' for Active; 'I' for Inactive)
REMARK       I    between atoms: N1_2  and  C2_4
REMARK    1  A    between atoms: C2_4  and  C3_6
REMARK    2  A    between atoms: C3_6  and  C4_7
REMARK    3  A    between atoms: C3_6  and  O3_40
REMARK    4  A    between atoms: C4_7  and  N2_8
REMARK    5  A    between atoms: O3_40  and  C23_41
ROOT
HETATM    1  N2  UNL     1      17.842  -7.867  23.570  1.00  0.00     0.094 N
HETATM    2  C5  UNL     1      17.339  -7.566  24.871  1.00  0.00     0.300 C
HETATM    3  C6  UNL     1      17.098  -6.075  24.969  1.00  0.00     0.262 C
HETATM    4  N3  UNL     1      15.831  -5.794  25.646  1.00  0.00    -0.072 N
ATOM      5  H31 UNL     1      15.044  -6.301  25.241  1.00  0.00     0.277 HD
ATOM      6  H32 UNL     1      15.487  -4.850  25.470  1.00  0.00     0.277 HD
HETATM    7  C7  UNL     1      16.018  -6.071  27.044  1.00  0.00     0.259 C
HETATM    8  C8  UNL     1      14.745  -6.180  27.817  1.00  0.00     0.260 C
HETATM    9  N4  UNL     1      13.775  -5.196  27.435  1.00  0.00    -0.070 N
ATOM     10  H41 UNL     1      13.716  -5.108  26.420  1.00  0.00     0.277 HD
ATOM     11  H42 UNL     1      14.095  -4.254  27.660  1.00  0.00     0.277 HD
HETATM   12  C9  UNL     1      12.474  -5.462  28.015  1.00  0.00     0.270 C
HETATM   13  C10 UNL     1      11.633  -6.461  27.253  1.00  0.00    -0.033 A
HETATM   14  C11 UNL     1      10.763  -6.046  26.279  1.00  0.00     0.009 A
HETATM   15  C12 UNL     1       9.950  -6.945  25.536  1.00  0.00     0.009 A
HETATM   16  C13 UNL     1       9.990  -8.304  25.751  1.00  0.00    -0.033 A
HETATM   17  C14 UNL     1      10.867  -8.705  26.730  1.00  0.00     0.009 A
HETATM   18  C15 UNL     1      11.686  -7.813  27.480  1.00  0.00     0.009 A
HETATM   19  C16 UNL     1       9.147  -9.294  24.989  1.00  0.00     0.270 C
HETATM   20  N5  UNL     1       9.165  -9.227  23.542  1.00  0.00    -0.069 N
ATOM     21  H51 UNL     1       9.188  -8.261  23.218  1.00  0.00     0.277 HD
ATOM     22  H52 UNL     1       8.266  -9.509  23.149  1.00  0.00     0.277 HD
HETATM   23  C17 UNL     1      10.250  -9.998  22.971  1.00  0.00     0.258 C
HETATM   24  C18 UNL     1      10.819  -9.325  21.762  1.00  0.00     0.195 C
HETATM   25  O2  UNL     1      12.187  -9.082  21.887  1.00  0.00    -0.388 OA
HETATM   26  C19 UNL     1      12.874 -10.261  21.532  1.00  0.00     0.195 C
HETATM   27  C20 UNL     1      14.274  -9.824  21.103  1.00  0.00     0.258 C
HETATM   28  N6  UNL     1      14.683  -8.749  21.985  1.00  0.00    -0.071 N
ATOM     29  H61 UNL     1      14.008  -8.566  22.728  1.00  0.00     0.277 HD
ATOM     30  H62 UNL     1      14.645  -7.833  21.539  1.00  0.00     0.277 HD
HETATM   31  C21 UNL     1      16.001  -9.072  22.492  1.00  0.00     0.262 C
HETATM   32  C22 UNL     1      16.767  -7.767  22.605  1.00  0.00     0.300 C
ENDROOT
BRANCH   1  33
HETATM   33  C4  UNL     1      18.539  -9.068  23.393  1.00  0.00     0.314 C
BRANCH  33  34
HETATM   34  C3  UNL     1      19.990  -9.131  23.748  1.00  0.00     0.242 C
BRANCH  34  35
HETATM   35  C2  UNL     1      20.643  -9.996  22.675  1.00  0.00     0.248 C
HETATM   36  N1  UNL     1      19.994 -10.372  21.490  1.00  0.00    -0.363 N
HETATM   37  C1  UNL     1      20.697 -11.192  20.530  1.00  0.00     0.149 C
ATOM     38  H1  UNL     1      19.037 -10.070  21.308  1.00  0.00     0.162 HD
HETATM   39  O1  UNL     1      21.816 -10.385  22.869  1.00  0.00    -0.271 OA
ENDBRANCH  34  35
BRANCH  34  40
HETATM   40  O3  UNL     1      20.642  -8.010  23.987  1.00  0.00    -0.365 OA
BRANCH  40  41
HETATM   41  C23 UNL     1      21.194  -7.590  25.108  1.00  0.00     0.051 C
HETATM   42  C24 UNL     1      20.644  -8.198  26.388  1.00  0.00     0.045 C
HETATM   43  C25 UNL     1      22.702  -7.631  25.234  1.00  0.00     0.045 C
HETATM   44  C26 UNL     1      20.872  -6.086  25.247  1.00  0.00     0.045 C
ENDBRANCH  40  41
ENDBRANCH  34  40
ENDBRANCH  33  34
ENDBRANCH   1  33
TORSDOF 5
ENDMDL