MODEL 4
REMARK VINA RESULT: -9.673708732      2.622      9.370
REMARK  7 active torsions:
REMARK  status: ('A' for Active; 'I' for Inactive)
REMARK    1  A    between atoms: C3_7  and  N3_8
REMARK    2  A    between atoms: C7_16  and  C8_17
REMARK    3  A    between atoms: C9_18  and  C10_19
REMARK    4  A    between atoms: C10_19  and  N6_20
REMARK    5  A    between atoms: N6_20  and  C11_22
REMARK    6  A    between atoms: C14_28  and  C15_29
REMARK    7  A    between atoms: C18_32  and  N9_33
ROOT
HETATM    1  N6  UNL     1       9.147  -8.771  22.660  1.00  0.00    -0.378 N
ATOM      2  H6  UNL     1       8.652  -7.958  22.293  1.00  0.00     0.160 HD
ENDROOT
BRANCH   1   3
HETATM    3  C10 UNL     1       9.310  -9.862  21.743  1.00  0.00     0.215 C
BRANCH   3   4
HETATM    4  C9  UNL     1      10.723 -10.053  21.360  1.00  0.00    -0.079 C
HETATM    5  C8  UNL     1      11.891 -10.200  21.071  1.00  0.00    -0.028 C
BRANCH   5   6
HETATM    6  C7  UNL     1      13.282 -10.365  20.758  1.00  0.00     0.163 A
HETATM    7  N5  UNL     1      14.380  -9.855  21.313  1.00  0.00    -0.319 N
HETATM    8  C6  UNL     1      15.485 -10.277  20.696  1.00  0.00     0.156 A
ATOM      9  H5  UNL     1      14.376  -9.220  22.112  1.00  0.00     0.169 HD
HETATM   10  N4  UNL     1      16.780 -10.020  20.917  1.00  0.00    -0.170 N
HETATM   11  C25 UNL     1      15.048 -11.124  19.667  1.00  0.00     0.124 A
HETATM   12  C3  UNL     1      17.665 -10.610  20.103  1.00  0.00     0.682 A
HETATM   13  C5  UNL     1      17.177  -9.144  21.988  1.00  0.00     0.177 C
HETATM   14  N2  UNL     1      17.299 -11.417  19.117  1.00  0.00    -0.174 N
HETATM   15  C2  UNL     1      15.977 -11.708  18.857  1.00  0.00     0.147 A
ATOM     16  H2  UNL     1      18.020 -11.838  18.530  1.00  0.00     0.186 HD
HETATM   17  N1  UNL     1      15.704 -12.476  17.911  1.00  0.00    -0.378 N
HETATM   18  C1  UNL     1      14.524 -12.982  17.368  1.00  0.00     0.147 C
ATOM     19  H1  UNL     1      16.535 -12.810  17.424  1.00  0.00     0.160 HD
HETATM   20  N12 UNL     1      13.705 -11.155  19.731  1.00  0.00    -0.329 N
ATOM     21  H12 UNL     1      13.098 -11.688  19.109  1.00  0.00     0.168 HD
BRANCH  12  22
HETATM   22  N3  UNL     1      18.940 -10.372  20.296  1.00  0.00    -0.230 N
HETATM   23  C4  UNL     1      19.945 -11.185  19.670  1.00  0.00     0.165 C
ATOM     24  H3  UNL     1      19.222  -9.600  20.899  1.00  0.00     0.177 HD
ENDBRANCH  12  22
ENDBRANCH   5   6
ENDBRANCH   3   4
ENDBRANCH   1   3
BRANCH   1  25
HETATM   25  C11 UNL     1       9.529  -8.680  23.849  1.00  0.00     0.062 A
HETATM   26  C12 UNL     1       9.100  -9.520  24.830  1.00  0.00     0.050 A
HETATM   27  C13 UNL     1       9.567  -9.318  26.125  1.00  0.00     0.110 A
HETATM   28  N7  UNL     1      10.431  -8.299  26.373  1.00  0.00    -0.303 N
HETATM   29  N8  UNL     1      10.865  -7.466  25.439  1.00  0.00    -0.234 N
ATOM     30  H7  UNL     1      10.762  -8.167  27.329  1.00  0.00     0.186 HD
HETATM   31  C14 UNL     1      11.714  -6.432  25.495  1.00  0.00     0.139 A
HETATM   32  C24 UNL     1      10.419  -7.657  24.192  1.00  0.00     0.126 A
HETATM   33  N10 UNL     1      11.786  -5.977  24.196  1.00  0.00    -0.327 N
HETATM   34  C23 UNL     1      11.011  -6.703  23.403  1.00  0.00     0.149 A
ATOM     35  H10 UNL     1      12.357  -5.190  23.888  1.00  0.00     0.168 HD
HETATM   36  N11 UNL     1      10.816  -6.547  22.002  1.00  0.00    -0.080 NA
BRANCH  31  37
HETATM   37  C15 UNL     1      12.490  -5.835  26.569  1.00  0.00     0.010 A
HETATM   38  C16 UNL     1      13.799  -6.307  26.758  1.00  0.00     0.017 A
HETATM   39  C17 UNL     1      14.636  -5.773  27.707  1.00  0.00     0.030 A
HETATM   40  C18 UNL     1      14.244  -4.744  28.532  1.00  0.00     0.029 A
HETATM   41  C21 UNL     1      12.971  -4.276  28.355  1.00  0.00     0.030 A
HETATM   42  C22 UNL     1      12.106  -4.814  27.386  1.00  0.00     0.017 A
BRANCH  40  43
HETATM   43  N9  UNL     1      15.137  -4.223  29.502  1.00  0.00    -0.390 N
HETATM   44  C19 UNL     1      16.292  -5.067  29.852  1.00  0.00     0.149 C
HETATM   45  C20 UNL     1      14.959  -2.935  30.135  1.00  0.00     0.149 C
ENDBRANCH  40  43
ENDBRANCH  31  37
ENDBRANCH   1  25
TORSDOF 7
ENDMDL