MODEL 4
REMARK VINA RESULT: -9.019997584      3.861      7.086
REMARK  5 active torsions:
REMARK  status: ('A' for Active; 'I' for Inactive)
REMARK    1  A    between atoms: C2_2  and  C4_4
REMARK    2  A    between atoms: C4_4  and  C5_5
REMARK    3  A    between atoms: C9_10  and  C10_11
REMARK    4  A    between atoms: C10_11  and  N1_12
REMARK    5  A    between atoms: C10_11  and  O2_16
ROOT
HETATM    1  C5  UNL     1      17.311  -6.101  24.454  1.00  0.00     0.213 C
HETATM    2  O1  UNL     1      16.441  -5.965  23.387  1.00  0.00    -0.376 OA
HETATM    3  C6  UNL     1      15.132  -6.172  23.802  1.00  0.00     0.168 C
HETATM    4  C7  UNL     1      14.211  -5.035  23.337  1.00  0.00     0.029 C
HETATM    5  C8  UNL     1      12.800  -5.513  23.406  1.00  0.00     0.039 C
HETATM    6  C9  UNL     1      11.836  -4.434  23.882  1.00  0.00     0.188 C
HETATM    7  O3  UNL     1      10.606  -4.998  24.239  1.00  0.00    -0.310 OA
HETATM    8  C11 UNL     1      10.200  -5.372  25.477  1.00  0.00     0.290 C
HETATM    9  O4  UNL     1       9.518  -6.411  25.632  1.00  0.00    -0.263 OA
HETATM   10  C12 UNL     1      10.536  -4.586  26.688  1.00  0.00     0.284 C
HETATM   11  C13 UNL     1       9.771  -3.255  26.624  1.00  0.00     0.051 C
HETATM   12  N2  UNL     1      10.071  -5.236  27.898  1.00  0.00    -0.028 N
ATOM     13  H21 UNL     1       9.361  -5.935  27.678  1.00  0.00     0.281 HD
ATOM     14  H22 UNL     1       9.511  -4.592  28.457  1.00  0.00     0.281 HD
HETATM   15  C14 UNL     1      11.109  -5.812  28.690  1.00  0.00     0.251 C
HETATM   16  C15 UNL     1      11.144  -5.102  30.020  1.00  0.00     0.071 C
HETATM   17  C16 UNL     1       9.758  -4.657  30.451  1.00  0.00     0.006 C
HETATM   18  C17 UNL     1       9.003  -5.722  31.180  1.00  0.00     0.027 C
HETATM   19  C18 UNL     1       9.083  -7.076  30.528  1.00  0.00     0.232 C
HETATM   20  N3  UNL     1      10.454  -7.488  30.338  1.00  0.00    -0.071 N
ATOM     21  H31 UNL     1      10.632  -8.441  30.655  1.00  0.00     0.277 HD
ATOM     22  H32 UNL     1      11.103  -7.017  30.969  1.00  0.00     0.277 HD
HETATM   23  C19 UNL     1      10.774  -7.286  28.937  1.00  0.00     0.300 C
HETATM   24  O5  UNL     1      12.298  -5.781  28.008  1.00  0.00    -0.351 OA
HETATM   25  C20 UNL     1      13.390  -5.991  28.863  1.00  0.00     0.197 C
HETATM   26  C21 UNL     1      14.630  -5.898  27.993  1.00  0.00     0.193 C
HETATM   27  O6  UNL     1      15.744  -6.044  28.818  1.00  0.00    -0.387 OA
HETATM   28  C22 UNL     1      16.505  -7.130  28.381  1.00  0.00     0.187 C
HETATM   29  C23 UNL     1      17.667  -6.683  27.502  1.00  0.00     0.148 C
HETATM   30  N4  UNL     1      17.761  -7.636  26.419  1.00  0.00    -0.357 N
ATOM     31  H4  UNL     1      18.210  -8.531  26.612  1.00  0.00     0.162 HD
HETATM   32  C24 UNL     1      17.275  -7.415  25.112  1.00  0.00     0.246 C
HETATM   33  O7  UNL     1      16.792  -8.409  24.510  1.00  0.00    -0.271 OA
ENDROOT
BRANCH   6  34
HETATM   34  C10 UNL     1      11.571  -3.553  22.654  1.00  0.00     0.346 C
BRANCH  34  35
HETATM   35  N1  UNL     1      11.677  -4.290  21.433  1.00  0.00    -0.051 N
ATOM     36  H13 UNL     1      11.953  -5.256  21.608  1.00  0.00     0.277 HD
ATOM     37  H12 UNL     1      10.760  -4.456  21.020  1.00  0.00     0.277 HD
ATOM     38  H11 UNL     1      12.307  -3.839  20.769  1.00  0.00     0.277 HD
ENDBRANCH  34  35
BRANCH  34  39
HETATM   39  O2  UNL     1      10.381  -2.857  22.783  1.00  0.00    -0.368 OA
ATOM     40  H2  UNL     1      10.108  -2.483  21.953  1.00  0.00     0.212 HD
ENDBRANCH  34  39
ENDBRANCH   6  34
BRANCH   1  41
HETATM   41  C4  UNL     1      18.704  -5.688  24.146  1.00  0.00     0.045 C
BRANCH  41  42
HETATM   42  C2  UNL     1      18.927  -4.298  23.687  1.00  0.00    -0.020 C
HETATM   43  C1  UNL     1      19.400  -3.508  24.926  1.00  0.00     0.009 C
HETATM   44  C3  UNL     1      19.950  -4.078  22.630  1.00  0.00     0.009 C
ENDBRANCH  41  42
ENDBRANCH   1  41
TORSDOF 5
ENDMDL