MODEL 5
REMARK VINA RESULT: -10.974276228      3.095      7.778
REMARK  6 active torsions:
REMARK  status: ('A' for Active; 'I' for Inactive)
REMARK    1  A    between atoms: N2_5  and  C4_6
REMARK    2  A    between atoms: C5_11  and  N5_12
REMARK    3  A    between atoms: N5_12  and  C6_14
REMARK    4  A    between atoms: C9_19  and  N7_20
REMARK    5  A    between atoms: N7_20  and  C10_22
REMARK    6  A    between atoms: C22_42  and  N12_43
ROOT
HETATM    1  C6  UNL     1      21.314 -11.652  21.948  1.00  0.00     0.698 A
HETATM    2  N6  UNL     1      21.650 -12.153  23.147  1.00  0.00    -0.201 N
ATOM      3  H6  UNL     1      22.119 -13.058  23.188  1.00  0.00     0.183 HD
HETATM    4  C7  UNL     1      21.392 -11.506  24.294  1.00  0.00     0.110 A
HETATM    5  C8  UNL     1      20.765 -10.286  24.278  1.00  0.00     0.066 A
HETATM    6  C9  UNL     1      20.412  -9.762  23.028  1.00  0.00     0.122 A
HETATM    7  N10 UNL     1      20.701 -10.462  21.918  1.00  0.00    -0.176 N
ATOM      8  H10 UNL     1      20.442 -10.069  21.013  1.00  0.00     0.186 HD
ENDROOT
BRANCH   1   9
HETATM    9  N5  UNL     1      21.543 -12.273  20.828  1.00  0.00    -0.021 N
ATOM     10  H5  UNL     1      22.483 -12.544  20.538  1.00  0.00     0.203 HD
BRANCH   9  11
HETATM   11  C5  UNL     1      20.390 -12.549  20.027  1.00  0.00     0.713 A
HETATM   12  N4  UNL     1      19.457 -13.419  20.441  1.00  0.00    -0.130 N
HETATM   13  N3  UNL     1      18.356 -13.656  19.713  1.00  0.00    -0.268 N
ATOM     14  H4  UNL     1      19.588 -13.909  21.326  1.00  0.00     0.205 HD
HETATM   15  C4  UNL     1      18.156 -13.025  18.543  1.00  0.00     0.163 A
ATOM     16  H3  UNL     1      17.663 -14.324  20.050  1.00  0.00     0.189 HD
HETATM   17  C22 UNL     1      19.072 -12.141  18.092  1.00  0.00     0.160 A
HETATM   18  N11 UNL     1      20.181 -11.928  18.865  1.00  0.00    -0.171 N
ATOM     19  H11 UNL     1      20.882 -11.264  18.536  1.00  0.00     0.186 HD
BRANCH  15  20
HETATM   20  N2  UNL     1      16.987 -13.329  17.835  1.00  0.00    -0.360 N
HETATM   21  C3  UNL     1      15.766 -12.592  18.043  1.00  0.00     0.154 C
HETATM   22  C2  UNL     1      15.260 -12.241  16.642  1.00  0.00     0.291 C
HETATM   23  N1  UNL     1      14.923 -13.433  15.923  1.00  0.00     0.087 N
HETATM   24  C1  UNL     1      13.477 -13.517  15.835  1.00  0.00     0.310 C
HETATM   25  C24 UNL     1      15.487 -14.621  16.489  1.00  0.00     0.291 C
HETATM   26  C23 UNL     1      16.932 -14.385  16.830  1.00  0.00     0.154 C
ENDBRANCH  15  20
BRANCH  17  27
HETATM   27  N12 UNL     1      18.963 -11.471  17.043  1.00  0.00    -0.382 N
ATOM     28 2H12 UNL     1      18.800 -11.980  16.174  1.00  0.00     0.157 HD
ATOM     29 1H12 UNL     1      19.058 -10.457  16.985  1.00  0.00     0.157 HD
ENDBRANCH  17  27
ENDBRANCH   9  11
ENDBRANCH   1   9
BRANCH   6  30
HETATM   30  N7  UNL     1      19.804  -8.606  23.021  1.00  0.00    -0.342 N
ATOM     31  H7  UNL     1      20.344  -7.752  22.879  1.00  0.00     0.167 HD
BRANCH  30  32
HETATM   32  C10 UNL     1      18.398  -8.528  23.208  1.00  0.00     0.034 A
HETATM   33  C11 UNL     1      17.926  -7.908  24.344  1.00  0.00     0.032 A
HETATM   34  C12 UNL     1      16.567  -7.779  24.583  1.00  0.00     0.033 A
HETATM   35  C13 UNL     1      15.677  -8.290  23.652  1.00  0.00     0.045 A
HETATM   36  C14 UNL     1      16.123  -8.916  22.508  1.00  0.00    -0.005 A
HETATM   37  N8  UNL     1      14.309  -8.306  23.622  1.00  0.00    -0.341 N
HETATM   38  C15 UNL     1      17.490  -9.034  22.284  1.00  0.00     0.043 A
HETATM   39  C16 UNL     1      15.020  -9.308  21.788  1.00  0.00     0.039 A
HETATM   40  C17 UNL     1      13.915  -8.919  22.499  1.00  0.00     0.015 A
HETATM   41  C21 UNL     1      12.538  -9.155  22.054  1.00  0.00     0.077 C
HETATM   42  C20 UNL     1      11.818  -7.858  21.759  1.00  0.00     0.128 C
HETATM   43  N9  UNL     1      11.825  -6.941  22.848  1.00  0.00    -0.359 N
HETATM   44  C19 UNL     1      12.309  -7.056  24.173  1.00  0.00     0.235 C
ATOM     45  H9  UNL     1      11.404  -6.037  22.634  1.00  0.00     0.162 HD
HETATM   46  C18 UNL     1      13.534  -7.731  24.683  1.00  0.00     0.231 C
HETATM   47  O1  UNL     1      11.577  -6.493  25.053  1.00  0.00    -0.272 OA
ENDBRANCH  30  32
ENDBRANCH   6  30
TORSDOF 6
ENDMDL