MODEL 4
REMARK VINA RESULT: -9.892682990      0.309      1.183
REMARK  5 active torsions:
REMARK  status: ('A' for Active; 'I' for Inactive)
REMARK    1  A    between atoms: N1_4  and  C4_5
REMARK    2  A    between atoms: C7_8  and  N2_9
REMARK    3  A    between atoms: C17_27  and  C18_28
REMARK    4  A    between atoms: C18_28  and  O1_29
REMARK    5  A    between atoms: O1_29  and  C19_30
ROOT
HETATM    1  N2  UNL     1      14.163  -8.468  22.158  1.00  0.00    -0.313 N
HETATM    2  C8  UNL     1      15.203  -7.679  22.771  1.00  0.00     0.176 C
HETATM    3  C9  UNL     1      16.246  -8.567  23.406  1.00  0.00     0.075 C
HETATM    4  N3  UNL     1      17.388  -7.911  23.904  1.00  0.00    -0.401 N
ATOM      5  H3  UNL     1      18.323  -8.243  23.668  1.00  0.00     0.158 HD
HETATM    6  C10 UNL     1      17.215  -6.780  24.740  1.00  0.00     0.120 C
HETATM    7  C11 UNL     1      17.569  -7.014  26.194  1.00  0.00     0.047 C
HETATM    8  C12 UNL     1      16.396  -7.461  27.025  1.00  0.00     0.234 C
HETATM    9  N4  UNL     1      15.839  -6.400  27.827  1.00  0.00    -0.075 N
ATOM     10  H41 UNL     1      15.828  -5.501  27.344  1.00  0.00     0.277 HD
ATOM     11  H42 UNL     1      16.444  -6.128  28.602  1.00  0.00     0.277 HD
HETATM   12  C13 UNL     1      14.517  -6.826  28.263  1.00  0.00     0.233 C
HETATM   13  C14 UNL     1      13.477  -6.626  27.202  1.00  0.00     0.055 C
HETATM   14  C15 UNL     1      12.629  -7.894  27.047  1.00  0.00     0.234 C
HETATM   15  N5  UNL     1      11.780  -7.769  25.852  1.00  0.00    -0.074 N
ATOM     16  H51 UNL     1      11.099  -7.012  25.918  1.00  0.00     0.277 HD
ATOM     17  H52 UNL     1      11.111  -8.532  25.749  1.00  0.00     0.277 HD
HETATM   18  C16 UNL     1      12.689  -7.636  24.712  1.00  0.00     0.248 C
HETATM   19  C17 UNL     1      11.964  -8.266  23.533  1.00  0.00     0.128 C
HETATM   20  C22 UNL     1      12.772  -8.330  22.301  1.00  0.00     0.232 C
HETATM   21  O2  UNL     1      12.075  -8.245  21.216  1.00  0.00    -0.272 OA
ENDROOT
BRANCH   1  22
HETATM   22  C7  UNL     1      14.635  -9.509  21.276  1.00  0.00     0.037 A
HETATM   23  C6  UNL     1      15.898  -9.290  20.759  1.00  0.00     0.032 A
HETATM   24  C5  UNL     1      16.461 -10.215  19.896  1.00  0.00     0.031 A
HETATM   25  C4  UNL     1      15.793 -11.356  19.535  1.00  0.00     0.030 A
HETATM   26  C24 UNL     1      14.528 -11.534  20.079  1.00  0.00     0.031 A
HETATM   27  C23 UNL     1      13.942 -10.624  20.945  1.00  0.00     0.032 A
BRANCH  25  28
HETATM   28  N1  UNL     1      16.371 -12.293  18.641  1.00  0.00    -0.377 N
HETATM   29  C3  UNL     1      17.499 -13.112  19.073  1.00  0.00     0.155 C
HETATM   30  C2  UNL     1      18.314 -13.421  17.819  1.00  0.00     0.199 C
HETATM   31  C1  UNL     1      19.686 -13.903  18.152  1.00  0.00     0.041 C
HETATM   32  N8  UNL     1      17.563 -14.315  16.966  1.00  0.00    -0.068 N
HETATM   33  C26 UNL     1      16.149 -13.985  16.960  1.00  0.00     0.252 C
ATOM     34  H82 UNL     1      17.945 -14.336  16.020  1.00  0.00     0.277 HD
ATOM     35  H81 UNL     1      17.716 -15.290  17.221  1.00  0.00     0.277 HD
HETATM   36  C25 UNL     1      15.910 -12.516  17.291  1.00  0.00     0.150 C
ENDBRANCH  25  28
ENDBRANCH   1  22
BRANCH  19  37
HETATM   37  C18 UNL     1      10.747  -7.436  23.321  1.00  0.00     0.192 C
BRANCH  37  38
HETATM   38  O1  UNL     1       9.525  -8.064  23.292  1.00  0.00    -0.337 OA
BRANCH  38  39
HETATM   39  C19 UNL     1       8.972  -8.804  22.285  1.00  0.00     0.130 C
HETATM   40  N6  UNL     1       9.085  -8.493  21.043  1.00  0.00    -0.287 N
HETATM   41  N7  UNL     1       8.419  -9.427  20.239  1.00  0.00    -0.139 NA
ATOM     42  H6  UNL     1       9.588  -7.679  20.691  1.00  0.00     0.184 HD
HETATM   43  C20 UNL     1       7.626 -10.302  21.081  1.00  0.00     0.143 C
HETATM   44  C21 UNL     1       8.166 -10.060  22.455  1.00  0.00     0.103 C
ENDBRANCH  38  39
ENDBRANCH  37  38
ENDBRANCH  19  37
TORSDOF 5
ENDMDL