MODEL 3
REMARK VINA RESULT: -8.021299637      1.032      1.276
REMARK  4 active torsions:
REMARK  status: ('A' for Active; 'I' for Inactive)
REMARK    1  A    between atoms: C3_3  and  O1_4
REMARK    2  A    between atoms: O1_4  and  C4_5
REMARK    3  A    between atoms: N1_15  and  O3_17
REMARK    4  A    between atoms: O3_17  and  C13_18
ROOT
HETATM    1  C1  UNL     1      13.359  -7.521  27.065  1.00  0.00     0.017 C
HETATM    2  C2  UNL     1      12.175  -7.190  26.571  1.00  0.00    -0.056 C
HETATM    3  C3  UNL     1      11.225  -6.524  27.509  1.00  0.00     0.160 C
HETATM    4  C6  UNL     1       9.904  -7.270  27.265  1.00  0.00     0.037 C
HETATM    5  C7  UNL     1       9.468  -6.862  25.892  1.00  0.00     0.009 C
HETATM    6  C8  UNL     1      10.424  -7.146  24.793  1.00  0.00    -0.001 C
HETATM    7  C9  UNL     1      11.819  -7.466  25.176  1.00  0.00     0.021 C
HETATM    8  C10 UNL     1      12.836  -6.679  24.333  1.00  0.00     0.015 C
HETATM    9  C11 UNL     1      12.582  -6.866  22.862  1.00  0.00     0.056 C
HETATM   10  C12 UNL     1      11.976  -8.211  22.692  1.00  0.00     0.019 C
HETATM   11  N1  UNL     1      12.773  -9.213  22.547  1.00  0.00    -0.265 N
ATOM     12  H1  UNL     1      12.418 -10.162  22.425  1.00  0.00     0.194 HD
HETATM   13  C15 UNL     1      10.547  -8.519  22.671  1.00  0.00     0.001 C
HETATM   14  C16 UNL     1       9.942  -7.873  21.417  1.00  0.00     0.022 C
HETATM   15  C17 UNL     1      10.344 -10.029  22.486  1.00  0.00     0.015 C
HETATM   16  C18 UNL     1       9.117 -10.342  23.353  1.00  0.00     0.002 C
HETATM   17  C19 UNL     1       9.441  -9.452  24.563  1.00  0.00     0.006 C
HETATM   18  C20 UNL     1       9.787  -8.169  23.889  1.00  0.00     0.004 C
ENDROOT
BRANCH  11  19
HETATM   19  O3  UNL     1      14.120  -8.950  22.563  1.00  0.00    -0.200 OA
BRANCH  19  20
HETATM   20  C13 UNL     1      14.934  -9.232  21.450  1.00  0.00     0.277 C
HETATM   21  C14 UNL     1      14.745 -10.444  20.628  1.00  0.00     0.128 C
HETATM   22  O4  UNL     1      15.830  -8.380  21.210  1.00  0.00    -0.264 OA
ENDBRANCH  19  20
ENDBRANCH  11  19
BRANCH   3  23
HETATM   23  O1  UNL     1      11.113  -5.178  27.063  1.00  0.00    -0.312 OA
BRANCH  23  24
HETATM   24  C4  UNL     1      11.834  -4.174  27.670  1.00  0.00     0.255 C
HETATM   25  C5  UNL     1      11.934  -2.806  27.100  1.00  0.00     0.126 C
HETATM   26  O2  UNL     1      12.420  -4.481  28.761  1.00  0.00    -0.266 OA
ENDBRANCH  23  24
ENDBRANCH   3  23
TORSDOF 4
ENDMDL