MODEL 4
REMARK VINA RESULT: -8.315619951      2.928      6.598
REMARK  2 active torsions:
REMARK  status: ('A' for Active; 'I' for Inactive)
REMARK    1  A    between atoms: C15_21  and  C16_22
REMARK    2  A    between atoms: C16_22  and  N5_23
ROOT
HETATM    1  C1  UNL     1      13.452  -6.409  26.953  1.00  0.00     0.015 C
HETATM    2  C2  UNL     1      12.733  -7.079  25.818  1.00  0.00     0.013 C
HETATM    3  C3  UNL     1      11.295  -6.630  25.939  1.00  0.00     0.009 C
HETATM    4  C4  UNL     1      10.508  -6.743  24.686  1.00  0.00     0.007 C
HETATM    5  C5  UNL     1      10.557  -8.116  24.073  1.00  0.00     0.013 C
HETATM    6  C6  UNL     1       9.433  -8.158  23.061  1.00  0.00     0.023 C
HETATM    7  C7  UNL     1       9.324  -9.595  22.597  1.00  0.00     0.013 C
HETATM    8  C8  UNL     1       9.003 -10.541  23.702  1.00  0.00     0.023 C
HETATM    9  C9  UNL     1       8.168  -9.629  21.594  1.00  0.00     0.023 C
HETATM   10  C10 UNL     1      10.611  -9.912  21.933  1.00  0.00     0.107 A
HETATM   11  N1  UNL     1      10.897 -10.640  20.840  1.00  0.00    -0.339 N
ATOM     12  H1  UNL     1      10.221 -11.126  20.251  1.00  0.00     0.168 HD
HETATM   13  C11 UNL     1      12.240 -10.617  20.655  1.00  0.00     0.199 A
HETATM   14  N2  UNL     1      12.719  -9.873  21.648  1.00  0.00    -0.292 N
ATOM     15  H2  UNL     1      13.709  -9.667  21.785  1.00  0.00     0.188 HD
HETATM   16  N3  UNL     1      11.740  -9.429  22.446  1.00  0.00    -0.272 N
HETATM   17  C12 UNL     1      11.859  -8.600  23.626  1.00  0.00     0.135 C
HETATM   18  C13 UNL     1      12.920  -7.572  23.338  1.00  0.00     0.148 C
HETATM   19  C14 UNL     1      12.452  -6.765  22.172  1.00  0.00     0.070 C
HETATM   20  N4  UNL     1      12.096  -6.118  21.270  1.00  0.00    -0.197 NA
HETATM   21  C15 UNL     1      13.304  -6.721  24.474  1.00  0.00    -0.041 C
ENDROOT
BRANCH  21  22
HETATM   22  C16 UNL     1      14.743  -6.340  24.510  1.00  0.00     0.090 C
BRANCH  22  23
HETATM   23  N5  UNL     1      15.719  -7.290  24.190  1.00  0.00    -0.390 N
HETATM   24  C17 UNL     1      16.545  -7.590  25.330  1.00  0.00     0.122 C
HETATM   25  C18 UNL     1      18.023  -7.642  24.952  1.00  0.00     0.020 C
HETATM   26  C19 UNL     1      18.214  -8.742  23.954  1.00  0.00     0.003 C
HETATM   27  C20 UNL     1      17.288  -8.517  22.788  1.00  0.00     0.020 C
HETATM   28  C21 UNL     1      16.447  -7.248  22.999  1.00  0.00     0.122 C
ENDBRANCH  22  23
ENDBRANCH  21  22
TORSDOF 2
ENDMDL