MODEL 5
REMARK VINA RESULT: -8.367044045     10.006     12.877
REMARK  3 active torsions:
REMARK  status: ('A' for Active; 'I' for Inactive)
REMARK    1  A    between atoms: C2_2  and  O1_3
REMARK    2  A    between atoms: O1_3  and  C3_4
REMARK    3  A    between atoms: C3_4  and  C4_6
ROOT
HETATM    1  C4  UNL     1      20.354 -11.505  19.704  1.00  0.00     0.085 C
HETATM    2  C5  UNL     1      19.994 -12.963  19.626  1.00  0.00     0.018 C
HETATM    3  C6  UNL     1      18.535 -13.188  19.952  1.00  0.00     0.044 C
HETATM    4  C7  UNL     1      17.631 -12.331  19.090  1.00  0.00     0.118 C
HETATM    5  C8  UNL     1      18.027 -10.887  19.312  1.00  0.00     0.044 C
HETATM    6  C9  UNL     1      19.179 -10.762  20.283  1.00  0.00     0.018 C
HETATM    7  C10 UNL     1      16.217 -12.604  19.486  1.00  0.00     0.212 C
HETATM    8  O3  UNL     1      15.353 -12.892  18.489  1.00  0.00    -0.349 OA
HETATM    9  C11 UNL     1      15.864 -13.322  17.307  1.00  0.00     0.204 C
HETATM   10  O4  UNL     1      17.209 -13.706  17.388  1.00  0.00    -0.199 OA
HETATM   11  O5  UNL     1      17.903 -12.657  17.765  1.00  0.00    -0.224 OA
HETATM   12  C12 UNL     1      15.116 -14.503  16.726  1.00  0.00     0.052 C
HETATM   13  C13 UNL     1      15.837 -14.995  15.500  1.00  0.00     0.014 C
HETATM   14  C14 UNL     1      15.906 -13.885  14.480  1.00  0.00    -0.013 C
HETATM   15  C15 UNL     1      14.495 -13.531  14.064  1.00  0.00     0.009 C
HETATM   16  C16 UNL     1      13.745 -13.038  15.267  1.00  0.00    -0.013 C
HETATM   17  C17 UNL     1      13.708 -14.146  16.316  1.00  0.00     0.014 C
HETATM   18  C18 UNL     1      14.390 -11.845  15.922  1.00  0.00     0.014 C
HETATM   19  C19 UNL     1      15.793 -12.190  16.303  1.00  0.00     0.052 C
HETATM   20  C20 UNL     1      16.548 -12.658  15.067  1.00  0.00     0.014 C
ENDROOT
BRANCH   1  21
HETATM   21  C3  UNL     1      21.597 -11.268  20.497  1.00  0.00     0.263 C
HETATM   22  O2  UNL     1      22.688 -11.732  20.044  1.00  0.00    -0.265 OA
BRANCH  21  23
HETATM   23  O1  UNL     1      21.610 -10.579  21.678  1.00  0.00    -0.322 OA
BRANCH  23  24
HETATM   24  C2  UNL     1      21.901 -11.204  22.925  1.00  0.00     0.174 C
HETATM   25  C1  UNL     1      20.995 -10.706  24.020  1.00  0.00     0.034 C
ENDBRANCH  23  24
ENDBRANCH  21  23
ENDBRANCH   1  21
TORSDOF 3
ENDMDL