MODEL 1
REMARK VINA RESULT: -8.930282526      0.000      0.000
REMARK  2 active torsions:
REMARK  status: ('A' for Active; 'I' for Inactive)
REMARK    1  A    between atoms: N1_2  and  C3_5
REMARK    2  A    between atoms: C3_5  and  C4_6
ROOT
HETATM    1  C4  UNL     1      20.435 -11.669  20.439  1.00  0.00     0.020 C
HETATM    2  C5  UNL     1      19.808 -12.898  20.968  1.00  0.00     0.012 C
HETATM    3  C6  UNL     1      19.035 -13.721  20.000  1.00  0.00     0.075 C
HETATM    4  C7  UNL     1      18.607 -13.070  18.745  1.00  0.00     0.230 C
HETATM    5  C8  UNL     1      19.349 -11.863  18.306  1.00  0.00     0.075 C
HETATM    6  C9  UNL     1      20.714 -11.730  18.948  1.00  0.00     0.012 C
HETATM    7  O2  UNL     1      18.648 -13.989  17.668  1.00  0.00    -0.195 OA
HETATM    8  O3  UNL     1      17.906 -13.555  16.659  1.00  0.00    -0.194 OA
HETATM    9  C10 UNL     1      16.541 -13.622  16.988  1.00  0.00     0.237 C
HETATM   10  O4  UNL     1      16.465 -13.657  18.366  1.00  0.00    -0.194 OA
HETATM   11  O5  UNL     1      17.241 -12.703  18.827  1.00  0.00    -0.195 OA
HETATM   12  C11 UNL     1      15.890 -12.365  16.487  1.00  0.00     0.055 C
HETATM   13  C12 UNL     1      14.394 -12.395  16.606  1.00  0.00     0.015 C
HETATM   14  C13 UNL     1      13.850 -13.596  15.868  1.00  0.00    -0.013 C
HETATM   15  C14 UNL     1      14.205 -13.527  14.408  1.00  0.00     0.009 C
HETATM   16  C15 UNL     1      15.712 -13.454  14.287  1.00  0.00    -0.013 C
HETATM   17  C16 UNL     1      16.227 -12.245  15.006  1.00  0.00     0.015 C
HETATM   18  C17 UNL     1      16.318 -14.717  14.827  1.00  0.00     0.015 C
HETATM   19  C18 UNL     1      15.952 -14.822  16.314  1.00  0.00     0.055 C
HETATM   20  C19 UNL     1      14.460 -14.881  16.418  1.00  0.00     0.015 C
ENDROOT
BRANCH   1  21
HETATM   21  C3  UNL     1      21.716 -11.309  21.124  1.00  0.00     0.315 C
BRANCH  21  22
HETATM   22  N1  UNL     1      21.613 -10.808  22.452  1.00  0.00     0.005 N
HETATM   23  C1  UNL     1      21.480 -11.826  23.476  1.00  0.00     0.355 C
HETATM   24  C2  UNL     1      20.609  -9.786  22.637  1.00  0.00     0.355 C
HETATM   25  O1  UNL     1      22.833 -10.206  22.708  1.00  0.00    -0.065 OA
ENDBRANCH  21  22
ENDBRANCH   1  21
TORSDOF 2
ENDMDL