MODEL 1
REMARK VINA RESULT: -9.154827472      0.000      0.000
REMARK  3 active torsions:
REMARK  status: ('A' for Active; 'I' for Inactive)
REMARK    1  A    between atoms: C2_2  and  S1_4
REMARK    2  A    between atoms: S1_4  and  C3_5
REMARK    3  A    between atoms: C3_5  and  C5_7
ROOT
HETATM    1  C5  UNL     1      13.390  -6.851  24.626  1.00  0.00     0.069 C
HETATM    2  C6  UNL     1      12.961  -7.828  25.679  1.00  0.00     0.014 C
HETATM    3  C7  UNL     1      11.509  -7.840  25.967  1.00  0.00     0.011 C
HETATM    4  C8  UNL     1      10.601  -7.667  24.760  1.00  0.00    -0.033 C
HETATM    5  C9  UNL     1      10.098  -6.255  24.799  1.00  0.00     0.016 C
HETATM    6  C10 UNL     1       9.434  -8.610  24.982  1.00  0.00     0.012 C
HETATM    7  C11 UNL     1       9.188  -9.510  23.790  1.00  0.00     0.034 C
HETATM    8  C12 UNL     1       9.214  -8.606  22.578  1.00  0.00     0.141 C
HETATM    9  O2  UNL     1       8.547  -9.190  21.482  1.00  0.00    -0.315 OA
HETATM   10  C13 UNL     1       9.127 -10.059  20.612  1.00  0.00     0.259 C
HETATM   11  O3  UNL     1       8.444 -10.874  19.971  1.00  0.00    -0.265 OA
HETATM   12  C14 UNL     1      10.593 -10.017  20.442  1.00  0.00     0.112 C
HETATM   13  C15 UNL     1      11.318  -9.509  21.628  1.00  0.00     0.022 C
HETATM   14  C16 UNL     1      10.678  -8.290  22.297  1.00  0.00    -0.006 C
HETATM   15  C17 UNL     1      10.677  -7.210  21.246  1.00  0.00     0.019 C
HETATM   16  C18 UNL     1      11.417  -8.000  23.540  1.00  0.00     0.074 C
HETATM   17  C19 UNL     1      12.486  -6.978  23.453  1.00  0.00     0.138 C
HETATM   18  O4  UNL     1      12.688  -6.242  22.514  1.00  0.00    -0.297 OA
ENDROOT
BRANCH   1  19
HETATM   19  C3  UNL     1      14.834  -7.064  24.267  1.00  0.00     0.062 C
HETATM   20  C4  UNL     1      15.722  -7.178  25.479  1.00  0.00     0.022 C
BRANCH  19  21
HETATM   21  S1  UNL     1      15.080  -8.480  23.185  1.00  0.00    -0.088 SA
BRANCH  21  22
HETATM   22  C2  UNL     1      16.559  -8.309  22.197  1.00  0.00     0.182 C
HETATM   23  C1  UNL     1      17.203  -9.393  21.438  1.00  0.00     0.104 C
HETATM   24  O1  UNL     1      17.103  -7.198  22.130  1.00  0.00    -0.286 OA
ENDBRANCH  21  22
ENDBRANCH  19  21
ENDBRANCH   1  19
TORSDOF 3
ENDMDL