MODEL 1
REMARK VINA RESULT: -8.264204865      0.000      0.000
REMARK  2 active torsions:
REMARK  status: ('A' for Active; 'I' for Inactive)
REMARK    1  A    between atoms: C2_2  and  C3_3
REMARK    2  A    between atoms: C3_3  and  C4_4
ROOT
HETATM    1  C4  UNL     1      11.512  -4.383  23.471  1.00  0.00     0.085 C
HETATM    2  C5  UNL     1      10.865  -3.452  24.511  1.00  0.00     0.049 C
HETATM    3  C6  UNL     1      12.983  -4.506  23.682  1.00  0.00     0.209 C
HETATM    4  O1  UNL     1      13.218  -5.769  23.316  1.00  0.00    -0.347 OA
HETATM    5  C7  UNL     1      12.088  -6.585  23.508  1.00  0.00     0.233 C
HETATM    6  O2  UNL     1      11.098  -5.649  23.546  1.00  0.00    -0.337 OA
HETATM    7  C8  UNL     1      12.311  -7.396  24.710  1.00  0.00     0.117 C
HETATM    8  C9  UNL     1      12.234  -6.609  26.032  1.00  0.00     0.052 C
HETATM    9  C10 UNL     1      13.704  -7.948  24.633  1.00  0.00     0.044 C
HETATM   10  C11 UNL     1      14.350  -8.013  23.304  1.00  0.00     0.011 C
HETATM   11  C12 UNL     1      13.420  -8.082  22.097  1.00  0.00     0.030 C
HETATM   12  C13 UNL     1      13.298  -9.606  21.860  1.00  0.00     0.009 C
HETATM   13  C14 UNL     1      12.036  -9.912  22.699  1.00  0.00     0.016 C
HETATM   14  C15 UNL     1      11.290  -8.781  22.310  1.00  0.00     0.032 C
HETATM   15  C16 UNL     1      11.027  -9.044  20.789  1.00  0.00     0.022 C
HETATM   16  C17 UNL     1      10.064  -8.230  22.800  1.00  0.00     0.124 C
HETATM   17  C18 UNL     1       8.794  -8.978  22.375  1.00  0.00     0.052 C
HETATM   18  C19 UNL     1      10.093  -8.062  24.266  1.00  0.00     0.210 C
HETATM   19  O3  UNL     1      11.314  -8.325  24.841  1.00  0.00    -0.372 OA
HETATM   20  O4  UNL     1      10.061  -7.062  22.015  1.00  0.00    -0.226 OA
HETATM   21  O5  UNL     1      11.290  -6.902  21.480  1.00  0.00    -0.222 OA
HETATM   22  C20 UNL     1      12.121  -7.516  22.332  1.00  0.00     0.169 C
ENDROOT
BRANCH   1  23
HETATM   23  C3  UNL     1      11.307  -3.647  22.164  1.00  0.00     0.066 C
BRANCH  23  24
HETATM   24  C2  UNL     1      10.881  -2.254  22.353  1.00  0.00    -0.034 C
HETATM   25  C1  UNL     1      10.106  -1.664  21.469  1.00  0.00     0.007 C
ENDBRANCH  23  24
ENDBRANCH   1  23
TORSDOF 2
ENDMDL