MODEL 1
REMARK VINA RESULT: -9.855470233      0.000      0.000
REMARK  2 active torsions:
REMARK  status: ('A' for Active; 'I' for Inactive)
REMARK    1  A    between atoms: C2_2  and  O1_4
REMARK    2  A    between atoms: O1_4  and  N1_5
ROOT
HETATM    1  N1  UNL     1      10.279  -6.135  29.373  1.00  0.00    -0.275 N
ATOM      2  H1  UNL     1      10.812  -5.265  29.407  1.00  0.00     0.193 HD
HETATM    3  C4  UNL     1      10.212  -6.752  28.236  1.00  0.00     0.010 C
HETATM    4  C5  UNL     1       9.439  -8.016  28.195  1.00  0.00     0.054 C
HETATM    5  C6  UNL     1       8.788  -8.277  26.869  1.00  0.00     0.006 C
HETATM    6  C7  UNL     1       9.706  -9.224  26.091  1.00  0.00     0.000 C
HETATM    7  C8  UNL     1       9.077  -9.644  24.780  1.00  0.00     0.000 C
HETATM    8  C9  UNL     1       9.939  -9.045  23.671  1.00  0.00     0.000 C
HETATM    9  C10 UNL     1       9.384  -9.288  22.312  1.00  0.00     0.000 C
HETATM   10  C11 UNL     1       9.676  -8.170  21.341  1.00  0.00     0.000 C
HETATM   11  C12 UNL     1      11.077  -7.659  21.427  1.00  0.00     0.001 C
HETATM   12  C13 UNL     1      11.160  -6.156  21.129  1.00  0.00     0.017 C
HETATM   13  C14 UNL     1      11.223  -5.451  22.440  1.00  0.00     0.171 C
HETATM   14  S1  UNL     1      11.901  -3.849  22.390  1.00  0.00     0.265 S
HETATM   15  O2  UNL     1      10.814  -2.867  22.045  1.00  0.00    -0.199 OA
HETATM   16  O3  UNL     1      13.055  -3.702  21.463  1.00  0.00    -0.199 OA
HETATM   17  O4  UNL     1      12.427  -3.454  23.949  1.00  0.00    -0.276 OA
HETATM   18  C15 UNL     1      11.491  -3.757  24.912  1.00  0.00     0.190 C
HETATM   19  C16 UNL     1      12.196  -4.320  26.145  1.00  0.00     0.028 C
HETATM   20  C17 UNL     1      11.207  -4.730  27.201  1.00  0.00     0.008 C
HETATM   21  C18 UNL     1      10.885  -6.200  27.058  1.00  0.00     0.054 C
ENDROOT
BRANCH   1  22
HETATM   22  O1  UNL     1       9.696  -6.559  30.518  1.00  0.00    -0.276 OA
BRANCH  22  23
HETATM   23  C2  UNL     1       8.690  -5.874  31.214  1.00  0.00     0.144 C
HETATM   24  C1  UNL     1       8.468  -6.603  32.544  1.00  0.00     0.042 C
HETATM   25  C3  UNL     1       9.038  -4.454  31.549  1.00  0.00     0.042 C
ENDBRANCH  22  23
ENDBRANCH   1  22
TORSDOF 2
ENDMDL