MODEL 1
REMARK VINA RESULT: -9.329984482      0.000      0.000
REMARK  3 active torsions:
REMARK  status: ('A' for Active; 'I' for Inactive)
REMARK    1  A    between atoms: C2_2  and  O1_3
REMARK    2  A    between atoms: O1_3  and  C3_4
REMARK    3  A    between atoms: C3_4  and  C4_6
ROOT
HETATM    1  C4  UNL     1      19.502 -11.256  20.053  1.00  0.00     0.090 C
HETATM    2  C5  UNL     1      20.640 -11.641  20.978  1.00  0.00     0.015 C
HETATM    3  C6  UNL     1      21.979 -11.595  20.282  1.00  0.00     0.001 C
HETATM    4  C7  UNL     1      21.994 -12.255  18.952  1.00  0.00     0.000 C
HETATM    5  C8  UNL     1      21.075 -13.426  18.817  1.00  0.00     0.006 C
HETATM    6  C9  UNL     1      19.974 -13.067  17.859  1.00  0.00     0.071 C
HETATM    7  C10 UNL     1      18.618 -13.010  18.486  1.00  0.00     0.201 C
HETATM    8  C11 UNL     1      18.610 -12.459  19.881  1.00  0.00     0.086 C
HETATM    9  O3  UNL     1      17.985 -14.260  18.534  1.00  0.00    -0.197 OA
HETATM   10  O4  UNL     1      16.708 -13.865  18.600  1.00  0.00    -0.197 OA
HETATM   11  C12 UNL     1      16.655 -13.088  17.416  1.00  0.00     0.205 C
HETATM   12  C13 UNL     1      15.465 -12.217  17.387  1.00  0.00     0.076 C
HETATM   13  C14 UNL     1      14.573 -12.375  16.201  1.00  0.00    -0.009 C
HETATM   14  C15 UNL     1      13.954 -13.749  16.185  1.00  0.00     0.010 C
HETATM   15  C16 UNL     1      14.956 -14.616  15.474  1.00  0.00    -0.009 C
HETATM   16  C17 UNL     1      15.914 -15.247  16.470  1.00  0.00     0.015 C
HETATM   17  C18 UNL     1      16.806 -14.031  16.280  1.00  0.00     0.056 C
HETATM   18  C19 UNL     1      16.091 -13.711  15.038  1.00  0.00    -0.001 C
HETATM   19  C20 UNL     1      15.484 -12.349  14.965  1.00  0.00     0.010 C
HETATM   20  O5  UNL     1      17.786 -12.287  17.622  1.00  0.00    -0.313 OA
ENDROOT
BRANCH   1  21
HETATM   21  C3  UNL     1      18.700 -10.225  20.766  1.00  0.00     0.263 C
HETATM   22  O2  UNL     1      18.972  -9.730  21.861  1.00  0.00    -0.265 OA
BRANCH  21  23
HETATM   23  O1  UNL     1      17.550  -9.802  20.113  1.00  0.00    -0.322 OA
BRANCH  23  24
HETATM   24  C2  UNL     1      16.460  -9.208  20.747  1.00  0.00     0.174 C
HETATM   25  C1  UNL     1      15.293 -10.198  20.674  1.00  0.00     0.034 C
ENDBRANCH  23  24
ENDBRANCH  21  23
ENDBRANCH   1  21
TORSDOF 3
ENDMDL