MODEL 5
REMARK VINA RESULT: -8.354869307      0.631      1.208
REMARK  4 active torsions:
REMARK  status: ('A' for Active; 'I' for Inactive)
REMARK    1  A    between atoms: C1_1  and  C9_9
REMARK    2  A    between atoms: C2_2  and  C3_3
REMARK    3  A    between atoms: C9_9  and  N1_10
REMARK    4  A    between atoms: C14_17  and  C15_18
ROOT
HETATM    1  N1  UNL     1      14.298  -6.492  23.977  1.00  0.00    -0.363 N
HETATM    2  C10 UNL     1      14.606  -5.077  24.065  1.00  0.00     0.125 C
HETATM    3  C11 UNL     1      13.438  -4.310  23.486  1.00  0.00     0.026 C
HETATM    4  C12 UNL     1      12.118  -4.839  23.993  1.00  0.00     0.061 C
HETATM    5  C13 UNL     1      11.914  -6.224  23.416  1.00  0.00     0.044 A
HETATM    6  N2  UNL     1      10.840  -6.750  22.923  1.00  0.00    -0.350 N
ATOM      7  H2  UNL     1       9.976  -6.208  22.887  1.00  0.00     0.166 HD
HETATM    8  C14 UNL     1      10.864  -7.990  22.465  1.00  0.00     0.095 A
HETATM    9  S2  UNL     1      12.478  -8.455  22.735  1.00  0.00    -0.051 SA
HETATM   10  C18 UNL     1      13.051  -6.988  23.444  1.00  0.00     0.097 A
ENDROOT
BRANCH   1  11
HETATM   11  C9  UNL     1      15.227  -7.514  24.419  1.00  0.00     0.217 C
BRANCH  11  12
HETATM   12  C1  UNL     1      15.804  -8.140  23.218  1.00  0.00    -0.086 C
HETATM   13  C2  UNL     1      16.276  -8.680  22.236  1.00  0.00    -0.100 C
BRANCH  13  14
HETATM   14  C3  UNL     1      16.832  -9.354  21.063  1.00  0.00     0.065 C
HETATM   15  C4  UNL     1      15.896 -10.431  20.630  1.00  0.00     0.017 C
HETATM   16  C5  UNL     1      16.425 -11.061  19.356  1.00  0.00     0.001 C
HETATM   17  C6  UNL     1      17.767 -10.507  18.974  1.00  0.00     0.000 C
HETATM   18  C7  UNL     1      18.736 -10.575  20.126  1.00  0.00     0.001 C
HETATM   19  C8  UNL     1      18.167  -9.999  21.404  1.00  0.00     0.017 C
ENDBRANCH  13  14
ENDBRANCH  11  12
ENDBRANCH   1  11
BRANCH   8  20
HETATM   20  C15 UNL     1       9.701  -8.674  21.887  1.00  0.00     0.055 A
HETATM   21  C16 UNL     1       9.235  -8.605  20.593  1.00  0.00     0.109 A
HETATM   22  N3  UNL     1       8.184  -9.299  20.301  1.00  0.00    -0.368 N
HETATM   23  C17 UNL     1       7.597 -10.039  21.230  1.00  0.00     0.138 A
ATOM     24  H3  UNL     1       7.805  -9.277  19.354  1.00  0.00     0.165 HD
HETATM   25  S1  UNL     1       8.578  -9.744  22.598  1.00  0.00    -0.081 SA
ENDBRANCH   8  20
TORSDOF 4
ENDMDL