MODEL 3
REMARK VINA RESULT: -8.854124397      1.699      2.444
REMARK  3 active torsions:
REMARK  status: ('A' for Active; 'I' for Inactive)
REMARK    1  A    between atoms: C2_2  and  C3_3
REMARK    2  A    between atoms: C4_5  and  C5_6
REMARK    3  A    between atoms: C5_6  and  C6_7
ROOT
HETATM    1  C6  UNL     1      10.694  -7.510  25.516  1.00  0.00     0.077 C
HETATM    2  C7  UNL     1      12.064  -8.055  25.769  1.00  0.00     0.040 C
HETATM    3  C8  UNL     1      12.904  -7.778  24.542  1.00  0.00     0.010 C
HETATM    4  C9  UNL     1      13.073  -6.304  24.439  1.00  0.00     0.017 C
HETATM    5  C10 UNL     1      13.948  -5.833  25.607  1.00  0.00     0.013 C
HETATM    6  C11 UNL     1      11.788  -5.532  24.375  1.00  0.00     0.081 C
HETATM    7  C12 UNL     1      12.164  -4.114  24.808  1.00  0.00     0.040 C
HETATM    8  C13 UNL     1      11.178  -3.081  24.384  1.00  0.00     0.013 C
HETATM    9  C14 UNL     1      11.365  -2.851  22.878  1.00  0.00     0.111 C
HETATM   10  C15 UNL     1      11.670  -4.191  22.304  1.00  0.00     0.259 C
HETATM   11  O2  UNL     1      12.117  -4.210  21.121  1.00  0.00    -0.265 OA
HETATM   12  O3  UNL     1      11.494  -5.376  22.974  1.00  0.00    -0.309 OA
HETATM   13  C16 UNL     1      10.618  -6.109  25.049  1.00  0.00     0.062 C
HETATM   14  C17 UNL     1      10.103  -5.342  26.239  1.00  0.00     0.075 C
HETATM   15  C18 UNL     1      10.040  -6.318  27.359  1.00  0.00     0.049 C
HETATM   16  C19 UNL     1      10.016  -6.019  28.640  1.00  0.00    -0.058 C
HETATM   17  C20 UNL     1      10.052  -4.593  29.044  1.00  0.00     0.045 C
HETATM   18  C21 UNL     1       9.953  -7.047  29.711  1.00  0.00     0.045 C
HETATM   19  O4  UNL     1      10.014  -7.569  26.782  1.00  0.00    -0.343 OA
ENDROOT
BRANCH   1  20
HETATM   20  C5  UNL     1       9.966  -8.519  24.652  1.00  0.00     0.067 C
BRANCH  20  21
HETATM   21  C4  UNL     1       9.882  -8.144  23.237  1.00  0.00    -0.014 C
HETATM   22  C2  UNL     1       9.254  -8.915  22.372  1.00  0.00    -0.028 C
HETATM   23  C1  UNL     1       8.620 -10.181  22.839  1.00  0.00     0.051 C
BRANCH  22  24
HETATM   24  C3  UNL     1       9.159  -8.566  20.967  1.00  0.00     0.265 C
HETATM   25  O1  UNL     1       8.273  -9.105  20.273  1.00  0.00    -0.302 OA
ENDBRANCH  22  24
ENDBRANCH  20  21
ENDBRANCH   1  20
TORSDOF 3
ENDMDL