MODEL 2
REMARK VINA RESULT: -7.209114654      6.988      9.644
REMARK  7 active torsions:
REMARK  status: ('A' for Active; 'I' for Inactive)
REMARK    1  A    between atoms: C1_1  and  C2_2
REMARK    2  A    between atoms: C1_1  and  O3_19
REMARK    3  A    between atoms: C2_2  and  N1_3
REMARK    4  A    between atoms: C6_8  and  C7_9
REMARK    5  A    between atoms: C8_13  and  C9_14
REMARK    6  A    between atoms: O3_19  and  C12_20
REMARK    7  A    between atoms: C12_20  and  C13_21
ROOT
HETATM    1  N1  UNL     1      16.991 -12.724  18.606  1.00  0.00    -0.356 N
HETATM    2  C3  UNL     1      17.579 -13.972  18.339  1.00  0.00     0.090 C
HETATM    3  C4  UNL     1      19.059 -13.848  18.666  1.00  0.00     0.212 C
HETATM    4  O1  UNL     1      19.705 -12.940  17.871  1.00  0.00    -0.384 OA
HETATM    5  C5  UNL     1      18.999 -11.815  17.553  1.00  0.00     0.201 C
HETATM    6  C6  UNL     1      17.768 -11.569  18.337  1.00  0.00     0.181 C
ENDROOT
BRANCH   6   7
HETATM    7  C7  UNL     1      18.011 -10.832  19.604  1.00  0.00     0.129 A
HETATM    8  N2  UNL     1      19.130 -10.656  20.306  1.00  0.00    -0.245 N
HETATM    9  O2  UNL     1      18.878  -9.951  21.348  1.00  0.00    -0.222 OA
ATOM     10  H2  UNL     1      20.046 -11.025  20.053  1.00  0.00     0.196 HD
HETATM   11  C8  UNL     1      17.605  -9.625  21.397  1.00  0.00     0.152 A
HETATM   12  N3  UNL     1      17.047 -10.170  20.309  1.00  0.00    -0.325 N
ATOM     13  H3  UNL     1      16.062 -10.102  20.048  1.00  0.00     0.169 HD
BRANCH  11  14
HETATM   14  C9  UNL     1      16.927  -8.808  22.461  1.00  0.00     0.063 A
HETATM   15  C10 UNL     1      17.262  -7.320  22.541  1.00  0.00     0.013 A
HETATM   16  C11 UNL     1      17.761  -8.304  23.582  1.00  0.00     0.013 A
ENDBRANCH  11  14
ENDBRANCH   6   7
BRANCH   1  17
HETATM   17  C2  UNL     1      15.625 -12.596  18.762  1.00  0.00     0.090 C
BRANCH  17  18
HETATM   18  C1  UNL     1      14.831 -12.052  17.591  1.00  0.00     0.212 C
BRANCH  18  19
HETATM   19  O3  UNL     1      14.258 -13.159  16.979  1.00  0.00    -0.386 OA
BRANCH  19  20
HETATM   20  C12 UNL     1      14.154 -13.065  15.622  1.00  0.00     0.176 C
BRANCH  20  21
HETATM   21  C13 UNL     1      14.916 -14.067  14.819  1.00  0.00     0.057 C
HETATM   22  C14 UNL     1      15.337 -15.215  15.750  1.00  0.00     0.176 C
HETATM   23  O4  UNL     1      16.517 -15.271  15.045  1.00  0.00    -0.390 OA
HETATM   24  C15 UNL     1      16.419 -13.886  14.779  1.00  0.00     0.176 C
ENDBRANCH  20  21
ENDBRANCH  19  20
ENDBRANCH  18  19
ENDBRANCH  17  18
ENDBRANCH   1  17
TORSDOF 7
ENDMDL