MODEL 2
REMARK VINA RESULT: -7.154774995      2.356      3.632
REMARK  11 active torsions:
REMARK  status: ('A' for Active; 'I' for Inactive)
REMARK    1  A    between atoms: N1_3  and  C3_4
REMARK    2  A    between atoms: N1_3  and  C7_20
REMARK    3  A    between atoms: C3_4  and  O1_5
REMARK    4  A    between atoms: O1_5  and  C4_6
REMARK    5  A    between atoms: C4_6  and  C5_8
REMARK    6  A    between atoms: C5_8  and  C6_9
REMARK    7  A    between atoms: C5_8  and  N3_14
REMARK    8  A    between atoms: C6_9  and  O3_10
REMARK    9  A    between atoms: O3_10  and  N2_11
REMARK   10  A    between atoms: N3_14  and  N4_16
REMARK   11  A    between atoms: N4_16  and  N5_17
ROOT
HETATM    1  C1  UNL     1      21.268 -11.474  16.072  1.00  0.00     0.037 C
HETATM    2  C2  UNL     1      20.487 -11.913  16.873  1.00  0.00     0.003 C
HETATM    3  N1  UNL     1      19.591 -12.389  17.838  1.00  0.00    -0.292 N
ENDROOT
BRANCH   3   4
HETATM    4  C3  UNL     1      18.960 -13.655  17.859  1.00  0.00     0.248 C
BRANCH   4   5
HETATM    5  O1  UNL     1      18.201 -14.103  16.810  1.00  0.00    -0.271 OA
BRANCH   5   6
HETATM    6  C4  UNL     1      16.775 -14.044  16.844  1.00  0.00     0.292 C
HETATM    7  O2  UNL     1      16.208 -15.110  17.008  1.00  0.00    -0.262 OA
BRANCH   6   8
HETATM    8  C5  UNL     1      16.075 -12.774  16.753  1.00  0.00     0.240 C
BRANCH   8   9
HETATM    9  C6  UNL     1      15.495 -12.280  15.497  1.00  0.00     0.246 C
BRANCH   9  10
HETATM   10  O3  UNL     1      16.427 -12.675  14.425  1.00  0.00    -0.219 OA
BRANCH  10  11
HETATM   11  N2  UNL     1      15.739 -13.534  13.521  1.00  0.00     0.005 N
HETATM   12  O4  UNL     1      16.112 -13.819  12.409  1.00  0.00    -0.511 OA
HETATM   13  O5  UNL     1      14.602 -14.149  14.053  1.00  0.00    -0.511 OA
ENDBRANCH  10  11
ENDBRANCH   9  10
ENDBRANCH   8   9
BRANCH   8  14
HETATM   14  N3  UNL     1      14.950 -12.959  17.736  1.00  0.00    -0.236 N
ATOM     15  H3  UNL     1      14.397 -13.815  17.770  1.00  0.00     0.198 HD
BRANCH  14  16
HETATM   16  N4  UNL     1      14.736 -12.008  18.500  1.00  0.00    -0.248 NA
BRANCH  16  17
HETATM   17  N5  UNL     1      14.450 -11.203  19.361  1.00  0.00    -0.261 N
ATOM     18  H52 UNL     1      15.376 -11.373  19.753  1.00  0.00     0.193 HD
ATOM     19  H51 UNL     1      14.072 -10.514  20.010  1.00  0.00     0.193 HD
ENDBRANCH  16  17
ENDBRANCH  14  16
ENDBRANCH   8  14
ENDBRANCH   6   8
ENDBRANCH   5   6
ENDBRANCH   4   5
ENDBRANCH   3   4
BRANCH   3  20
HETATM   20  C7  UNL     1      19.383 -11.479  18.971  1.00  0.00     0.100 C
HETATM   21  C8  UNL     1      20.601 -11.539  19.879  1.00  0.00     0.026 C
HETATM   22  C9  UNL     1      20.170 -11.167  21.274  1.00  0.00     0.002 C
HETATM   23  C10 UNL     1      19.242  -9.980  21.290  1.00  0.00     0.000 C
HETATM   24  C11 UNL     1      17.975 -10.278  20.524  1.00  0.00     0.002 C
HETATM   25  C12 UNL     1      18.090 -11.558  19.677  1.00  0.00     0.026 C
ENDBRANCH   3  20
TORSDOF 11
ENDMDL