MODEL 5
REMARK VINA RESULT: -6.558432595      3.128      5.760
REMARK  9 active torsions:
REMARK  status: ('A' for Active; 'I' for Inactive)
REMARK    1  A    between atoms: C2_2  and  C3_3
REMARK    2  A    between atoms: C3_3  and  O1_4
REMARK    3  A    between atoms: O1_4  and  C4_5
REMARK    4  A    between atoms: C4_5  and  C5_6
REMARK    5  A    between atoms: C4_5  and  C12_17
REMARK    6  A    between atoms: C5_6  and  C6_7
REMARK    7  A    between atoms: C6_7  and  C8_9
REMARK    8  A    between atoms: C8_9  and  O3_11
REMARK    9  A    between atoms: O3_11  and  C9_12
ROOT
HETATM    1  C4  UNL     1      15.752 -12.007  18.766  1.00  0.00     0.190 C
ENDROOT
BRANCH   1   2
HETATM    2  O1  UNL     1      16.637 -12.842  19.338  1.00  0.00    -0.351 OA
BRANCH   2   3
HETATM    3  C3  UNL     1      17.928 -12.612  19.040  1.00  0.00     0.135 C
BRANCH   3   4
HETATM    4  C2  UNL     1      18.605 -11.365  19.268  1.00  0.00     0.014 C
HETATM    5  C1  UNL     1      19.351 -10.961  20.248  1.00  0.00     0.013 C
ENDBRANCH   3   4
ENDBRANCH   2   3
ENDBRANCH   1   2
BRANCH   1   6
HETATM    6  C5  UNL     1      14.593 -11.646  19.705  1.00  0.00     0.083 C
BRANCH   6   7
HETATM    7  C6  UNL     1      14.803 -10.497  20.553  1.00  0.00     0.011 C
HETATM    8  C7  UNL     1      15.872  -9.743  20.656  1.00  0.00     0.025 C
BRANCH   7   9
HETATM    9  C8  UNL     1      13.670 -10.106  21.427  1.00  0.00     0.292 C
HETATM   10  O2  UNL     1      13.885  -9.417  22.451  1.00  0.00    -0.259 OA
BRANCH   9  11
HETATM   11  O3  UNL     1      12.372 -10.466  21.168  1.00  0.00    -0.261 OA
BRANCH  11  12
HETATM   12  C9  UNL     1      11.313  -9.575  21.437  1.00  0.00     0.421 C
HETATM   13  O4  UNL     1      10.514  -9.386  20.285  1.00  0.00    -0.337 OA
HETATM   14  C10 UNL     1       9.489  -8.597  20.825  1.00  0.00     0.199 C
HETATM   15  C11 UNL     1       9.325  -9.184  22.229  1.00  0.00     0.199 C
HETATM   16  O5  UNL     1      10.379 -10.092  22.322  1.00  0.00    -0.337 OA
ENDBRANCH  11  12
ENDBRANCH   9  11
ENDBRANCH   7   9
ENDBRANCH   6   7
ENDBRANCH   1   6
BRANCH   1  17
HETATM   17  C12 UNL     1      15.205 -12.306  17.455  1.00  0.00     0.097 C
HETATM   18  C13 UNL     1      14.018 -12.761  17.150  1.00  0.00     0.169 C
HETATM   19  O6  UNL     1      13.690 -12.979  15.829  1.00  0.00    -0.358 OA
HETATM   20  C14 UNL     1      14.609 -13.142  14.778  1.00  0.00     0.201 C
HETATM   21  C15 UNL     1      15.993 -12.704  15.133  1.00  0.00     0.202 C
HETATM   22  O7  UNL     1      16.073 -12.071  16.368  1.00  0.00    -0.349 OA
ENDBRANCH   1  17
TORSDOF 9
ENDMDL