MODEL 2
REMARK VINA RESULT: -7.166917013      1.727      2.473
REMARK  7 active torsions:
REMARK  status: ('A' for Active; 'I' for Inactive)
REMARK    1  A    between atoms: C2_2  and  O1_3
REMARK    2  A    between atoms: O1_3  and  C3_4
REMARK    3  A    between atoms: C3_4  and  C4_5
REMARK    4  A    between atoms: C7_8  and  C8_9
REMARK    5  A    between atoms: C8_9  and  O2_10
REMARK    6  A    between atoms: O2_10  and  C9_11
REMARK    7  A    between atoms: C9_11  and  C10_12
ROOT
HETATM    1  C8  UNL     1      19.125 -11.447  19.423  1.00  0.00     0.199 C
ENDROOT
BRANCH   1   2
HETATM    2  C7  UNL     1      18.200 -10.751  20.394  1.00  0.00     0.145 C
HETATM    3  C6  UNL     1      16.930 -10.296  19.781  1.00  0.00     0.034 C
HETATM    4  C5  UNL     1      16.432  -9.077  20.506  1.00  0.00     0.011 C
HETATM    5  C4  UNL     1      16.725  -9.267  22.011  1.00  0.00     0.033 C
HETATM    6  C14 UNL     1      18.216  -9.315  22.197  1.00  0.00     0.174 C
HETATM    7  O7  UNL     1      18.855  -9.725  21.012  1.00  0.00    -0.383 OA
BRANCH   5   8
HETATM    8  C3  UNL     1      16.137  -8.055  22.662  1.00  0.00     0.174 C
BRANCH   8   9
HETATM    9  O1  UNL     1      16.703  -6.860  22.550  1.00  0.00    -0.391 OA
BRANCH   9  10
HETATM   10  C2  UNL     1      17.031  -6.102  23.597  1.00  0.00     0.163 C
HETATM   11  C1  UNL     1      18.556  -5.805  23.496  1.00  0.00     0.033 C
ENDBRANCH   9  10
ENDBRANCH   8   9
ENDBRANCH   5   8
ENDBRANCH   1   2
BRANCH   1  12
HETATM   12  O2  UNL     1      18.633 -11.514  18.143  1.00  0.00    -0.384 OA
BRANCH  12  13
HETATM   13  C9  UNL     1      18.911 -12.765  17.629  1.00  0.00     0.234 C
BRANCH  13  14
HETATM   14  C10 UNL     1      17.680 -13.579  17.327  1.00  0.00     0.357 C
HETATM   15  O3  UNL     1      17.947 -14.524  16.367  1.00  0.00    -0.200 OA
HETATM   16  O4  UNL     1      16.927 -14.886  15.653  1.00  0.00    -0.196 OA
HETATM   17  C11 UNL     1      16.132 -13.849  15.214  1.00  0.00     0.222 C
HETATM   18  C12 UNL     1      14.762 -13.978  15.892  1.00  0.00     0.084 C
HETATM   19  C13 UNL     1      15.982 -13.769  13.730  1.00  0.00     0.084 C
HETATM   20  O5  UNL     1      16.657 -12.620  15.654  1.00  0.00    -0.196 OA
HETATM   21  O6  UNL     1      16.672 -12.684  16.967  1.00  0.00    -0.200 OA
ENDBRANCH  13  14
ENDBRANCH  12  13
ENDBRANCH   1  12
TORSDOF 7
ENDMDL