MODEL 2
REMARK VINA RESULT: -7.065484857      1.888      2.781
REMARK  7 active torsions:
REMARK  status: ('A' for Active; 'I' for Inactive)
REMARK    1  A    between atoms: N1_2  and  C2_3
REMARK    2  A    between atoms: N1_2  and  C11_17
REMARK    3  A    between atoms: C2_3  and  C3_4
REMARK    4  A    between atoms: C5_6  and  C6_7
REMARK    5  A    between atoms: C6_7  and  O1_8
REMARK    6  A    between atoms: O1_8  and  C7_9
REMARK    7  A    between atoms: C11_17  and  C12_18
ROOT
HETATM    1  C3  UNL     1      17.681 -10.854  19.564  1.00  0.00     0.106 A
HETATM    2  C4  UNL     1      16.782 -10.065  20.231  1.00  0.00     0.066 A
HETATM    3  C5  UNL     1      17.480  -9.481  21.308  1.00  0.00     0.058 A
HETATM    4  N2  UNL     1      18.715  -9.948  21.222  1.00  0.00    -0.263 N
ATOM      5  H2  UNL     1      19.475  -9.717  21.860  1.00  0.00     0.194 HD
HETATM    6  O3  UNL     1      18.812 -10.751  20.192  1.00  0.00    -0.240 OA
ENDROOT
BRANCH   1   7
HETATM    7  C2  UNL     1      17.420 -11.666  18.360  1.00  0.00     0.339 C
BRANCH   7   8
HETATM    8  N1  UNL     1      16.548 -12.819  18.660  1.00  0.00     0.092 N
HETATM    9  C1  UNL     1      17.158 -13.994  17.974  1.00  0.00     0.310 C
BRANCH   8  10
HETATM   10  C11 UNL     1      15.332 -12.613  17.863  1.00  0.00     0.306 C
BRANCH  10  11
HETATM   11  C12 UNL     1      15.483 -13.025  16.456  1.00  0.00     0.173 C
HETATM   12  C13 UNL     1      14.257 -13.776  15.930  1.00  0.00     0.201 C
HETATM   13  O4  UNL     1      14.727 -14.591  14.883  1.00  0.00    -0.386 OA
HETATM   14  C14 UNL     1      15.209 -13.755  13.879  1.00  0.00     0.193 C
HETATM   15  C15 UNL     1      16.182 -12.731  14.357  1.00  0.00     0.194 C
HETATM   16  O5  UNL     1      15.854 -12.098  15.538  1.00  0.00    -0.380 OA
ENDBRANCH  10  11
ENDBRANCH   8  10
ENDBRANCH   7   8
ENDBRANCH   1   7
BRANCH   3  17
HETATM   17  C6  UNL     1      16.955  -8.515  22.274  1.00  0.00     0.227 C
BRANCH  17  18
HETATM   18  O1  UNL     1      15.679  -8.096  22.038  1.00  0.00    -0.378 OA
BRANCH  18  19
HETATM   19  C7  UNL     1      14.793  -8.654  22.928  1.00  0.00     0.147 C
HETATM   20  C8  UNL     1      14.439  -7.680  24.040  1.00  0.00     0.060 C
HETATM   21  C9  UNL     1      13.189  -7.002  23.489  1.00  0.00     0.170 C
HETATM   22  O2  UNL     1      13.128  -7.375  22.131  1.00  0.00    -0.389 OA
HETATM   23  C10 UNL     1      13.444  -8.720  22.197  1.00  0.00     0.199 C
ENDBRANCH  18  19
ENDBRANCH  17  18
ENDBRANCH   3  17
TORSDOF 7
ENDMDL