MODEL 2
REMARK VINA RESULT: -7.718536877      0.032      1.026
REMARK  8 active torsions:
REMARK  status: ('A' for Active; 'I' for Inactive)
REMARK    1  A    between atoms: O1_2  and  C2_3
REMARK    2  A    between atoms: N1_4  and  C3_5
REMARK    3  A    between atoms: C3_5  and  C4_6
REMARK    4  A    between atoms: N3_16  and  N4_17
REMARK    5  A    between atoms: N4_17  and  O2_18
REMARK    6  A    between atoms: N5_20  and  O3_22
REMARK    7  A    between atoms: O3_22  and  N6_23
REMARK    8  A    between atoms: N6_23  and  O4_25
ROOT
HETATM    1  C4  UNL     1      19.342 -10.595  20.929  1.00  0.00    -0.030 A
HETATM    2  C5  UNL     1      20.404 -10.415  21.826  1.00  0.00     0.010 A
HETATM    3  C6  UNL     1      20.277  -9.544  22.881  1.00  0.00     0.023 A
HETATM    4  C7  UNL     1      19.102  -8.848  23.051  1.00  0.00     0.044 A
HETATM    5  C8  UNL     1      18.951  -7.925  24.159  1.00  0.00     0.099 C
HETATM    6  N2  UNL     1      18.819  -7.195  25.043  1.00  0.00    -0.191 NA
HETATM    7  C9  UNL     1      18.050  -9.030  22.158  1.00  0.00     0.023 A
HETATM    8  C10 UNL     1      18.162  -9.901  21.095  1.00  0.00     0.010 A
ENDROOT
BRANCH   1   9
HETATM    9  C3  UNL     1      19.499 -11.538  19.791  1.00  0.00     0.317 C
BRANCH   9  10
HETATM   10  N1  UNL     1      18.240 -11.766  19.106  1.00  0.00     0.144 N
HETATM   11  C2  UNL     1      18.467 -11.858  17.657  1.00  0.00     0.487 C
HETATM   12  N3  UNL     1      17.875 -13.106  17.248  1.00  0.00    -0.228 N
HETATM   13  C12 UNL     1      18.045 -13.994  18.374  1.00  0.00     0.182 C
HETATM   14  C11 UNL     1      17.721 -13.054  19.517  1.00  0.00     0.300 C
BRANCH  11  15
HETATM   15  O1  UNL     1      19.827 -11.875  17.439  1.00  0.00    -0.346 OA
HETATM   16  C1  UNL     1      20.171 -11.381  16.180  1.00  0.00     0.206 C
ENDBRANCH  11  15
BRANCH  12  17
HETATM   17  N4  UNL     1      17.260 -13.455  16.056  1.00  0.00    -0.071 N
HETATM   18  N5  UNL     1      16.855 -12.575  15.223  1.00  0.00    -0.138 N
ATOM     19  H5  UNL     1      16.995 -11.592  15.453  1.00  0.00     0.222 HD
BRANCH  17  20
HETATM   20  O2  UNL     1      17.075 -14.774  15.757  1.00  0.00    -0.252 OA
ATOM     21  H2  UNL     1      17.426 -15.124  14.946  1.00  0.00     0.248 HD
ENDBRANCH  17  20
BRANCH  18  22
HETATM   22  O3  UNL     1      16.250 -12.881  14.048  1.00  0.00    -0.117 OA
BRANCH  22  23
HETATM   23  N6  UNL     1      14.916 -13.243  14.074  1.00  0.00    -0.147 N
ATOM     24  H6  UNL     1      14.203 -12.538  13.889  1.00  0.00     0.226 HD
BRANCH  23  25
HETATM   25  O4  UNL     1      14.568 -14.413  14.317  1.00  0.00    -0.268 OA
ATOM     26  H4  UNL     1      13.874 -14.603  14.938  1.00  0.00     0.246 HD
ENDBRANCH  23  25
ENDBRANCH  22  23
ENDBRANCH  18  22
ENDBRANCH  12  17
ENDBRANCH   9  10
ENDBRANCH   1   9
TORSDOF 8
ENDMDL