MODEL 5
REMARK VINA RESULT: -7.203747638      1.728      4.638
REMARK  11 active torsions:
REMARK  status: ('A' for Active; 'I' for Inactive)
REMARK    1  A    between atoms: O1_2  and  C2_3
REMARK    2  A    between atoms: C2_3  and  C3_5
REMARK    3  A    between atoms: C3_5  and  C4_6
REMARK    4  A    between atoms: C3_5  and  C11_19
REMARK    5  A    between atoms: C4_6  and  N1_7
REMARK    6  A    between atoms: N1_7  and  O3_9
REMARK    7  A    between atoms: O3_9  and  C5_10
REMARK    8  A    between atoms: C5_10  and  C6_11
REMARK    9  A    between atoms: C6_11  and  O4_14
REMARK   10  A    between atoms: O4_14  and  C8_15
REMARK   11  A    between atoms: C8_15  and  C9_16
ROOT
HETATM    1  C6  UNL     1      15.816 -13.437  16.427  1.00  0.00     0.253 C
HETATM    2  C7  UNL     1      15.128 -13.817  15.159  1.00  0.00     0.093 C
HETATM    3  N2  UNL     1      14.565 -14.086  14.219  1.00  0.00    -0.194 NA
ENDROOT
BRANCH   1   4
HETATM    4  C5  UNL     1      17.119 -14.102  16.522  1.00  0.00     0.248 C
BRANCH   4   5
HETATM    5  O3  UNL     1      17.239 -14.414  17.944  1.00  0.00    -0.269 OA
BRANCH   5   6
HETATM    6  N1  UNL     1      17.722 -13.529  18.690  1.00  0.00    -0.230 N
ATOM      7  H1  UNL     1      16.993 -13.368  19.385  1.00  0.00     0.204 HD
BRANCH   6   8
HETATM    8  C4  UNL     1      18.577 -12.790  19.002  1.00  0.00    -0.001 C
BRANCH   8   9
HETATM    9  C3  UNL     1      19.781 -12.123  19.001  1.00  0.00     0.114 C
BRANCH   9  10
HETATM   10  C2  UNL     1      20.564 -12.413  17.885  1.00  0.00     0.303 C
HETATM   11  O2  UNL     1      20.548 -13.494  17.217  1.00  0.00    -0.258 OA
BRANCH  10  12
HETATM   12  O1  UNL     1      21.494 -11.482  17.370  1.00  0.00    -0.322 OA
HETATM   13  C1  UNL     1      21.805 -11.456  15.982  1.00  0.00     0.213 C
ENDBRANCH  10  12
ENDBRANCH   9  10
BRANCH   9  14
HETATM   14  C11 UNL     1      19.842 -11.221  20.103  1.00  0.00    -0.011 A
HETATM   15  C12 UNL     1      18.773 -10.464  20.474  1.00  0.00     0.013 A
HETATM   16  C13 UNL     1      18.776  -9.699  21.626  1.00  0.00     0.001 A
HETATM   17  C14 UNL     1      19.897  -9.693  22.451  1.00  0.00     0.000 A
HETATM   18  C15 UNL     1      20.988 -10.442  22.097  1.00  0.00     0.001 A
HETATM   19  C16 UNL     1      20.953 -11.182  20.950  1.00  0.00     0.013 A
ENDBRANCH   9  14
ENDBRANCH   8   9
ENDBRANCH   6   8
ENDBRANCH   5   6
ENDBRANCH   4   5
ENDBRANCH   1   4
BRANCH   1  20
HETATM   20  O4  UNL     1      15.564 -12.157  16.723  1.00  0.00    -0.367 OA
BRANCH  20  21
HETATM   21  C8  UNL     1      14.396 -12.101  17.502  1.00  0.00     0.203 C
BRANCH  21  22
HETATM   22  C9  UNL     1      14.613 -12.270  18.958  1.00  0.00     0.169 A
HETATM   23  C10 UNL     1      14.055 -11.336  19.950  1.00  0.00     0.202 A
HETATM   24  O5  UNL     1      15.440 -11.333  19.605  1.00  0.00    -0.379 OA
ENDBRANCH  21  22
ENDBRANCH  20  21
ENDBRANCH   1  20
TORSDOF 11
ENDMDL