MODEL 5
REMARK VINA RESULT: -6.547356892      1.922      4.762
REMARK  7 active torsions:
REMARK  status: ('A' for Active; 'I' for Inactive)
REMARK    1  A    between atoms: C8_10  and  C9_11
REMARK    2  A    between atoms: C9_11  and  N2_12
REMARK    3  A    between atoms: N2_12  and  C10_13
REMARK    4  A    between atoms: N2_12  and  C12_16
REMARK    5  A    between atoms: C12_16  and  C13_17
REMARK    6  A    between atoms: C13_17  and  O2_18
REMARK    7  A    between atoms: O2_18  and  N4_19
ROOT
HETATM    1  C10 UNL     1      10.284  -9.735  21.171  1.00  0.00     0.395 C
HETATM    2  C11 UNL     1       8.886 -10.029  20.660  1.00  0.00     0.089 C
HETATM    3  N3  UNL     1       7.870 -10.220  20.194  1.00  0.00    -0.195 NA
ENDROOT
BRANCH   1   4
HETATM    4  N2  UNL     1      10.210  -8.432  21.828  1.00  0.00     0.103 N
BRANCH   4   5
HETATM    5  C9  UNL     1      11.017  -8.336  22.998  1.00  0.00     0.280 C
BRANCH   5   6
HETATM    6  C8  UNL     1      10.421  -7.620  24.177  1.00  0.00     0.041 C
HETATM    7  C7  UNL     1       9.534  -8.531  24.954  1.00  0.00     0.035 C
HETATM    8  C6  UNL     1       9.047  -7.903  26.249  1.00  0.00     0.168 C
HETATM    9  O1  UNL     1       9.953  -7.064  26.853  1.00  0.00    -0.384 OA
HETATM   10  C5  UNL     1      11.231  -7.325  26.436  1.00  0.00     0.144 C
HETATM   11  C4  UNL     1      12.318  -6.746  27.275  1.00  0.00     0.035 C
HETATM   12  C14 UNL     1      11.466  -6.934  24.990  1.00  0.00     0.113 C
HETATM   13  C3  UNL     1      12.325  -5.253  27.067  1.00  0.00     0.022 C
HETATM   14  C2  UNL     1      12.672  -5.019  25.602  1.00  0.00     0.117 C
HETATM   15  N1  UNL     1      11.630  -5.542  24.767  1.00  0.00    -0.409 N
HETATM   16  C1  UNL     1      10.499  -4.732  24.620  1.00  0.00     0.143 C
ENDBRANCH   5   6
ENDBRANCH   4   5
BRANCH   4  17
HETATM   17  C12 UNL     1      10.419  -7.389  20.979  1.00  0.00     0.302 C
BRANCH  17  18
HETATM   18  C13 UNL     1      11.716  -6.538  21.168  1.00  0.00     0.238 C
BRANCH  18  19
HETATM   19  O2  UNL     1      11.170  -5.274  20.896  1.00  0.00    -0.220 OA
BRANCH  19  20
HETATM   20  N4  UNL     1      11.617  -4.049  21.298  1.00  0.00     0.004 N
HETATM   21  O3  UNL     1      10.842  -3.073  21.325  1.00  0.00    -0.511 OA
HETATM   22  O4  UNL     1      12.857  -3.977  21.855  1.00  0.00    -0.511 OA
ENDBRANCH  19  20
ENDBRANCH  18  19
ENDBRANCH  17  18
ENDBRANCH   4  17
ENDBRANCH   1   4
TORSDOF 7
ENDMDL