MODEL 4
REMARK VINA RESULT: -6.251166586      3.540      4.914
REMARK  10 active torsions:
REMARK  status: ('A' for Active; 'I' for Inactive)
REMARK    1  A    between atoms: N1_1  and  C1_4
REMARK    2  A    between atoms: N3_8  and  C3_9
REMARK    3  A    between atoms: C3_9  and  C4_10
REMARK    4  A    between atoms: C4_10  and  N4_11
REMARK    5  A    between atoms: N4_11  and  C5_13
REMARK    6  A    between atoms: C5_13  and  C6_14
REMARK    7  A    between atoms: C6_14  and  N5_15
REMARK    8  A    between atoms: N5_15  and  C7_18
REMARK    9  A    between atoms: C10_21  and  N6_22
REMARK   10  A    between atoms: C11_26  and  O1_27
ROOT
HETATM    1  C5  UNL     1      -1.498  -0.337  54.193  1.00  0.00     0.141 C
ENDROOT
BRANCH   1   2
HETATM    2  N4  UNL     1      -0.198  -0.533  53.608  1.00  0.00    -0.418 N
ATOM      3  H4  UNL     1       0.591  -0.899  54.142  1.00  0.00     0.153 HD
BRANCH   2   4
HETATM    4  C4  UNL     1      -0.089  -0.181  52.228  1.00  0.00     0.135 C
BRANCH   4   5
HETATM    5  C3  UNL     1       0.962   0.841  51.932  1.00  0.00     0.169 C
BRANCH   5   6
HETATM    6  N3  UNL     1       1.766   0.505  50.778  1.00  0.00    -0.272 N
HETATM    7  C2  UNL     1       1.401  -0.382  49.822  1.00  0.00     0.218 A
HETATM    8  N2  UNL     1       2.393  -0.419  48.924  1.00  0.00    -0.185 N
HETATM    9  C1  UNL     1       3.368   0.415  49.287  1.00  0.00     0.691 A
ATOM     10  H2  UNL     1       2.402  -0.999  48.085  1.00  0.00     0.185 HD
HETATM   11  N7  UNL     1       2.964   0.980  50.438  1.00  0.00    -0.129 N
ATOM     12  H7  UNL     1       3.494   1.669  50.971  1.00  0.00     0.206 HD
BRANCH   9  13
HETATM   13  N1  UNL     1       4.479   0.665  48.698  1.00  0.00    -0.233 N
ATOM     14  H12 UNL     1       5.384   0.280  48.969  1.00  0.00     0.174 HD
ATOM     15  H11 UNL     1       4.658   1.264  47.892  1.00  0.00     0.174 HD
ENDBRANCH   9  13
ENDBRANCH   5   6
ENDBRANCH   4   5
ENDBRANCH   2   4
ENDBRANCH   1   2
BRANCH   1  16
HETATM   16  C6  UNL     1      -1.752  -1.321  55.335  1.00  0.00     0.252 C
BRANCH  16  17
HETATM   17  N5  UNL     1      -0.669  -1.160  56.274  1.00  0.00    -0.067 N
ATOM     18  H52 UNL     1       0.135  -0.712  55.832  1.00  0.00     0.277 HD
ATOM     19  H51 UNL     1      -0.891  -0.449  56.971  1.00  0.00     0.277 HD
BRANCH  17  20
HETATM   20  C7  UNL     1      -0.288  -2.404  56.903  1.00  0.00     0.216 C
HETATM   21  C8  UNL     1       1.178  -2.616  56.622  1.00  0.00     0.038 C
HETATM   22  C9  UNL     1       1.151  -3.475  55.381  1.00  0.00     0.037 C
HETATM   23  C10 UNL     1       0.097  -4.498  55.771  1.00  0.00     0.214 C
HETATM   24  C11 UNL     1      -1.010  -3.548  56.244  1.00  0.00     0.179 C
BRANCH  23  25
HETATM   25  N6  UNL     1      -0.346  -5.319  54.689  1.00  0.00    -0.072 N
ATOM     26  H63 UNL     1      -1.256  -5.006  54.351  1.00  0.00     0.274 HD
ATOM     27  H62 UNL     1       0.216  -5.145  53.854  1.00  0.00     0.274 HD
ATOM     28  H61 UNL     1      -0.367  -6.315  54.905  1.00  0.00     0.274 HD
ENDBRANCH  23  25
BRANCH  24  29
HETATM   29  O1  UNL     1      -1.838  -4.235  57.097  1.00  0.00    -0.391 OA
ATOM     30  H1  UNL     1      -2.100  -5.085  56.765  1.00  0.00     0.210 HD
ENDBRANCH  24  29
ENDBRANCH  17  20
ENDBRANCH  16  17
ENDBRANCH   1  16
TORSDOF 10
ENDMDL