MODEL 3
REMARK VINA RESULT: -6.870056362      3.622      4.649
REMARK  9 active torsions:
REMARK  status: ('A' for Active; 'I' for Inactive)
REMARK    1  A    between atoms: N1_1  and  C1_4
REMARK    2  A    between atoms: C3_8  and  N3_9
REMARK    3  A    between atoms: N3_9  and  C4_11
REMARK    4  A    between atoms: C4_11  and  C5_12
REMARK    5  A    between atoms: C5_12  and  N4_13
REMARK    6  A    between atoms: N4_13  and  O1_14
REMARK    7  A    between atoms: N5_17  and  C7_19
REMARK    8  A    between atoms: C7_19  and  C8_20
REMARK    9  A    between atoms: C8_20  and  N6_21
ROOT
HETATM    1  C1  UNL     1       0.703   1.169  52.216  1.00  0.00     0.677 A
HETATM    2  N2  UNL     1      -0.430   1.676  51.693  1.00  0.00    -0.200 N
ATOM      3  H2  UNL     1      -0.421   2.569  51.200  1.00  0.00     0.183 HD
HETATM    4  C2  UNL     1      -1.557   0.990  51.834  1.00  0.00     0.139 A
HETATM    5  C3  UNL     1      -1.574  -0.236  52.510  1.00  0.00     0.089 A
HETATM    6  C6  UNL     1      -0.422  -0.764  53.050  1.00  0.00     0.145 A
HETATM    7  N5  UNL     1      -0.331  -1.827  53.658  1.00  0.00    -0.372 N
ATOM      8  H5  UNL     1       0.655  -1.906  53.911  1.00  0.00     0.161 HD
HETATM    9  N9  UNL     1       0.715   0.014  52.859  1.00  0.00    -0.175 N
ATOM     10  H9  UNL     1       1.601  -0.323  53.234  1.00  0.00     0.186 HD
ENDROOT
BRANCH   5  11
HETATM   11  N3  UNL     1      -2.801  -0.919  52.627  1.00  0.00    -0.385 N
ATOM     12  H3  UNL     1      -2.833  -1.892  52.930  1.00  0.00     0.159 HD
BRANCH  11  13
HETATM   13  C4  UNL     1      -4.029  -0.193  52.300  1.00  0.00     0.138 C
BRANCH  13  14
HETATM   14  C5  UNL     1      -4.806  -0.883  51.202  1.00  0.00     0.162 C
BRANCH  14  15
HETATM   15  N4  UNL     1      -4.082  -0.840  49.945  1.00  0.00    -0.102 NA
BRANCH  15  16
HETATM   16  O1  UNL     1      -3.373  -1.984  49.860  1.00  0.00    -0.296 OA
ATOM     17  H1  UNL     1      -3.989  -2.702  49.954  1.00  0.00     0.238 HD
ENDBRANCH  15  16
ENDBRANCH  14  15
ENDBRANCH  13  14
ENDBRANCH  11  13
ENDBRANCH   5  11
BRANCH   7  18
HETATM   18  C7  UNL     1      -0.917  -2.956  54.160  1.00  0.00     0.141 C
BRANCH  18  19
HETATM   19  C8  UNL     1       0.006  -3.787  55.067  1.00  0.00     0.141 C
BRANCH  19  20
HETATM   20  N6  UNL     1       0.964  -2.867  55.620  1.00  0.00    -0.365 N
HETATM   21  C9  UNL     1       1.040  -2.562  56.859  1.00  0.00     0.197 C
HETATM   22  N7  UNL     1       2.019  -1.647  57.300  1.00  0.00    -0.067 NA
HETATM   23  N8  UNL     1       0.144  -3.141  57.783  1.00  0.00    -0.067 NA
ATOM     24  H6  UNL     1       1.628  -2.430  54.981  1.00  0.00     0.161 HD
ENDBRANCH  19  20
ENDBRANCH  18  19
ENDBRANCH   7  18
BRANCH   1  25
HETATM   25  N1  UNL     1       1.803   1.869  52.063  1.00  0.00    -0.234 N
ATOM     26  H12 UNL     1       2.502   1.603  51.369  1.00  0.00     0.174 HD
ATOM     27  H11 UNL     1       1.927   2.683  52.665  1.00  0.00     0.174 HD
ENDBRANCH   1  25
TORSDOF 9
ENDMDL