MODEL 1
REMARK VINA RESULT: -6.676854851      0.000      0.000
REMARK  11 active torsions:
REMARK  status: ('A' for Active; 'I' for Inactive)
REMARK    1  A    between atoms: N1_1  and  C1_4
REMARK    2  A    between atoms: C2_7  and  N3_8
REMARK    3  A    between atoms: N3_8  and  C3_10
REMARK    4  A    between atoms: C3_10  and  C4_11
REMARK    5  A    between atoms: C4_11  and  O1_12
REMARK    6  A    between atoms: C6_19  and  N6_20
REMARK    7  A    between atoms: N6_20  and  C7_21
REMARK    8  A    between atoms: N6_20  and  C8_26
REMARK    9  A    between atoms: C7_21  and  N7_22
REMARK   10  A    between atoms: C8_26  and  C9_27
REMARK   11  A    between atoms: C9_27  and  O2_28
ROOT
HETATM    1  C1  UNL     1      -5.219  -0.470  53.801  1.00  0.00     0.146 A
HETATM    2  N2  UNL     1      -6.389  -0.671  53.184  1.00  0.00    -0.174 N
ATOM      3  H2  UNL     1      -7.149  -1.160  53.657  1.00  0.00     0.186 HD
HETATM    4  C2  UNL     1      -6.544  -0.207  51.907  1.00  0.00     0.685 A
HETATM    5  N4  UNL     1      -5.494   0.440  51.327  1.00  0.00    -0.173 N
ATOM      6  H4  UNL     1      -5.607   0.788  50.375  1.00  0.00     0.186 HD
HETATM    7  C5  UNL     1      -4.329   0.641  51.939  1.00  0.00     0.167 A
HETATM    8  N5  UNL     1      -3.163   1.240  51.584  1.00  0.00    -0.173 N
ATOM      9  H5  UNL     1      -2.996   1.677  50.677  1.00  0.00     0.186 HD
HETATM   10  C6  UNL     1      -2.263   1.185  52.566  1.00  0.00     0.688 A
HETATM   11  N8  UNL     1      -2.918   0.518  53.570  1.00  0.00    -0.184 N
ATOM     12  H8  UNL     1      -2.514   0.300  54.482  1.00  0.00     0.184 HD
HETATM   13  C10 UNL     1      -4.143   0.197  53.196  1.00  0.00     0.138 A
ENDROOT
BRANCH  10  14
HETATM   14  N6  UNL     1      -0.961   1.707  52.621  1.00  0.00    -0.170 N
BRANCH  14  15
HETATM   15  C7  UNL     1       0.115   0.690  52.456  1.00  0.00     0.376 C
BRANCH  15  16
HETATM   16  N7  UNL     1       1.231   1.184  51.723  1.00  0.00    -0.062 N
ATOM     17  H73 UNL     1       0.993   2.045  51.231  1.00  0.00     0.276 HD
ATOM     18  H72 UNL     1       1.949   1.546  52.351  1.00  0.00     0.276 HD
ATOM     19  H71 UNL     1       1.619   0.491  51.082  1.00  0.00     0.276 HD
ENDBRANCH  15  16
ENDBRANCH  14  15
BRANCH  14  20
HETATM   20  C8  UNL     1      -0.495   3.014  52.805  1.00  0.00     0.109 C
BRANCH  20  21
HETATM   21  C9  UNL     1      -1.396   4.161  52.892  1.00  0.00     0.209 C
BRANCH  21  22
HETATM   22  O2  UNL     1      -0.893   5.144  53.757  1.00  0.00    -0.396 OA
ATOM     23  H2  UNL     1      -0.963   6.011  53.376  1.00  0.00     0.209 HD
ENDBRANCH  21  22
ENDBRANCH  20  21
ENDBRANCH  14  20
ENDBRANCH  10  14
BRANCH   1  24
HETATM   24  N1  UNL     1      -5.086  -0.910  54.999  1.00  0.00    -0.383 N
ATOM     25  H12 UNL     1      -5.736  -1.617  55.342  1.00  0.00     0.157 HD
ATOM     26  H11 UNL     1      -4.327  -0.533  55.566  1.00  0.00     0.157 HD
ENDBRANCH   1  24
BRANCH   4  27
HETATM   27  N3  UNL     1      -7.631  -0.397  51.334  1.00  0.00    -0.203 N
ATOM     28  H3  UNL     1      -8.347   0.296  51.552  1.00  0.00     0.183 HD
BRANCH  27  29
HETATM   29  C3  UNL     1      -8.047  -1.385  50.450  1.00  0.00     0.105 C
BRANCH  29  30
HETATM   30  C4  UNL     1      -6.873  -2.178  49.877  1.00  0.00     0.209 C
BRANCH  30  31
HETATM   31  O1  UNL     1      -7.347  -3.125  48.997  1.00  0.00    -0.396 OA
ATOM     32  H1  UNL     1      -7.389  -2.751  48.125  1.00  0.00     0.209 HD
ENDBRANCH  30  31
ENDBRANCH  29  30
ENDBRANCH  27  29
ENDBRANCH   4  27
TORSDOF 11
ENDMDL