MODEL 3
REMARK VINA RESULT: -6.454701856      1.771      2.343
REMARK  9 active torsions:
REMARK  status: ('A' for Active; 'I' for Inactive)
REMARK    1  A    between atoms: O1_2  and  N1_3
REMARK    2  A    between atoms: N1_3  and  N2_4
REMARK    3  A    between atoms: N2_4  and  O2_5
REMARK    4  A    between atoms: N2_4  and  N3_7
REMARK       I    between atoms: N3_7  and  C2_9
REMARK       I    between atoms: C2_9  and  N5_13
REMARK    5  A    between atoms: N5_13  and  C3_15
REMARK    6  A    between atoms: C3_15  and  C4_16
REMARK    7  A    between atoms: C4_16  and  N6_17
REMARK    8  A    between atoms: N6_17  and  N7_18
REMARK    9  A    between atoms: N7_18  and  C5_20
ROOT
HETATM    1  N3  UNL     1      -6.511  -0.451  50.190  1.00  0.00    -0.111 N
ATOM      2  H3  UNL     1      -5.765   0.153  49.848  1.00  0.00     0.203 HD
HETATM    3  C2  UNL     1      -6.963  -0.314  51.517  1.00  0.00     0.685 C
HETATM    4  N4  UNL     1      -7.913   0.485  51.798  1.00  0.00    -0.234 N
ATOM      5  H41 UNL     1      -8.241   0.585  52.759  1.00  0.00     0.174 HD
ATOM      6  H42 UNL     1      -8.353   1.032  51.058  1.00  0.00     0.174 HD
HETATM    7  N5  UNL     1      -6.356  -1.070  52.541  1.00  0.00    -0.224 N
ATOM      8  H5  UNL     1      -6.471  -2.082  52.585  1.00  0.00     0.177 HD
ENDROOT
BRANCH   7   9
HETATM    9  C3  UNL     1      -5.563  -0.366  53.529  1.00  0.00     0.155 C
BRANCH   9  10
HETATM   10  C4  UNL     1      -4.099  -0.482  53.166  1.00  0.00     0.155 C
BRANCH  10  11
HETATM   11  N6  UNL     1      -3.826   0.432  52.093  1.00  0.00    -0.139 NA
BRANCH  11  12
HETATM   12  N7  UNL     1      -3.818   1.766  52.471  1.00  0.00    -0.293 N
ATOM     13  H7  UNL     1      -4.691   2.167  52.813  1.00  0.00     0.183 HD
BRANCH  12  14
HETATM   14  C5  UNL     1      -2.697   2.599  52.417  1.00  0.00     0.088 C
HETATM   15  N8  UNL     1      -2.657   3.706  53.052  1.00  0.00    -0.379 N
HETATM   16  C6  UNL     1      -1.459   4.509  52.941  1.00  0.00     0.121 C
ATOM     17  H8  UNL     1      -3.446   4.015  53.621  1.00  0.00     0.160 HD
HETATM   18  C7  UNL     1      -0.179   3.751  52.964  1.00  0.00     0.020 C
HETATM   19  C8  UNL     1      -0.337   2.311  52.559  1.00  0.00     0.009 C
HETATM   20  C9  UNL     1      -1.518   2.213  51.619  1.00  0.00     0.077 C
ENDBRANCH  12  14
ENDBRANCH  11  12
ENDBRANCH  10  11
ENDBRANCH   9  10
ENDBRANCH   7   9
BRANCH   1  21
HETATM   21  N2  UNL     1      -7.074  -1.408  49.338  1.00  0.00     0.032 NA
BRANCH  21  22
HETATM   22  N1  UNL     1      -6.508  -2.657  49.685  1.00  0.00     0.042 NA
BRANCH  22  23
HETATM   23  O1  UNL     1      -6.977  -3.546  48.763  1.00  0.00    -0.273 OA
HETATM   24  C1  UNL     1      -6.252  -4.736  48.780  1.00  0.00     0.233 C
ENDBRANCH  22  23
ENDBRANCH  21  22
BRANCH  21  25
HETATM   25  O2  UNL     1      -8.424  -1.455  49.484  1.00  0.00    -0.277 OA
ATOM     26  H2  UNL     1      -8.705  -0.792  50.104  1.00  0.00     0.240 HD
ENDBRANCH  21  25
ENDBRANCH   1  21
TORSDOF 9
ENDMDL