MODEL 3
REMARK VINA RESULT: -7.194021360      3.122      6.438
REMARK  8 active torsions:
REMARK  status: ('A' for Active; 'I' for Inactive)
REMARK    1  A    between atoms: C2_7  and  C3_8
REMARK    2  A    between atoms: C3_8  and  C4_9
REMARK    3  A    between atoms: C4_9  and  C5_10
REMARK    4  A    between atoms: C5_10  and  N3_11
REMARK    5  A    between atoms: N3_11  and  C6_14
REMARK    6  A    between atoms: C6_14  and  C7_15
REMARK    7  A    between atoms: C7_15  and  N4_16
REMARK    8  A    between atoms: N4_16  and  N5_17
ROOT
HETATM    1  N1  UNL     1      -1.933   4.713  53.138  1.00  0.00    -0.384 N
ATOM      2  H11 UNL     1      -0.925   4.817  53.027  1.00  0.00     0.157 HD
ATOM      3  H12 UNL     1      -2.513   5.488  53.460  1.00  0.00     0.157 HD
HETATM    4  C1  UNL     1      -2.407   3.552  52.968  1.00  0.00     0.120 A
HETATM    5  N2  UNL     1      -3.764   3.412  53.117  1.00  0.00    -0.328 N
ATOM      6  H2  UNL     1      -4.345   4.186  53.442  1.00  0.00     0.169 HD
HETATM    7  C2  UNL     1      -4.331   2.138  52.798  1.00  0.00     0.104 A
HETATM    8  N6  UNL     1      -3.545   1.183  52.383  1.00  0.00    -0.328 N
ATOM      9  H6  UNL     1      -3.965   0.282  52.157  1.00  0.00     0.169 HD
HETATM   10  C8  UNL     1      -2.221   1.313  52.234  1.00  0.00     0.130 A
HETATM   11  N7  UNL     1      -1.443   0.283  51.844  1.00  0.00    -0.293 N
ATOM     12  H7  UNL     1      -1.858  -0.618  51.608  1.00  0.00     0.172 HD
HETATM   13  C9  UNL     1      -0.092   0.464  51.769  1.00  0.00     0.328 A
HETATM   14  O1  UNL     1       0.626  -0.536  51.395  1.00  0.00    -0.247 OA
HETATM   15  N8  UNL     1       0.475   1.637  52.073  1.00  0.00    -0.275 N
ATOM     16  H8  UNL     1       1.489   1.731  52.010  1.00  0.00     0.173 HD
HETATM   17  C10 UNL     1      -0.258   2.693  52.459  1.00  0.00     0.267 A
HETATM   18  O2  UNL     1       0.251   3.819  52.731  1.00  0.00    -0.267 OA
HETATM   19  C11 UNL     1      -1.637   2.523  52.541  1.00  0.00     0.120 A
ENDROOT
BRANCH   7  20
HETATM   20  C3  UNL     1      -5.707   2.114  53.212  1.00  0.00     0.023 C
BRANCH  20  21
HETATM   21  C4  UNL     1      -6.590   0.963  53.233  1.00  0.00     0.058 C
BRANCH  21  22
HETATM   22  C5  UNL     1      -6.952   0.373  51.937  1.00  0.00     0.236 C
BRANCH  22  23
HETATM   23  N3  UNL     1      -6.686  -1.103  52.010  1.00  0.00    -0.074 N
ATOM     24  H32 UNL     1      -6.058  -1.367  52.770  1.00  0.00     0.277 HD
ATOM     25  H31 UNL     1      -7.491  -1.647  52.322  1.00  0.00     0.277 HD
BRANCH  23  26
HETATM   26  C6  UNL     1      -6.198  -1.488  50.689  1.00  0.00     0.250 C
BRANCH  26  27
HETATM   27  C7  UNL     1      -5.388  -0.416  50.046  1.00  0.00     0.161 C
BRANCH  27  28
HETATM   28  N4  UNL     1      -3.982  -0.797  50.019  1.00  0.00    -0.147 NA
BRANCH  28  29
HETATM   29  N5  UNL     1      -3.906  -2.106  50.550  1.00  0.00    -0.348 N
ATOM     30  H52 UNL     1      -4.070  -2.368  51.523  1.00  0.00     0.172 HD
ATOM     31  H51 UNL     1      -3.657  -2.722  49.776  1.00  0.00     0.172 HD
ENDBRANCH  28  29
ENDBRANCH  27  28
ENDBRANCH  26  27
ENDBRANCH  23  26
ENDBRANCH  22  23
ENDBRANCH  21  22
ENDBRANCH  20  21
ENDBRANCH   7  20
TORSDOF 8
ENDMDL