MODEL 5
REMARK VINA RESULT: -5.872619730      1.530      1.907
REMARK  10 active torsions:
REMARK  status: ('A' for Active; 'I' for Inactive)
REMARK    1  A    between atoms: N1_1  and  C1_5
REMARK    2  A    between atoms: C1_5  and  C2_6
REMARK    3  A    between atoms: C2_6  and  C3_7
REMARK    4  A    between atoms: C3_7  and  C4_8
REMARK    5  A    between atoms: C4_8  and  C5_9
REMARK    6  A    between atoms: C5_9  and  C6_10
REMARK    7  A    between atoms: C6_10  and  N2_11
REMARK    8  A    between atoms: N2_11  and  C7_14
REMARK    9  A    between atoms: C9_19  and  N4_20
REMARK   10  A    between atoms: N6_28  and  N7_30
ROOT
HETATM    1  C7  UNL     1      -4.437  -0.078  52.303  1.00  0.00     0.325 C
HETATM    2  C8  UNL     1      -5.672  -0.649  52.930  1.00  0.00     0.257 C
HETATM    3  O1  UNL     1      -5.590  -0.978  54.136  1.00  0.00    -0.271 OA
HETATM    4  N3  UNL     1      -6.963  -0.880  52.334  1.00  0.00    -0.316 N
ATOM      5  H3  UNL     1      -7.785  -0.910  52.937  1.00  0.00     0.166 HD
HETATM    6  C9  UNL     1      -7.136  -1.075  50.888  1.00  0.00     0.385 C
HETATM    7  N5  UNL     1      -6.757   0.056  50.110  1.00  0.00    -0.375 N
ATOM      8  H5  UNL     1      -7.450   0.712  49.748  1.00  0.00     0.157 HD
HETATM    9  C10 UNL     1      -5.363   0.228  49.863  1.00  0.00     0.174 C
HETATM   10  C11 UNL     1      -4.501  -0.458  50.868  1.00  0.00     0.060 C
HETATM   11  N6  UNL     1      -3.792  -1.424  50.442  1.00  0.00    -0.311 N
ATOM     12  H6  UNL     1      -3.858  -1.662  49.452  1.00  0.00     0.185 HD
ENDROOT
BRANCH   1  13
HETATM   13  N2  UNL     1      -4.515   1.370  52.364  1.00  0.00    -0.057 N
ATOM     14  H22 UNL     1      -5.478   1.672  52.508  1.00  0.00     0.278 HD
ATOM     15  H21 UNL     1      -4.344   1.778  51.446  1.00  0.00     0.278 HD
BRANCH  13  16
HETATM   16  C6  UNL     1      -3.652   1.951  53.344  1.00  0.00     0.233 C
BRANCH  16  17
HETATM   17  C5  UNL     1      -2.441   1.082  53.547  1.00  0.00     0.027 C
BRANCH  17  18
HETATM   18  C4  UNL     1      -1.163   1.692  53.075  1.00  0.00     0.002 C
BRANCH  18  19
HETATM   19  C3  UNL     1      -1.254   2.314  51.695  1.00  0.00     0.002 C
BRANCH  19  20
HETATM   20  C2  UNL     1      -1.225   3.811  51.905  1.00  0.00     0.027 C
BRANCH  20  21
HETATM   21  C1  UNL     1      -0.322   4.232  53.035  1.00  0.00     0.229 C
BRANCH  21  22
HETATM   22  N1  UNL     1      -0.874   5.277  53.849  1.00  0.00    -0.079 N
ATOM     23  H13 UNL     1      -0.204   5.576  54.557  1.00  0.00     0.274 HD
ATOM     24  H12 UNL     1      -0.957   6.143  53.317  1.00  0.00     0.274 HD
ATOM     25  H11 UNL     1      -1.766   5.029  54.278  1.00  0.00     0.274 HD
ENDBRANCH  21  22
ENDBRANCH  20  21
ENDBRANCH  19  20
ENDBRANCH  18  19
ENDBRANCH  17  18
ENDBRANCH  16  17
ENDBRANCH  13  16
ENDBRANCH   1  13
BRANCH  11  26
HETATM   26  N7  UNL     1      -2.943  -2.169  51.225  1.00  0.00    -0.345 N
ATOM     27  H72 UNL     1      -3.229  -2.324  52.192  1.00  0.00     0.176 HD
ATOM     28  H71 UNL     1      -2.061  -2.568  50.903  1.00  0.00     0.176 HD
ENDBRANCH  11  26
BRANCH   6  29
HETATM   29  N4  UNL     1      -8.574  -1.286  50.651  1.00  0.00    -0.041 N
ATOM     30  H43 UNL     1      -8.908  -0.849  49.792  1.00  0.00     0.279 HD
ATOM     31  H42 UNL     1      -8.803  -2.249  50.403  1.00  0.00     0.279 HD
ATOM     32  H41 UNL     1      -9.065  -0.960  51.484  1.00  0.00     0.279 HD
ENDBRANCH   6  29
TORSDOF 10
ENDMDL