MODEL 3
REMARK VINA RESULT: -6.590491692      1.201      6.953
REMARK  10 active torsions:
REMARK  status: ('A' for Active; 'I' for Inactive)
REMARK    1  A    between atoms: N1_1  and  C1_5
REMARK    2  A    between atoms: C1_5  and  C2_6
REMARK    3  A    between atoms: C2_6  and  N2_7
REMARK    4  A    between atoms: N2_7  and  C3_9
REMARK    5  A    between atoms: N4_13  and  C5_15
REMARK    6  A    between atoms: C5_15  and  C6_16
REMARK    7  A    between atoms: C6_16  and  C7_17
REMARK    8  A    between atoms: C7_17  and  N5_18
REMARK    9  A    between atoms: C7_17  and  N6_22
REMARK   10  A    between atoms: N6_22  and  N7_23
ROOT
HETATM    1  C3  UNL     1      -3.323   0.826  52.054  1.00  0.00     0.681 A
HETATM    2  N3  UNL     1      -2.195   0.256  51.642  1.00  0.00    -0.174 N
ATOM      3  H3  UNL     1      -2.251  -0.689  51.261  1.00  0.00     0.186 HD
HETATM    4  C4  UNL     1      -0.971   0.851  51.696  1.00  0.00     0.151 A
HETATM    5  N4  UNL     1       0.067   0.234  51.278  1.00  0.00    -0.353 N
ATOM      6  H4  UNL     1      -0.108  -0.704  50.917  1.00  0.00     0.166 HD
HETATM    7  C8  UNL     1      -0.915   2.122  52.213  1.00  0.00     0.123 A
HETATM    8  N8  UNL     1       0.047   3.032  52.439  1.00  0.00    -0.346 N
ATOM      9  H8  UNL     1       1.034   2.885  52.224  1.00  0.00     0.167 HD
HETATM   10  C9  UNL     1      -0.440   4.147  52.978  1.00  0.00     0.182 A
HETATM   11  N9  UNL     1      -1.770   3.964  53.111  1.00  0.00    -0.336 N
ATOM     12  H9  UNL     1      -2.426   4.643  53.496  1.00  0.00     0.168 HD
HETATM   13  C10 UNL     1      -2.091   2.727  52.649  1.00  0.00     0.152 A
HETATM   14  N10 UNL     1      -3.277   2.069  52.563  1.00  0.00    -0.174 N
ATOM     15  H10 UNL     1      -4.134   2.520  52.884  1.00  0.00     0.186 HD
ENDROOT
BRANCH   5  16
HETATM   16  C5  UNL     1       1.415   0.644  51.235  1.00  0.00     0.066 C
BRANCH  16  17
HETATM   17  C6  UNL     1       2.163   0.119  50.014  1.00  0.00     0.096 C
BRANCH  17  18
HETATM   18  C7  UNL     1       3.510   0.783  49.988  1.00  0.00     0.299 C
BRANCH  18  19
HETATM   19  N5  UNL     1       3.596   1.873  50.944  1.00  0.00    -0.059 N
ATOM     20  H53 UNL     1       2.768   2.466  50.904  1.00  0.00     0.276 HD
ATOM     21  H52 UNL     1       3.506   1.534  51.902  1.00  0.00     0.276 HD
ATOM     22  H51 UNL     1       4.450   2.419  50.823  1.00  0.00     0.276 HD
ENDBRANCH  18  19
BRANCH  18  23
HETATM   23  N6  UNL     1       3.726   1.337  48.667  1.00  0.00    -0.115 NA
BRANCH  23  24
HETATM   24  N7  UNL     1       4.179   2.638  48.708  1.00  0.00    -0.346 N
ATOM     25  H72 UNL     1       5.045   2.908  49.176  1.00  0.00     0.172 HD
ATOM     26  H71 UNL     1       3.556   3.283  48.224  1.00  0.00     0.172 HD
ENDBRANCH  23  24
ENDBRANCH  18  23
ENDBRANCH  17  18
ENDBRANCH  16  17
ENDBRANCH   5  16
BRANCH   1  27
HETATM   27  N2  UNL     1      -4.470   0.228  51.987  1.00  0.00    -0.224 N
ATOM     28  H2  UNL     1      -5.254   0.666  52.471  1.00  0.00     0.177 HD
BRANCH  27  29
HETATM   29  C2  UNL     1      -4.731  -0.987  51.296  1.00  0.00     0.165 C
BRANCH  29  30
HETATM   30  C1  UNL     1      -6.126  -1.057  50.714  1.00  0.00     0.249 C
BRANCH  30  31
HETATM   31  N1  UNL     1      -7.107  -1.223  51.769  1.00  0.00    -0.078 N
ATOM     32  H13 UNL     1      -6.667  -1.334  52.683  1.00  0.00     0.274 HD
ATOM     33  H12 UNL     1      -7.619  -0.359  51.951  1.00  0.00     0.274 HD
ATOM     34  H11 UNL     1      -7.733  -1.997  51.554  1.00  0.00     0.274 HD
ENDBRANCH  30  31
ENDBRANCH  29  30
ENDBRANCH  27  29
ENDBRANCH   1  27
TORSDOF 10
ENDMDL