MODEL 2
REMARK VINA RESULT: -6.370330595      3.334      5.346
REMARK  10 active torsions:
REMARK  status: ('A' for Active; 'I' for Inactive)
REMARK    1  A    between atoms: C2_2  and  C3_3
REMARK    2  A    between atoms: C3_3  and  C4_4
REMARK    3  A    between atoms: C4_4  and  N1_5
REMARK    4  A    between atoms: C4_4  and  C8_15
REMARK    5  A    between atoms: N1_5  and  C5_8
REMARK    6  A    between atoms: C5_8  and  C6_9
REMARK    7  A    between atoms: C6_9  and  C7_10
REMARK    8  A    between atoms: C7_10  and  N2_11
REMARK    9  A    between atoms: C9_18  and  N4_19
REMARK       I    between atoms: N4_19  and  C10_21
REMARK       I    between atoms: C10_21  and  N5_22
REMARK       I    between atoms: C10_21  and  N6_26
REMARK   10  A    between atoms: C11_32  and  N8_33
ROOT
HETATM    1  C8  UNL     1      -5.822   0.456  53.766  1.00  0.00     0.144 A
HETATM    2  N3  UNL     1      -6.631  -0.313  53.008  1.00  0.00    -0.177 N
ATOM      3  H3  UNL     1      -6.753  -1.290  53.274  1.00  0.00     0.185 HD
HETATM    4  C9  UNL     1      -7.286   0.135  51.923  1.00  0.00     0.697 A
HETATM    5  N7  UNL     1      -7.126   1.422  51.569  1.00  0.00    -0.022 N
ATOM      6  H7  UNL     1      -7.605   1.799  50.752  1.00  0.00     0.203 HD
HETATM    7  C11 UNL     1      -6.323   2.203  52.310  1.00  0.00     0.691 A
HETATM    8  N9  UNL     1      -5.676   1.731  53.396  1.00  0.00    -0.178 N
ATOM      9  H9  UNL     1      -5.072   2.352  53.936  1.00  0.00     0.185 HD
ENDROOT
BRANCH   1  10
HETATM   10  C4  UNL     1      -5.155  -0.197  54.911  1.00  0.00     0.257 C
BRANCH  10  11
HETATM   11  C3  UNL     1      -3.782  -0.672  54.726  1.00  0.00     0.067 C
BRANCH  11  12
HETATM   12  C2  UNL     1      -2.907  -0.749  55.889  1.00  0.00    -0.034 C
HETATM   13  C1  UNL     1      -2.485  -1.904  56.398  1.00  0.00     0.007 C
ENDBRANCH  11  12
ENDBRANCH  10  11
BRANCH  10  14
HETATM   14  N1  UNL     1      -6.067  -1.206  55.410  1.00  0.00    -0.064 N
ATOM     15  H12 UNL     1      -6.923  -1.225  54.857  1.00  0.00     0.278 HD
ATOM     16  H11 UNL     1      -5.716  -2.143  55.209  1.00  0.00     0.278 HD
BRANCH  14  17
HETATM   17  C5  UNL     1      -6.367  -1.062  56.819  1.00  0.00     0.235 C
BRANCH  17  18
HETATM   18  C6  UNL     1      -6.790  -2.403  57.415  1.00  0.00     0.055 C
BRANCH  18  19
HETATM   19  C7  UNL     1      -6.086  -3.496  56.604  1.00  0.00     0.231 C
BRANCH  19  20
HETATM   20  N2  UNL     1      -7.128  -4.238  55.929  1.00  0.00    -0.079 N
ATOM     21  H23 UNL     1      -7.402  -5.089  56.421  1.00  0.00     0.274 HD
ATOM     22  H22 UNL     1      -8.036  -3.776  55.957  1.00  0.00     0.274 HD
ATOM     23  H21 UNL     1      -6.791  -4.410  54.981  1.00  0.00     0.274 HD
ENDBRANCH  19  20
ENDBRANCH  18  19
ENDBRANCH  17  18
ENDBRANCH  14  17
ENDBRANCH  10  14
ENDBRANCH   1  10
BRANCH   4  24
HETATM   24  N4  UNL     1      -8.042  -0.615  51.230  1.00  0.00    -0.173 N
HETATM   25  C10 UNL     1      -7.731  -1.397  50.090  1.00  0.00     0.494 C
HETATM   26  N5  UNL     1      -7.326  -0.653  48.924  1.00  0.00    -0.032 N
HETATM   27  N6  UNL     1      -6.791  -2.477  50.322  1.00  0.00    -0.032 N
ATOM     28  H53 UNL     1      -8.035   0.042  48.688  1.00  0.00     0.278 HD
ATOM     29  H52 UNL     1      -6.544  -0.041  49.153  1.00  0.00     0.278 HD
ATOM     30  H51 UNL     1      -7.103  -1.216  48.103  1.00  0.00     0.278 HD
ATOM     31  H63 UNL     1      -5.936  -2.115  50.743  1.00  0.00     0.278 HD
ATOM     32  H62 UNL     1      -7.122  -3.076  51.078  1.00  0.00     0.278 HD
ATOM     33  H61 UNL     1      -6.567  -3.040  49.500  1.00  0.00     0.278 HD
ATOM     34  H4  UNL     1      -9.013  -0.660  51.540  1.00  0.00     0.181 HD
ENDBRANCH   4  24
BRANCH   7  35
HETATM   35  N8  UNL     1      -6.131   3.452  52.018  1.00  0.00    -0.234 N
ATOM     36  H82 UNL     1      -5.986   3.672  51.032  1.00  0.00     0.174 HD
ATOM     37  H81 UNL     1      -6.125   4.175  52.738  1.00  0.00     0.174 HD
ENDBRANCH   7  35
TORSDOF 10
ENDMDL