MODEL 4
REMARK VINA RESULT: -6.404230527      3.526      6.264
REMARK  10 active torsions:
REMARK  status: ('A' for Active; 'I' for Inactive)
REMARK    1  A    between atoms: N1_1  and  C1_4
REMARK    2  A    between atoms: N3_8  and  C3_10
REMARK    3  A    between atoms: C3_10  and  C4_11
REMARK    4  A    between atoms: C4_11  and  N4_12
REMARK    5  A    between atoms: N4_12  and  C5_14
REMARK    6  A    between atoms: C5_14  and  C6_15
REMARK    7  A    between atoms: C6_15  and  C7_16
REMARK    8  A    between atoms: C7_16  and  N5_17
REMARK    9  A    between atoms: N7_25  and  C10_26
REMARK   10  A    between atoms: C10_26  and  O1_27
ROOT
HETATM    1  C1  UNL     1      -7.956   1.681  52.767  1.00  0.00     0.679 A
HETATM    2  N2  UNL     1      -6.854   2.464  52.957  1.00  0.00    -0.175 N
ATOM      3  H2  UNL     1      -6.927   3.298  53.540  1.00  0.00     0.186 HD
HETATM    4  C2  UNL     1      -5.689   2.158  52.395  1.00  0.00     0.147 A
HETATM    5  N3  UNL     1      -4.660   2.862  52.537  1.00  0.00    -0.372 N
ATOM      6  H3  UNL     1      -3.828   2.520  52.057  1.00  0.00     0.161 HD
HETATM    7  C8  UNL     1      -5.651   1.000  51.606  1.00  0.00     0.123 A
HETATM    8  N6  UNL     1      -4.667   0.402  50.899  1.00  0.00    -0.346 N
ATOM      9  H6  UNL     1      -3.705   0.733  50.827  1.00  0.00     0.167 HD
HETATM   10  C9  UNL     1      -5.160  -0.704  50.303  1.00  0.00     0.187 A
HETATM   11  N7  UNL     1      -6.462  -0.834  50.617  1.00  0.00    -0.305 N
HETATM   12  C11 UNL     1      -6.762   0.209  51.415  1.00  0.00     0.156 A
HETATM   13  N8  UNL     1      -7.899   0.580  52.011  1.00  0.00    -0.174 N
ATOM     14  H8  UNL     1      -8.738   0.013  51.887  1.00  0.00     0.186 HD
ENDROOT
BRANCH   5  15
HETATM   15  C3  UNL     1      -4.488   4.055  53.262  1.00  0.00     0.141 C
BRANCH  15  16
HETATM   16  C4  UNL     1      -3.255   4.769  52.601  1.00  0.00     0.138 C
BRANCH  16  17
HETATM   17  N4  UNL     1      -2.124   4.129  53.073  1.00  0.00    -0.401 N
ATOM     18  H4  UNL     1      -2.059   3.992  54.083  1.00  0.00     0.158 HD
BRANCH  17  19
HETATM   19  C5  UNL     1      -1.074   3.658  52.312  1.00  0.00     0.057 C
BRANCH  19  20
HETATM   20  C6  UNL     1      -1.147   2.290  51.761  1.00  0.00     0.071 C
BRANCH  20  21
HETATM   21  C7  UNL     1      -0.301   1.270  52.454  1.00  0.00     0.234 C
BRANCH  21  22
HETATM   22  N5  UNL     1       1.094   1.608  52.014  1.00  0.00    -0.079 N
ATOM     23  H53 UNL     1       1.204   1.710  51.005  1.00  0.00     0.274 HD
ATOM     24  H52 UNL     1       1.394   2.553  52.251  1.00  0.00     0.274 HD
ATOM     25  H51 UNL     1       1.662   0.868  52.427  1.00  0.00     0.274 HD
ENDBRANCH  21  22
ENDBRANCH  20  21
ENDBRANCH  19  20
ENDBRANCH  17  19
ENDBRANCH  16  17
ENDBRANCH  15  16
ENDBRANCH   5  15
BRANCH   1  26
HETATM   26  N1  UNL     1      -9.081   2.027  53.343  1.00  0.00    -0.234 N
ATOM     27  H12 UNL     1      -9.484   2.948  53.170  1.00  0.00     0.174 HD
ATOM     28  H11 UNL     1      -9.541   1.357  53.960  1.00  0.00     0.174 HD
ENDBRANCH   1  26
BRANCH  11  29
HETATM   29  C10 UNL     1      -7.325  -1.915  50.153  1.00  0.00     0.298 C
BRANCH  29  30
HETATM   30  O1  UNL     1      -8.448  -1.437  49.522  1.00  0.00    -0.382 OA
ATOM     31  H1  UNL     1      -8.548  -1.806  48.653  1.00  0.00     0.211 HD
ENDBRANCH  29  30
ENDBRANCH  11  29
TORSDOF 10
ENDMDL