MODEL 1
REMARK VINA RESULT: -6.425053336      0.000      0.000
REMARK  11 active torsions:
REMARK  status: ('A' for Active; 'I' for Inactive)
REMARK    1  A    between atoms: N1_2  and  N2_3
REMARK    2  A    between atoms: N1_2  and  C2_6
REMARK    3  A    between atoms: N1_2  and  C5_13
REMARK    4  A    between atoms: C2_6  and  C3_7
REMARK    5  A    between atoms: C3_7  and  C4_8
REMARK    6  A    between atoms: C4_8  and  N3_9
REMARK    7  A    between atoms: C5_13  and  C6_14
REMARK    8  A    between atoms: C6_14  and  N4_15
REMARK    9  A    between atoms: C8_17  and  C9_18
REMARK   10  A    between atoms: C9_18  and  N5_19
REMARK   11  A    between atoms: C9_18  and  N6_23
ROOT
HETATM    1  N4  UNL     1      -3.487   2.909  52.646  1.00  0.00    -0.307 N
HETATM    2  C7  UNL     1      -2.417   2.053  52.588  1.00  0.00     0.110 A
HETATM    3  C8  UNL     1      -1.110   2.491  52.670  1.00  0.00     0.058 A
HETATM    4  C10 UNL     1      -0.932   3.844  52.814  1.00  0.00     0.114 A
HETATM    5  N7  UNL     1       0.221   4.366  52.866  1.00  0.00    -0.385 N
ATOM      6  H71 UNL     1       0.353   5.372  52.974  1.00  0.00     0.157 HD
ATOM      7  H72 UNL     1       1.034   3.752  52.825  1.00  0.00     0.157 HD
HETATM    8  N8  UNL     1      -2.027   4.671  52.869  1.00  0.00    -0.294 N
ATOM      9  H8  UNL     1      -1.876   5.674  52.979  1.00  0.00     0.172 HD
HETATM   10  C11 UNL     1      -3.285   4.220  52.787  1.00  0.00     0.328 A
HETATM   11  O1  UNL     1      -4.239   5.079  52.843  1.00  0.00    -0.246 OA
ENDROOT
BRANCH   1  12
HETATM   12  C6  UNL     1      -4.803   2.348  52.577  1.00  0.00     0.163 C
BRANCH  12  13
HETATM   13  C5  UNL     1      -5.159   1.177  53.370  1.00  0.00     0.284 C
BRANCH  13  14
HETATM   14  N1  UNL     1      -5.614  -0.043  52.867  1.00  0.00     0.004 N
HETATM   15  C1  UNL     1      -4.621  -0.750  52.099  1.00  0.00     0.302 C
BRANCH  14  16
HETATM   16  N2  UNL     1      -6.122  -0.955  53.825  1.00  0.00    -0.261 N
ATOM     17  H22 UNL     1      -6.764  -0.727  54.584  1.00  0.00     0.183 HD
ATOM     18  H21 UNL     1      -5.722  -1.868  53.607  1.00  0.00     0.183 HD
ENDBRANCH  14  16
BRANCH  14  19
HETATM   19  C2  UNL     1      -6.798   0.171  51.992  1.00  0.00     0.265 C
BRANCH  19  20
HETATM   20  C3  UNL     1      -6.724  -0.601  50.724  1.00  0.00     0.057 C
BRANCH  20  21
HETATM   21  C4  UNL     1      -8.019  -1.418  50.614  1.00  0.00     0.231 C
BRANCH  21  22
HETATM   22  N3  UNL     1      -7.977  -2.244  49.425  1.00  0.00    -0.079 N
ATOM     23  H33 UNL     1      -8.432  -1.796  48.630  1.00  0.00     0.274 HD
ATOM     24  H32 UNL     1      -7.036  -2.313  49.038  1.00  0.00     0.274 HD
ATOM     25  H31 UNL     1      -8.377  -3.161  49.628  1.00  0.00     0.274 HD
ENDBRANCH  21  22
ENDBRANCH  20  21
ENDBRANCH  19  20
ENDBRANCH  14  19
ENDBRANCH  13  14
ENDBRANCH  12  13
ENDBRANCH   1  12
BRANCH   3  26
HETATM   26  C9  UNL     1       0.016   1.520  52.638  1.00  0.00     0.416 C
BRANCH  26  27
HETATM   27  N5  UNL     1       0.473   1.156  51.339  1.00  0.00    -0.046 N
ATOM     28  H53 UNL     1      -0.311   0.835  50.769  1.00  0.00     0.277 HD
ATOM     29  H52 UNL     1       0.744   1.990  50.817  1.00  0.00     0.277 HD
ATOM     30  H51 UNL     1       1.226   0.469  51.316  1.00  0.00     0.277 HD
ENDBRANCH  26  27
BRANCH  26  31
HETATM   31  N6  UNL     1      -0.358   0.277  53.332  1.00  0.00    -0.046 N
ATOM     32  H63 UNL     1      -0.793   0.463  54.236  1.00  0.00     0.277 HD
ATOM     33  H62 UNL     1      -1.144  -0.189  52.879  1.00  0.00     0.277 HD
ATOM     34  H61 UNL     1       0.451  -0.339  53.419  1.00  0.00     0.277 HD
ENDBRANCH  26  31
ENDBRANCH   3  26
TORSDOF 11
ENDMDL