MODEL 4
REMARK VINA RESULT: -7.513596499      1.209      1.396
REMARK  4 active torsions:
REMARK  status: ('A' for Active; 'I' for Inactive)
REMARK    1  A    between atoms: C2_3  and  C3_4
REMARK    2  A    between atoms: C7_13  and  N4_14
REMARK    3  A    between atoms: N4_14  and  N5_16
REMARK    4  A    between atoms: C8_19  and  O3_20
ROOT
HETATM    1  C3  UNL     1      45.851   6.158  11.166  1.00  0.00     0.102 A
HETATM    2  N2  UNL     1      45.862   5.861   9.830  1.00  0.00    -0.304 N
ATOM      3  H2  UNL     1      46.068   6.611   9.170  1.00  0.00     0.171 HD
HETATM    4  C4  UNL     1      45.616   4.635   9.343  1.00  0.00     0.329 A
HETATM    5  O1  UNL     1      45.637   4.414   8.087  1.00  0.00    -0.246 OA
HETATM    6  N3  UNL     1      45.336   3.586  10.125  1.00  0.00    -0.269 N
HETATM    7  C5  UNL     1      45.085   2.280   9.541  1.00  0.00     0.164 C
HETATM    8  C6  UNL     1      45.313   3.823  11.436  1.00  0.00     0.281 A
HETATM    9  O2  UNL     1      45.054   2.871  12.239  1.00  0.00    -0.265 OA
HETATM   10  C7  UNL     1      45.568   5.104  11.984  1.00  0.00     0.145 A
ENDROOT
BRANCH   1  11
HETATM   11  C2  UNL     1      46.042   7.557  11.598  1.00  0.00     0.127 A
HETATM   12  N1  UNL     1      47.228   8.042  12.045  1.00  0.00    -0.291 N
HETATM   13  C1  UNL     1      48.480   7.334  12.241  1.00  0.00     0.162 C
HETATM   14  C9  UNL     1      47.036   9.374  12.245  1.00  0.00     0.374 A
HETATM   15  O4  UNL     1      45.831   9.699  11.948  1.00  0.00    -0.235 OA
HETATM   16  O5  UNL     1      47.962  10.129  12.668  1.00  0.00    -0.237 OA
HETATM   17  C8  UNL     1      45.188   8.625  11.550  1.00  0.00     0.217 A
BRANCH  17  18
HETATM   18  O3  UNL     1      43.835   8.613  11.153  1.00  0.00    -0.339 OA
ATOM     19  H3  UNL     1      43.412   9.212  10.550  1.00  0.00     0.220 HD
ENDBRANCH  17  18
ENDBRANCH   1  11
BRANCH  10  20
HETATM   20  N4  UNL     1      45.466   5.229  13.392  1.00  0.00    -0.300 N
ATOM     21  H4  UNL     1      44.650   5.689  13.797  1.00  0.00     0.186 HD
BRANCH  20  22
HETATM   22  N5  UNL     1      46.461   4.735  14.231  1.00  0.00    -0.344 N
ATOM     23  H52 UNL     1      46.770   3.772  14.104  1.00  0.00     0.176 HD
ATOM     24  H51 UNL     1      46.874   5.319  14.958  1.00  0.00     0.176 HD
ENDBRANCH  20  22
ENDBRANCH  10  20
TORSDOF 4
ENDMDL