MODEL 1
REMARK VINA RESULT: -8.620465263      0.000      0.000
REMARK  5 active torsions:
REMARK  status: ('A' for Active; 'I' for Inactive)
REMARK    1  A    between atoms: O1_2  and  C2_3
REMARK    2  A    between atoms: C2_3  and  C3_5
REMARK    3  A    between atoms: C4_8  and  N2_9
REMARK    4  A    between atoms: N5_18  and  N6_19
REMARK    5  A    between atoms: N6_19  and  O3_21
ROOT
HETATM    1  C3  UNL     1      47.134   5.731  14.105  1.00  0.00     0.154 A
HETATM    2  N1  UNL     1      47.569   7.024  14.110  1.00  0.00    -0.184 N
ATOM      3  H1  UNL     1      48.379   7.280  14.676  1.00  0.00     0.184 HD
HETATM    4  C4  UNL     1      46.952   7.959  13.385  1.00  0.00     0.677 A
HETATM    5  N3  UNL     1      45.888   7.639  12.638  1.00  0.00    -0.186 N
ATOM      6  H3  UNL     1      45.428   8.365  12.089  1.00  0.00     0.184 HD
HETATM    7  C5  UNL     1      45.420   6.398  12.594  1.00  0.00     0.128 A
HETATM    8  C6  UNL     1      46.040   5.387  13.340  1.00  0.00     0.116 A
HETATM    9  N4  UNL     1      45.531   4.057  13.287  1.00  0.00    -0.257 N
ATOM     10  H4  UNL     1      45.963   3.303  13.820  1.00  0.00     0.191 HD
HETATM   11  N5  UNL     1      44.402   3.822  12.467  1.00  0.00    -0.088 N
HETATM   12  N7  UNL     1      43.801   4.826  11.738  1.00  0.00    -0.122 N
HETATM   13  N8  UNL     1      42.835   5.177  10.893  1.00  0.00     0.007 NA
HETATM   14  N9  UNL     1      43.307   6.412  10.941  1.00  0.00    -0.263 N
ATOM     15  H9  UNL     1      43.031   7.288  10.497  1.00  0.00     0.186 HD
HETATM   16  C7  UNL     1      44.279   6.079  11.786  1.00  0.00     0.190 A
ENDROOT
BRANCH   1  17
HETATM   17  C2  UNL     1      47.836   4.742  14.909  1.00  0.00     0.312 C
HETATM   18  O2  UNL     1      47.662   3.512  14.936  1.00  0.00    -0.258 OA
BRANCH  17  19
HETATM   19  O1  UNL     1      48.841   5.251  15.766  1.00  0.00    -0.321 OA
HETATM   20  C1  UNL     1      49.332   4.435  16.811  1.00  0.00     0.213 C
ENDBRANCH  17  19
ENDBRANCH   1  17
BRANCH   4  21
HETATM   21  N2  UNL     1      47.419   9.177  13.435  1.00  0.00    -0.234 N
ATOM     22  H22 UNL     1      47.970   9.512  14.225  1.00  0.00     0.174 HD
ATOM     23  H21 UNL     1      47.218   9.797  12.651  1.00  0.00     0.174 HD
ENDBRANCH   4  21
BRANCH  11  24
HETATM   24  N6  UNL     1      43.904   2.512  12.417  1.00  0.00    -0.172 N
ATOM     25  H6  UNL     1      44.325   1.785  12.994  1.00  0.00     0.219 HD
BRANCH  24  26
HETATM   26  O3  UNL     1      42.946   2.236  11.668  1.00  0.00    -0.272 OA
ATOM     27  H3  UNL     1      42.792   2.748  10.883  1.00  0.00     0.246 HD
ENDBRANCH  24  26
ENDBRANCH  11  24
TORSDOF 5
ENDMDL