MODEL 4
REMARK VINA RESULT: -7.566232214      3.911      6.860
REMARK  4 active torsions:
REMARK  status: ('A' for Active; 'I' for Inactive)
REMARK    1  A    between atoms: O1_2  and  N1_3
REMARK    2  A    between atoms: C5_11  and  N3_12
REMARK    3  A    between atoms: N3_12  and  N4_13
REMARK    4  A    between atoms: C7_20  and  N7_21
ROOT
HETATM    1  N3  UNL     1      46.450   2.316   7.590  1.00  0.00    -0.022 N
HETATM    2  C6  UNL     1      46.832   0.970   7.603  1.00  0.00     0.220 C
HETATM    3  N5  UNL     1      47.159  -0.158   7.607  1.00  0.00    -0.169 NA
ENDROOT
BRANCH   1   4
HETATM    4  C5  UNL     1      45.850   2.918   8.755  1.00  0.00     0.716 A
HETATM    5  N2  UNL     1      46.069   4.210   9.047  1.00  0.00    -0.165 N
HETATM    6  C4  UNL     1      45.541   4.827  10.114  1.00  0.00     0.190 A
ATOM      7  H2  UNL     1      46.670   4.750   8.424  1.00  0.00     0.186 HD
HETATM    8  O2  UNL     1      45.900   6.164  10.223  1.00  0.00    -0.325 OA
HETATM    9  C8  UNL     1      44.728   4.069  10.948  1.00  0.00     0.150 A
HETATM   10  C3  UNL     1      45.164   7.228  10.847  1.00  0.00     0.266 C
HETATM   11  C2  UNL     1      44.905   6.933  12.281  1.00  0.00     0.190 C
HETATM   12  N1  UNL     1      45.311   7.795  13.173  1.00  0.00    -0.245 N
HETATM   13  O3  UNL     1      44.259   5.798  12.752  1.00  0.00    -0.220 OA
ATOM     14  H1  UNL     1      45.136   7.595  14.157  1.00  0.00     0.196 HD
HETATM   15  N8  UNL     1      44.089   4.566  12.119  1.00  0.00    -0.252 N
ATOM     16  H8  UNL     1      43.415   3.936  12.554  1.00  0.00     0.195 HD
HETATM   17  C7  UNL     1      44.489   2.759  10.676  1.00  0.00     0.148 A
HETATM   18  N6  UNL     1      45.063   2.217   9.578  1.00  0.00    -0.172 N
ATOM     19  H6  UNL     1      44.887   1.234   9.369  1.00  0.00     0.186 HD
BRANCH  12  20
HETATM   20  O1  UNL     1      45.952   8.941  12.851  1.00  0.00    -0.283 OA
HETATM   21  C1  UNL     1      47.334   9.144  12.831  1.00  0.00     0.237 C
ENDBRANCH  12  20
BRANCH  17  22
HETATM   22  N7  UNL     1      43.727   2.092  11.476  1.00  0.00    -0.383 N
ATOM     23  H72 UNL     1      44.072   1.210  11.855  1.00  0.00     0.157 HD
ATOM     24  H71 UNL     1      42.795   2.404  11.747  1.00  0.00     0.157 HD
ENDBRANCH  17  22
ENDBRANCH   1   4
BRANCH   1  25
HETATM   25  N4  UNL     1      46.666   3.039   6.426  1.00  0.00    -0.315 N
ATOM     26  H42 UNL     1      46.153   3.913   6.305  1.00  0.00     0.178 HD
ATOM     27  H41 UNL     1      47.315   2.718   5.708  1.00  0.00     0.178 HD
ENDBRANCH   1  25
TORSDOF 4
ENDMDL