MODEL 2
REMARK VINA RESULT: -7.587497930      0.979      1.536
REMARK  4 active torsions:
REMARK  status: ('A' for Active; 'I' for Inactive)
REMARK    1  A    between atoms: N1_1  and  C1_4
REMARK    2  A    between atoms: N4_11  and  C3_12
REMARK    3  A    between atoms: N6_16  and  N7_17
REMARK    4  A    between atoms: C7_22  and  N8_23
ROOT
HETATM    1  C3  UNL     1      45.336   5.510  10.754  1.00  0.00     0.117 A
HETATM    2  C4  UNL     1      45.945   5.321   9.532  1.00  0.00     0.082 A
HETATM    3  C5  UNL     1      45.758   4.156   8.792  1.00  0.00     0.143 A
HETATM    4  N5  UNL     1      46.414   4.050   7.563  1.00  0.00    -0.081 NA
HETATM    5  N6  UNL     1      44.965   3.186   9.270  1.00  0.00    -0.211 N
HETATM    6  C6  UNL     1      44.350   3.322  10.454  1.00  0.00     0.303 A
HETATM    7  O2  UNL     1      43.598   2.409  10.915  1.00  0.00    -0.263 OA
HETATM    8  C7  UNL     1      44.528   4.489  11.210  1.00  0.00     0.201 A
ENDROOT
BRANCH   1   9
HETATM    9  N4  UNL     1      45.484   6.666  11.552  1.00  0.00    -0.080 N
HETATM   10  C1  UNL     1      46.292   6.849  12.629  1.00  0.00     0.702 A
HETATM   11  N2  UNL     1      46.066   8.108  13.027  1.00  0.00    -0.139 N
HETATM   12  C2  UNL     1      45.154   8.700  12.237  1.00  0.00     0.354 A
ATOM     13  H2  UNL     1      46.524   8.556  13.821  1.00  0.00     0.189 HD
HETATM   14  O1  UNL     1      44.674   9.863  12.277  1.00  0.00    -0.245 OA
HETATM   15  N3  UNL     1      44.799   7.798  11.326  1.00  0.00    -0.229 N
ATOM     16  H3  UNL     1      44.119   7.943  10.579  1.00  0.00     0.193 HD
BRANCH  10  17
HETATM   17  N1  UNL     1      47.069   5.956  13.094  1.00  0.00    -0.233 N
ATOM     18  H12 UNL     1      47.597   6.056  13.961  1.00  0.00     0.174 HD
ATOM     19  H11 UNL     1      47.312   5.031  12.737  1.00  0.00     0.174 HD
ENDBRANCH  10  17
ENDBRANCH   1   9
BRANCH   8  20
HETATM   20  N8  UNL     1      43.891   4.648  12.451  1.00  0.00    -0.107 N
HETATM   21  O3  UNL     1      44.365   4.138  13.458  1.00  0.00    -0.531 OA
HETATM   22  O4  UNL     1      42.750   5.372  12.519  1.00  0.00    -0.531 OA
ENDBRANCH   8  20
BRANCH   5  23
HETATM   23  N7  UNL     1      44.795   2.030   8.509  1.00  0.00    -0.334 N
ATOM     24  H72 UNL     1      44.361   1.200   8.913  1.00  0.00     0.177 HD
ATOM     25  H71 UNL     1      45.117   2.034   7.541  1.00  0.00     0.177 HD
ENDBRANCH   5  23
TORSDOF 4
ENDMDL