MODEL 2
REMARK VINA RESULT: -6.992638681      0.598      1.077
REMARK  9 active torsions:
REMARK  status: ('A' for Active; 'I' for Inactive)
REMARK    1  A    between atoms: O1_2  and  C2_3
REMARK    2  A    between atoms: C2_3  and  C3_5
REMARK    3  A    between atoms: C4_6  and  O3_7
REMARK    4  A    between atoms: C5_9  and  C6_10
REMARK    5  A    between atoms: C6_10  and  O4_11
REMARK    6  A    between atoms: O4_11  and  C7_12
REMARK    7  A    between atoms: C7_12  and  N1_13
REMARK    8  A    between atoms: C7_12  and  N2_17
REMARK    9  A    between atoms: C9_23  and  O5_25
ROOT
HETATM    1  C7  UNL     1      48.266   3.568  16.814  1.00  0.00     0.484 C
HETATM    2  C8  UNL     1      49.402   3.820  17.700  1.00  0.00     0.160 C
HETATM    3  N3  UNL     1      50.307   4.006  18.394  1.00  0.00    -0.190 NA
ENDROOT
BRANCH   1   4
HETATM    4  O4  UNL     1      47.762   4.783  16.283  1.00  0.00    -0.291 OA
BRANCH   4   5
HETATM    5  C6  UNL     1      48.368   5.284  15.132  1.00  0.00     0.154 C
BRANCH   5   6
HETATM    6  C5  UNL     1      47.678   5.583  14.043  1.00  0.00     0.036 A
HETATM    7  C4  UNL     1      46.715   4.927  13.254  1.00  0.00     0.092 A
HETATM    8  C3  UNL     1      46.598   5.919  12.434  1.00  0.00     0.089 A
HETATM    9  C9  UNL     1      47.579   6.707  13.156  1.00  0.00     0.121 A
HETATM   10  C10 UNL     1      48.801   6.929  12.268  1.00  0.00     0.057 C
BRANCH   7  11
HETATM   11  O3  UNL     1      46.059   3.656  13.276  1.00  0.00    -0.359 OA
ATOM     12  H3  UNL     1      45.528   3.247  13.949  1.00  0.00     0.217 HD
ENDBRANCH   7  11
BRANCH   8  13
HETATM   13  C2  UNL     1      45.787   6.182  11.217  1.00  0.00     0.295 C
HETATM   14  O2  UNL     1      46.202   5.912  10.078  1.00  0.00    -0.259 OA
BRANCH  13  15
HETATM   15  O1  UNL     1      44.525   6.746  11.330  1.00  0.00    -0.323 OA
HETATM   16  C1  UNL     1      43.345   5.950  11.321  1.00  0.00     0.213 C
ENDBRANCH  13  15
ENDBRANCH   8  13
BRANCH   9  17
HETATM   17  O5  UNL     1      47.083   7.900  13.696  1.00  0.00    -0.380 OA
ATOM     18  H5  UNL     1      46.507   7.786  14.443  1.00  0.00     0.211 HD
ENDBRANCH   9  17
ENDBRANCH   5   6
ENDBRANCH   4   5
ENDBRANCH   1   4
BRANCH   1  19
HETATM   19  N1  UNL     1      47.241   2.851  17.574  1.00  0.00    -0.007 N
ATOM     20  H13 UNL     1      47.559   2.632  18.517  1.00  0.00     0.281 HD
ATOM     21  H12 UNL     1      46.456   3.459  17.809  1.00  0.00     0.281 HD
ATOM     22  H11 UNL     1      46.930   2.014  17.080  1.00  0.00     0.281 HD
ENDBRANCH   1  19
BRANCH   1  23
HETATM   23  N2  UNL     1      48.641   2.733  15.684  1.00  0.00    -0.007 N
ATOM     24  H23 UNL     1      48.881   3.270  14.851  1.00  0.00     0.281 HD
ATOM     25  H22 UNL     1      49.544   2.274  15.807  1.00  0.00     0.281 HD
ATOM     26  H21 UNL     1      47.875   2.076  15.532  1.00  0.00     0.281 HD
ENDBRANCH   1  23
TORSDOF 9
ENDMDL