MODEL 5
REMARK VINA RESULT: -8.239634300      2.373      7.054
REMARK  3 active torsions:
REMARK  status: ('A' for Active; 'I' for Inactive)
REMARK    1  A    between atoms: N1_1  and  C1_4
REMARK    2  A    between atoms: C2_7  and  C3_8
REMARK    3  A    between atoms: C8_20  and  C9_21
ROOT
HETATM    1  C1  UNL     1      46.472   4.285  13.515  1.00  0.00     0.699 A
HETATM    2  N2  UNL     1      47.252   3.662  14.447  1.00  0.00    -0.188 N
ATOM      3  H2  UNL     1      47.202   2.649  14.555  1.00  0.00     0.184 HD
HETATM    4  C2  UNL     1      48.083   4.375  15.219  1.00  0.00     0.076 A
HETATM    5  C6  UNL     1      48.119   5.737  15.041  1.00  0.00     0.083 A
HETATM    6  C7  UNL     1      47.318   6.350  14.090  1.00  0.00     0.149 A
HETATM    7  N5  UNL     1      47.189   7.643  13.746  1.00  0.00    -0.322 N
ATOM      8  H5  UNL     1      47.693   8.427  14.160  1.00  0.00     0.169 HD
HETATM    9  C8  UNL     1      46.284   7.718  12.769  1.00  0.00     0.169 A
HETATM   10  N10 UNL     1      45.871   6.466  12.527  1.00  0.00    -0.259 N
ATOM     11  H10 UNL     1      45.176   6.207  11.826  1.00  0.00     0.190 HD
HETATM   12  N11 UNL     1      46.498   5.607  13.334  1.00  0.00    -0.068 N
ENDROOT
BRANCH   4  13
HETATM   13  C3  UNL     1      48.928   3.684  16.231  1.00  0.00     0.060 C
HETATM   14  N3  UNL     1      49.345   2.476  16.170  1.00  0.00    -0.367 N
HETATM   15  C4  UNL     1      50.144   2.086  17.300  1.00  0.00     0.355 C
ATOM     16  H3  UNL     1      49.131   1.849  15.393  1.00  0.00     0.161 HD
HETATM   17  N4  UNL     1      49.877   3.140  18.265  1.00  0.00    -0.054 N
HETATM   18  C5  UNL     1      49.436   4.271  17.489  1.00  0.00     0.293 C
ATOM     19  H42 UNL     1      49.224   2.868  19.000  1.00  0.00     0.279 HD
ATOM     20  H41 UNL     1      50.668   3.346  18.876  1.00  0.00     0.279 HD
ENDBRANCH   4  13
BRANCH   1  21
HETATM   21  N1  UNL     1      45.684   3.570  12.789  1.00  0.00    -0.233 N
ATOM     22  H12 UNL     1      44.924   3.060  13.238  1.00  0.00     0.174 HD
ATOM     23  H11 UNL     1      45.842   3.535  11.782  1.00  0.00     0.174 HD
ENDBRANCH   1  21
BRANCH   9  24
HETATM   24  C9  UNL     1      45.859   8.958  12.118  1.00  0.00     0.177 A
HETATM   25  N6  UNL     1      46.436  10.151  12.320  1.00  0.00    -0.267 N
HETATM   26  N7  UNL     1      45.788  11.046  11.564  1.00  0.00    -0.007 NA
ATOM     27  H6  UNL     1      47.226  10.343  12.937  1.00  0.00     0.185 HD
HETATM   28  N8  UNL     1      44.819  10.430  10.897  1.00  0.00    -0.007 NA
HETATM   29  N9  UNL     1      44.860   9.132  11.238  1.00  0.00    -0.267 N
ATOM     30  H9  UNL     1      44.239   8.403  10.889  1.00  0.00     0.185 HD
ENDBRANCH   9  24
TORSDOF 3
ENDMDL