MODEL 3
REMARK VINA RESULT: -7.784449129      1.651      3.457
REMARK  3 active torsions:
REMARK  status: ('A' for Active; 'I' for Inactive)
REMARK    1  A    between atoms: N1_2  and  N2_3
REMARK    2  A    between atoms: N1_2  and  N3_6
REMARK    3  A    between atoms: N4_8  and  N5_10
ROOT
HETATM    1  N5  UNL     1      45.952   4.157  13.543  1.00  0.00    -0.249 N
ATOM      2  H5  UNL     1      45.393   3.318  13.386  1.00  0.00     0.192 HD
HETATM    3  C2  UNL     1      45.557   5.279  13.001  1.00  0.00     0.247 A
HETATM    4  N6  UNL     1      46.245   6.418  13.168  1.00  0.00    -0.314 N
ATOM      5  H6  UNL     1      47.093   6.386  13.735  1.00  0.00     0.170 HD
HETATM    6  C3  UNL     1      45.891   7.590  12.640  1.00  0.00     0.138 A
HETATM    7  C4  UNL     1      46.382   8.877  12.642  1.00  0.00     0.291 A
HETATM    8  O1  UNL     1      47.428   9.259  13.235  1.00  0.00    -0.264 OA
HETATM    9  N7  UNL     1      45.587   9.679  11.916  1.00  0.00    -0.258 N
HETATM   10  C5  UNL     1      45.760  11.098  11.674  1.00  0.00     0.181 C
HETATM   11  N8  UNL     1      44.586   8.914  11.447  1.00  0.00    -0.286 N
HETATM   12  C6  UNL     1      43.527   9.439  10.615  1.00  0.00     0.178 C
HETATM   13  C7  UNL     1      44.730   7.644  11.861  1.00  0.00     0.134 A
HETATM   14  C8  UNL     1      44.037   6.471  11.700  1.00  0.00     0.176 A
HETATM   15  N9  UNL     1      42.982   6.409  11.019  1.00  0.00    -0.378 N
ATOM     16  H91 UNL     1      42.466   5.537  10.899  1.00  0.00     0.158 HD
ATOM     17  H92 UNL     1      42.645   7.267  10.582  1.00  0.00     0.158 HD
HETATM   18  O2  UNL     1      44.479   5.344  12.274  1.00  0.00    -0.259 OA
ENDROOT
BRANCH   1  19
HETATM   19  N4  UNL     1      47.084   4.054  14.315  1.00  0.00    -0.224 N
HETATM   20  N3  UNL     1      47.007   4.266  15.549  1.00  0.00    -0.212 N
ATOM     21  H3  UNL     1      46.119   4.513  15.985  1.00  0.00     0.211 HD
ATOM     22  H4  UNL     1      47.978   3.808  13.888  1.00  0.00     0.210 HD
BRANCH  20  23
HETATM   23  N1  UNL     1      48.171   4.155  16.305  1.00  0.00    -0.230 N
HETATM   24  C1  UNL     1      48.260   3.318  17.489  1.00  0.00     0.201 C
BRANCH  23  25
HETATM   25  N2  UNL     1      49.301   4.868  15.925  1.00  0.00    -0.328 N
ATOM     26  H22 UNL     1      49.685   5.571  16.555  1.00  0.00     0.178 HD
ATOM     27  H21 UNL     1      49.714   4.660  15.014  1.00  0.00     0.178 HD
ENDBRANCH  23  25
ENDBRANCH  20  23
ENDBRANCH   1  19
TORSDOF 3
ENDMDL