MODEL 4
REMARK VINA RESULT: -7.805941337      3.050      4.075
REMARK  4 active torsions:
REMARK  status: ('A' for Active; 'I' for Inactive)
REMARK    1  A    between atoms: C4_9  and  N4_10
REMARK    2  A    between atoms: C5_13  and  N5_14
REMARK    3  A    between atoms: C7_20  and  O3_21
REMARK    4  A    between atoms: C7_20  and  C8_23
ROOT
HETATM    1  C8  UNL     1      45.436   4.802  10.095  1.00  0.00     0.290 C
HETATM    2  O4  UNL     1      46.231   5.646   9.603  1.00  0.00    -0.275 OA
HETATM    3  C9  UNL     1      45.474   3.488   9.523  1.00  0.00     0.144 C
HETATM    4  N7  UNL     1      45.488   2.415   9.050  1.00  0.00    -0.188 NA
ENDROOT
BRANCH   1   5
HETATM    5  C7  UNL     1      44.507   5.116  11.198  1.00  0.00     0.259 C
HETATM    6  N1  UNL     1      44.714   4.321  12.363  1.00  0.00    -0.337 N
HETATM    7  C1  UNL     1      43.535   4.103  13.128  1.00  0.00     0.154 C
HETATM    8  C2  UNL     1      45.907   4.541  13.080  1.00  0.00     0.182 C
HETATM    9  N2  UNL     1      46.406   5.893  13.033  1.00  0.00    -0.337 N
HETATM   10  C3  UNL     1      45.625   6.905  12.432  1.00  0.00     0.136 A
ATOM     11  H2  UNL     1      47.317   6.117  13.432  1.00  0.00     0.168 HD
HETATM   12  N3  UNL     1      45.818   8.190  12.759  1.00  0.00    -0.324 N
HETATM   13  C6  UNL     1      44.669   6.556  11.514  1.00  0.00     0.120 A
HETATM   14  C4  UNL     1      45.053   9.118  12.163  1.00  0.00     0.151 A
ATOM     15  H3  UNL     1      46.527   8.456  13.442  1.00  0.00     0.169 HD
HETATM   16  C5  UNL     1      44.073   8.801  11.227  1.00  0.00     0.218 A
HETATM   17  N6  UNL     1      43.902   7.503  10.919  1.00  0.00    -0.330 N
ATOM     18  H6  UNL     1      43.194   7.231  10.238  1.00  0.00     0.168 HD
BRANCH  14  19
HETATM   19  N4  UNL     1      45.197  10.378  12.442  1.00  0.00    -0.382 N
ATOM     20  H42 UNL     1      45.954  10.615  13.083  1.00  0.00     0.157 HD
ATOM     21  H41 UNL     1      44.579  11.078  12.032  1.00  0.00     0.157 HD
ENDBRANCH  14  19
BRANCH  16  22
HETATM   22  N5  UNL     1      43.295   9.838  10.633  1.00  0.00    -0.094 N
HETATM   23  O1  UNL     1      43.877  10.642   9.890  1.00  0.00    -0.530 OA
HETATM   24  O2  UNL     1      41.949   9.975  10.852  1.00  0.00    -0.530 OA
ENDBRANCH  16  22
BRANCH   5  25
HETATM   25  O3  UNL     1      43.203   4.877  10.745  1.00  0.00    -0.359 OA
ATOM     26  H3  UNL     1      43.158   5.149   9.835  1.00  0.00     0.213 HD
ENDBRANCH   5  25
ENDBRANCH   1   5
TORSDOF 4
ENDMDL