MODEL 5
REMARK VINA RESULT: -7.296101876      3.380      6.329
REMARK  6 active torsions:
REMARK  status: ('A' for Active; 'I' for Inactive)
REMARK    1  A    between atoms: C2_2  and  O2_4
REMARK    2  A    between atoms: O2_4  and  N1_5
REMARK    3  A    between atoms: C3_7  and  C4_8
REMARK    4  A    between atoms: C3_7  and  N6_22
REMARK    5  A    between atoms: N2_12  and  N3_13
REMARK    6  A    between atoms: C7_16  and  N4_17
ROOT
HETATM    1  C4  UNL     1      45.248   3.103   9.111  1.00  0.00     0.106 A
HETATM    2  C5  UNL     1      45.540   1.749   8.992  1.00  0.00     0.111 A
HETATM    3  C6  UNL     1      46.394   1.264   8.025  1.00  0.00     0.284 A
HETATM    4  O3  UNL     1      46.677   0.046   7.893  1.00  0.00    -0.266 OA
HETATM    5  N2  UNL     1      46.974   2.132   7.155  1.00  0.00    -0.055 N
HETATM    6  C7  UNL     1      46.691   3.456   7.268  1.00  0.00     0.700 A
HETATM    7  N5  UNL     1      45.856   3.909   8.218  1.00  0.00    -0.186 N
ATOM      8  H5  UNL     1      45.673   4.912   8.265  1.00  0.00     0.184 HD
ENDROOT
BRANCH   1   9
HETATM    9  C3  UNL     1      44.363   3.630  10.110  1.00  0.00     0.221 C
HETATM   10  N1  UNL     1      43.774   4.760   9.938  1.00  0.00    -0.234 N
ATOM     11  H1  UNL     1      43.967   5.256   9.067  1.00  0.00     0.197 HD
BRANCH  10  12
HETATM   12  O2  UNL     1      42.925   5.352  10.804  1.00  0.00    -0.198 OA
BRANCH  12  13
HETATM   13  C2  UNL     1      43.420   5.851  11.997  1.00  0.00     0.277 C
HETATM   14  C1  UNL     1      44.592   6.757  12.085  1.00  0.00     0.128 C
HETATM   15  O1  UNL     1      42.861   5.528  13.069  1.00  0.00    -0.264 OA
ENDBRANCH  12  13
ENDBRANCH  10  12
BRANCH   9  16
HETATM   16  N6  UNL     1      44.123   2.914  11.301  1.00  0.00    -0.094 N
HETATM   17  O4  UNL     1      43.076   2.268  11.420  1.00  0.00    -0.530 OA
HETATM   18  O5  UNL     1      45.027   2.924  12.322  1.00  0.00    -0.530 OA
ENDBRANCH   9  16
ENDBRANCH   1   9
BRANCH   6  19
HETATM   19  N4  UNL     1      47.269   4.239   6.415  1.00  0.00    -0.233 N
ATOM     20  H42 UNL     1      48.132   4.740   6.625  1.00  0.00     0.174 HD
ATOM     21  H41 UNL     1      46.812   4.332   5.508  1.00  0.00     0.174 HD
ENDBRANCH   6  19
BRANCH   5  22
HETATM   22  N3  UNL     1      47.844   1.691   6.159  1.00  0.00    -0.321 N
ATOM     23  H32 UNL     1      48.663   2.248   5.916  1.00  0.00     0.178 HD
ATOM     24  H31 UNL     1      47.682   0.815   5.661  1.00  0.00     0.178 HD
ENDBRANCH   5  22
TORSDOF 6
ENDMDL