MODEL 5
REMARK VINA RESULT: -8.161046184      2.095      2.663
REMARK  5 active torsions:
REMARK  status: ('A' for Active; 'I' for Inactive)
REMARK    1  A    between atoms: C2_3  and  O1_4
REMARK    2  A    between atoms: C3_6  and  N2_7
REMARK    3  A    between atoms: N2_7  and  O2_9
REMARK    4  A    between atoms: N3_11  and  C4_12
REMARK    5  A    between atoms: C5_15  and  N5_16
ROOT
HETATM    1  C4  UNL     1      45.993   5.530  11.831  1.00  0.00     0.712 C
HETATM    2  N4  UNL     1      46.834   5.134  12.831  1.00  0.00    -0.021 N
ATOM      3  H4  UNL     1      47.128   4.158  12.801  1.00  0.00     0.203 HD
HETATM    4  C5  UNL     1      47.331   5.865  13.858  1.00  0.00     0.693 C
HETATM    5  N6  UNL     1      47.487   7.200  13.883  1.00  0.00    -0.151 N
ATOM      6  H6  UNL     1      48.210   7.565  14.502  1.00  0.00     0.188 HD
HETATM    7  C6  UNL     1      46.784   8.109  13.170  1.00  0.00     0.328 C
HETATM    8  O3  UNL     1      47.023   9.291  13.446  1.00  0.00    -0.261 OA
HETATM    9  C7  UNL     1      45.837   7.906  12.177  1.00  0.00     0.328 C
HETATM   10  O4  UNL     1      45.280   8.912  11.677  1.00  0.00    -0.261 OA
HETATM   11  N7  UNL     1      45.424   6.736  11.662  1.00  0.00    -0.150 N
ATOM     12  H7  UNL     1      44.588   6.765  11.079  1.00  0.00     0.188 HD
ENDROOT
BRANCH   1  13
HETATM   13  N3  UNL     1      45.662   4.568  10.834  1.00  0.00    -0.074 N
HETATM   14  C3  UNL     1      45.100   3.368  11.086  1.00  0.00     0.204 A
HETATM   15  C2  UNL     1      44.915   2.687   9.893  1.00  0.00     0.194 A
HETATM   16  N1  UNL     1      45.374   3.495   8.919  1.00  0.00    -0.280 N
HETATM   17  C1  UNL     1      45.391   3.216   7.496  1.00  0.00     0.163 C
HETATM   18  C8  UNL     1      45.817   4.617   9.508  1.00  0.00     0.351 A
HETATM   19  O5  UNL     1      46.310   5.577   8.868  1.00  0.00    -0.245 OA
BRANCH  14  20
HETATM   20  N2  UNL     1      44.732   2.825  12.345  1.00  0.00    -0.248 N
ATOM     21  H2  UNL     1      45.306   2.971  13.176  1.00  0.00     0.196 HD
BRANCH  20  22
HETATM   22  O2  UNL     1      43.682   2.166  12.394  1.00  0.00    -0.288 OA
ATOM     23  H2  UNL     1      42.973   2.434  11.822  1.00  0.00     0.244 HD
ENDBRANCH  20  22
ENDBRANCH  14  20
BRANCH  15  24
HETATM   24  O1  UNL     1      44.371   1.428   9.702  1.00  0.00    -0.343 OA
ATOM     25  H1  UNL     1      44.860   0.646   9.478  1.00  0.00     0.219 HD
ENDBRANCH  15  24
ENDBRANCH   1  13
BRANCH   4  26
HETATM   26  N5  UNL     1      47.701   5.258  14.929  1.00  0.00    -0.234 N
ATOM     27  H52 UNL     1      47.202   5.538  15.773  1.00  0.00     0.174 HD
ATOM     28  H51 UNL     1      48.444   4.562  14.869  1.00  0.00     0.174 HD
ENDBRANCH   4  26
TORSDOF 5
ENDMDL