MODEL 4
REMARK VINA RESULT: -6.438079148      2.564      5.525
REMARK  9 active torsions:
REMARK  status: ('A' for Active; 'I' for Inactive)
REMARK    1  A    between atoms: C2_2  and  C3_3
REMARK    2  A    between atoms: C10_10  and  O1_11
REMARK    3  A    between atoms: C11_13  and  O2_15
REMARK    4  A    between atoms: O2_15  and  S1_16
REMARK    5  A    between atoms: C13_19  and  C14_20
REMARK    6  A    between atoms: C14_20  and  O5_21
REMARK    7  A    between atoms: O5_21  and  C15_22
REMARK    8  A    between atoms: C15_22  and  C16_24
REMARK    9  A    between atoms: C25_33  and  O7_34
ROOT
HETATM    1  C3  UNL     1      15.818  49.485  67.366  1.00  0.00    -0.040 C
HETATM    2  C4  UNL     1      15.937  48.201  68.122  1.00  0.00     0.015 C
HETATM    3  C5  UNL     1      17.225  50.011  67.262  1.00  0.00     0.010 C
HETATM    4  C6  UNL     1      17.156  51.302  66.525  1.00  0.00     0.014 C
HETATM    5  C7  UNL     1      17.414  51.039  65.098  1.00  0.00    -0.005 C
HETATM    6  C8  UNL     1      18.776  50.470  64.946  1.00  0.00     0.023 C
HETATM    7  C9  UNL     1      19.005  51.462  63.873  1.00  0.00     0.052 C
HETATM    8  C10 UNL     1      17.993  52.335  64.521  1.00  0.00     0.134 C
HETATM    9  C11 UNL     1      18.312  50.895  62.622  1.00  0.00     0.090 C
HETATM   10  C12 UNL     1      18.438  52.075  61.689  1.00  0.00     0.048 C
HETATM   11  C13 UNL     1      16.956  50.386  62.887  1.00  0.00     0.056 C
HETATM   12  C19 UNL     1      16.333  50.522  64.217  1.00  0.00    -0.018 C
HETATM   13  C20 UNL     1      15.298  51.660  64.163  1.00  0.00     0.017 C
HETATM   14  C21 UNL     1      15.617  49.301  64.777  1.00  0.00    -0.031 C
HETATM   15  C22 UNL     1      16.358  48.015  64.612  1.00  0.00     0.016 C
HETATM   16  C23 UNL     1      14.315  49.007  64.000  1.00  0.00     0.013 C
HETATM   17  C24 UNL     1      13.804  47.596  64.283  1.00  0.00     0.032 C
HETATM   18  C25 UNL     1      13.335  47.634  65.688  1.00  0.00     0.118 C
HETATM   19  C26 UNL     1      13.697  48.885  66.417  1.00  0.00     0.038 C
HETATM   20  C27 UNL     1      15.027  49.527  66.138  1.00  0.00     0.005 C
ENDROOT
BRANCH  11  21
HETATM   21  C14 UNL     1      16.131  50.617  61.639  1.00  0.00     0.187 C
BRANCH  21  22
HETATM   22  O5  UNL     1      15.840  49.622  60.868  1.00  0.00    -0.321 OA
BRANCH  22  23
HETATM   23  C15 UNL     1      15.552  48.632  60.101  1.00  0.00     0.262 C
HETATM   24  O6  UNL     1      16.526  48.365  59.300  1.00  0.00    -0.265 OA
BRANCH  23  25
HETATM   25  C16 UNL     1      14.306  47.816  60.039  1.00  0.00     0.077 C
HETATM   26  C17 UNL     1      13.948  47.441  58.626  1.00  0.00     0.020 C
HETATM   27  C18 UNL     1      13.149  48.525  60.660  1.00  0.00     0.020 C
ENDBRANCH  23  25
ENDBRANCH  22  23
ENDBRANCH  21  22
ENDBRANCH  11  21
BRANCH   9  28
HETATM   28  O2  UNL     1      19.205  49.937  62.170  1.00  0.00    -0.251 OA
BRANCH  28  29
HETATM   29  S1  UNL     1      19.997  50.427  60.748  1.00  0.00     0.401 S
HETATM   30  O3  UNL     1      21.494  50.426  61.034  1.00  0.00    -0.179 OA
HETATM   31  O4  UNL     1      19.720  49.354  59.459  1.00  0.00    -0.179 OA
ENDBRANCH  28  29
ENDBRANCH   9  28
BRANCH   8  32
HETATM   32  O1  UNL     1      18.656  53.136  65.484  1.00  0.00    -0.394 OA
ATOM     33  H1  UNL     1      18.978  53.959  65.135  1.00  0.00     0.210 HD
ENDBRANCH   8  32
BRANCH   1  34
HETATM   34  C2  UNL     1      15.125  50.435  68.371  1.00  0.00     0.005 C
HETATM   35  C1  UNL     1      15.077  49.915  69.766  1.00  0.00     0.006 C
ENDBRANCH   1  34
BRANCH  18  36
HETATM   36  O7  UNL     1      11.947  47.480  65.739  1.00  0.00    -0.396 OA
ATOM     37  H7  UNL     1      11.576  47.554  64.868  1.00  0.00     0.210 HD
ENDBRANCH  18  36
TORSDOF 9
ENDMDL