MODEL 1
REMARK VINA RESULT: -8.345146934      0.000      0.000
REMARK  8 active torsions:
REMARK  status: ('A' for Active; 'I' for Inactive)
REMARK    1  A    between atoms: S1_2  and  C2_3
REMARK    2  A    between atoms: N1_6  and  C5_7
REMARK    3  A    between atoms: N3_12  and  C8_13
REMARK    4  A    between atoms: C8_13  and  C9_14
REMARK    5  A    between atoms: C10_15  and  N4_16
REMARK       I    between atoms: N4_16  and  C11_18
REMARK       I    between atoms: C11_18  and  N5_20
REMARK    6  A    between atoms: N5_20  and  C12_22
REMARK    7  A    between atoms: C24_35  and  C25_36
REMARK    8  A    between atoms: C25_36  and  N6_37
ROOT
HETATM    1  C5  UNL     1       9.013  49.978  55.755  1.00  0.00     0.683 A
HETATM    2  N2  UNL     1       9.308  50.032  54.432  1.00  0.00    -0.193 N
ATOM      3  H2  UNL     1       8.699  50.422  53.713  1.00  0.00     0.184 HD
HETATM    4  C6  UNL     1      10.496  49.508  54.211  1.00  0.00     0.055 A
HETATM    5  C7  UNL     1      10.971  49.108  55.452  1.00  0.00     0.053 A
HETATM    6  N3  UNL     1      10.035  49.411  56.415  1.00  0.00    -0.181 N
HETATM    7  C22 UNL     1      12.283  48.510  55.200  1.00  0.00     0.060 C
HETATM    8  C23 UNL     1      12.374  48.192  53.728  1.00  0.00     0.018 C
HETATM    9  C24 UNL     1      11.476  49.211  53.123  1.00  0.00     0.064 C
ENDROOT
BRANCH   6  10
HETATM   10  C8  UNL     1      10.134  49.284  57.827  1.00  0.00     0.189 C
BRANCH  10  11
HETATM   11  C9  UNL     1      10.106  47.864  58.381  1.00  0.00     0.002 A
HETATM   12  C10 UNL     1      11.110  47.426  59.191  1.00  0.00     0.086 A
HETATM   13  S2  UNL     1      10.422  45.862  59.728  1.00  0.00    -0.076 SA
HETATM   14  C16 UNL     1       8.987  45.887  58.909  1.00  0.00    -0.008 A
HETATM   15  C17 UNL     1       9.015  47.081  58.224  1.00  0.00    -0.034 A
HETATM   16  C21 UNL     1       7.815  44.962  58.798  1.00  0.00     0.046 C
HETATM   17  C18 UNL     1       7.747  47.219  57.355  1.00  0.00     0.040 C
HETATM   18  C19 UNL     1       6.633  47.062  58.329  1.00  0.00     0.005 C
HETATM   19  C20 UNL     1       6.496  45.634  58.725  1.00  0.00     0.005 C
BRANCH  12  20
HETATM   20  N4  UNL     1      12.441  47.737  59.513  1.00  0.00    -0.302 N
HETATM   21  C11 UNL     1      13.110  47.969  60.681  1.00  0.00     0.321 C
HETATM   22  O1  UNL     1      12.695  48.005  61.856  1.00  0.00    -0.247 OA
HETATM   23  N5  UNL     1      14.554  48.225  60.625  1.00  0.00    -0.335 N
ATOM     24  H5  UNL     1      15.017  48.222  59.716  1.00  0.00     0.165 HD
ATOM     25  H4  UNL     1      13.042  47.804  58.692  1.00  0.00     0.171 HD
BRANCH  23  26
HETATM   26  C12 UNL     1      15.333  48.478  61.786  1.00  0.00     0.023 C
HETATM   27  C13 UNL     1      15.319  47.313  62.764  1.00  0.00     0.037 C
HETATM   28  C14 UNL     1      14.913  49.721  62.533  1.00  0.00     0.037 C
HETATM   29  C15 UNL     1      16.799  48.700  61.415  1.00  0.00     0.037 C
ENDBRANCH  23  26
ENDBRANCH  12  20
ENDBRANCH  10  11
ENDBRANCH   6  10
BRANCH   1  30
HETATM   30  N1  UNL     1       7.720  50.420  56.158  1.00  0.00    -0.216 N
HETATM   31  C4  UNL     1       6.505  50.302  55.361  1.00  0.00     0.142 C
HETATM   32  C3  UNL     1       5.877  51.662  55.647  1.00  0.00     0.037 C
HETATM   33  C2  UNL     1       6.054  51.779  57.140  1.00  0.00     0.067 C
HETATM   34  C26 UNL     1       7.363  51.080  57.390  1.00  0.00     0.156 C
BRANCH  33  35
HETATM   35  S1  UNL     1       6.113  53.520  57.640  1.00  0.00    -0.167 SA
HETATM   36  C1  UNL     1       6.652  53.648  59.353  1.00  0.00     0.090 C
ENDBRANCH  33  35
ENDBRANCH   1  30
BRANCH   9  37
HETATM   37  C25 UNL     1      12.182  50.515  52.815  1.00  0.00     0.240 C
BRANCH  37  38
HETATM   38  N6  UNL     1      12.055  50.852  51.409  1.00  0.00    -0.079 N
ATOM     39  H63 UNL     1      12.639  50.256  50.824  1.00  0.00     0.274 HD
ATOM     40  H62 UNL     1      11.143  50.587  51.039  1.00  0.00     0.274 HD
ATOM     41  H61 UNL     1      12.251  51.841  51.253  1.00  0.00     0.274 HD
ENDBRANCH  37  38
ENDBRANCH   9  37
TORSDOF 8
ENDMDL