MODEL 2
REMARK VINA RESULT: -6.070726117      2.174      6.642
REMARK  10 active torsions:
REMARK  status: ('A' for Active; 'I' for Inactive)
REMARK    1  A    between atoms: C2_2  and  C3_3
REMARK    2  A    between atoms: C6_6  and  O1_7
REMARK    3  A    between atoms: C11_13  and  O2_15
REMARK    4  A    between atoms: C16_21  and  C17_22
REMARK    5  A    between atoms: C17_22  and  C18_23
REMARK    6  A    between atoms: C19_26  and  C20_27
REMARK    7  A    between atoms: C20_27  and  O5_28
REMARK    8  A    between atoms: C20_27  and  C21_30
REMARK    9  A    between atoms: C21_30  and  C22_31
REMARK   10  A    between atoms: C22_31  and  C23_32
ROOT
HETATM    1  C3  UNL     1      14.143  49.540  67.714  1.00  0.00     0.077 C
HETATM    2  C4  UNL     1      14.828  49.363  69.098  1.00  0.00     0.051 C
HETATM    3  C5  UNL     1      13.442  50.840  67.631  1.00  0.00     0.074 C
HETATM    4  C6  UNL     1      13.595  51.742  68.819  1.00  0.00     0.128 C
HETATM    5  C7  UNL     1      14.553  52.924  68.531  1.00  0.00     0.033 C
HETATM    6  C8  UNL     1      13.694  54.148  68.187  1.00  0.00     0.017 C
HETATM    7  C9  UNL     1      15.313  53.274  69.752  1.00  0.00    -0.021 C
HETATM    8  C10 UNL     1      16.554  53.623  69.903  1.00  0.00     0.014 C
HETATM    9  C11 UNL     1      17.632  53.791  68.911  1.00  0.00     0.132 C
HETATM   10  C12 UNL     1      17.308  54.602  67.712  1.00  0.00     0.059 C
HETATM   11  C13 UNL     1      18.286  52.487  68.586  1.00  0.00     0.169 C
HETATM   12  O3  UNL     1      18.234  51.628  69.432  1.00  0.00    -0.294 OA
HETATM   13  C14 UNL     1      18.973  52.213  67.312  1.00  0.00     0.069 C
HETATM   14  C15 UNL     1      20.410  52.644  67.336  1.00  0.00     0.019 C
HETATM   15  C16 UNL     1      18.706  50.885  66.692  1.00  0.00     0.065 C
HETATM   16  S1  UNL     1      17.196  51.053  65.730  1.00  0.00    -0.153 SA
HETATM   17  C19 UNL     1      16.534  49.510  65.057  1.00  0.00     0.105 C
HETATM   18  C27 UNL     1      15.067  49.539  65.529  1.00  0.00     0.135 C
HETATM   19  C28 UNL     1      14.188  48.593  64.757  1.00  0.00     0.041 C
HETATM   20  O6  UNL     1      15.108  49.247  66.834  1.00  0.00    -0.370 OA
ENDROOT
BRANCH  17  21
HETATM   21  C20 UNL     1      16.712  49.515  63.586  1.00  0.00     0.134 C
BRANCH  21  22
HETATM   22  O5  UNL     1      17.204  48.339  63.045  1.00  0.00    -0.394 OA
ATOM     23  H5  UNL     1      16.550  47.755  62.680  1.00  0.00     0.210 HD
ENDBRANCH  21  22
BRANCH  21  24
HETATM   24  C21 UNL     1      17.217  50.781  63.016  1.00  0.00     0.034 C
BRANCH  24  25
HETATM   25  C22 UNL     1      16.442  51.244  61.801  1.00  0.00     0.011 C
BRANCH  25  26
HETATM   26  C23 UNL     1      17.377  51.534  60.674  1.00  0.00    -0.051 C
HETATM   27  C24 UNL     1      17.304  52.943  60.169  1.00  0.00     0.014 C
HETATM   28  C25 UNL     1      18.798  51.328  61.209  1.00  0.00     0.014 C
HETATM   29  C26 UNL     1      17.223  50.585  59.509  1.00  0.00     0.014 C
ENDBRANCH  25  26
ENDBRANCH  24  25
ENDBRANCH  21  24
ENDBRANCH  17  21
BRANCH  15  30
HETATM   30  C17 UNL     1      18.686  49.685  67.533  1.00  0.00     0.085 C
BRANCH  30  31
HETATM   31  C18 UNL     1      19.960  49.088  67.958  1.00  0.00     0.232 C
HETATM   32  O4  UNL     1      20.666  49.381  68.878  1.00  0.00    -0.307 OA
ENDBRANCH  30  31
ENDBRANCH  15  30
BRANCH   1  33
HETATM   33  C2  UNL     1      13.104  48.445  67.805  1.00  0.00     0.000 C
HETATM   34  C1  UNL     1      13.450  47.292  68.343  1.00  0.00     0.010 C
ENDBRANCH   1  33
BRANCH   9  35
HETATM   35  O2  UNL     1      18.670  54.519  69.571  1.00  0.00    -0.378 OA
ATOM     36  H2  UNL     1      18.307  55.375  69.772  1.00  0.00     0.211 HD
ENDBRANCH   9  35
BRANCH   4  37
HETATM   37  O1  UNL     1      12.354  52.311  69.198  1.00  0.00    -0.395 OA
ATOM     38  H1  UNL     1      12.310  53.230  68.963  1.00  0.00     0.210 HD
ENDBRANCH   4  37
TORSDOF 10
ENDMDL