MODEL 1
REMARK VINA RESULT: -7.798825718      0.000      0.000
REMARK  9 active torsions:
REMARK  status: ('A' for Active; 'I' for Inactive)
REMARK    1  A    between atoms: C2_2  and  C3_3
REMARK    2  A    between atoms: C2_2  and  C12_18
REMARK    3  A    between atoms: C3_3  and  C4_4
REMARK    4  A    between atoms: C5_7  and  C6_8
REMARK    5  A    between atoms: C6_8  and  S1_9
REMARK    6  A    between atoms: S1_9  and  C7_10
REMARK    7  A    between atoms: C11_14  and  O3_15
REMARK    8  A    between atoms: C14_20  and  O5_21
REMARK    9  A    between atoms: C20_28  and  C21_29
ROOT
HETATM    1  C12 UNL     1      14.043  47.907  64.282  1.00  0.00     0.002 A
HETATM    2  C13 UNL     1      15.434  47.536  64.755  1.00  0.00     0.024 A
HETATM    3  C14 UNL     1      16.418  48.587  65.090  1.00  0.00     0.123 C
HETATM    4  C15 UNL     1      16.710  48.544  66.549  1.00  0.00     0.038 C
HETATM    5  C16 UNL     1      15.520  48.579  67.455  1.00  0.00     0.001 C
HETATM    6  C17 UNL     1      15.574  49.859  68.240  1.00  0.00    -0.005 C
HETATM    7  C18 UNL     1      15.239  49.655  69.710  1.00  0.00     0.006 C
HETATM    8  C19 UNL     1      14.915  51.028  70.219  1.00  0.00     0.016 C
HETATM    9  C20 UNL     1      14.768  51.923  68.995  1.00  0.00     0.091 C
HETATM   10  C22 UNL     1      14.678  50.948  67.828  1.00  0.00     0.004 C
HETATM   11  C23 UNL     1      13.266  50.407  67.745  1.00  0.00     0.007 C
HETATM   12  C24 UNL     1      13.284  49.410  66.605  1.00  0.00     0.010 C
HETATM   13  C25 UNL     1      14.207  48.247  66.862  1.00  0.00    -0.035 C
HETATM   14  C26 UNL     1      13.434  47.424  67.921  1.00  0.00     0.016 C
HETATM   15  C27 UNL     1      14.260  47.384  65.626  1.00  0.00     0.006 A
ENDROOT
BRANCH   1  16
HETATM   16  C2  UNL     1      13.457  47.075  63.154  1.00  0.00    -0.009 C
HETATM   17  C1  UNL     1      12.054  46.639  63.373  1.00  0.00     0.010 C
BRANCH  16  18
HETATM   18  C3  UNL     1      13.585  47.822  61.865  1.00  0.00     0.068 C
BRANCH  18  19
HETATM   19  C4  UNL     1      14.939  48.429  61.666  1.00  0.00     0.300 C
HETATM   20  O1  UNL     1      14.986  49.796  61.723  1.00  0.00    -0.207 OA
HETATM   21  O2  UNL     1      16.153  50.342  61.635  1.00  0.00    -0.227 OA
HETATM   22  C5  UNL     1      17.047  49.656  60.796  1.00  0.00     0.224 C
HETATM   23  C11 UNL     1      16.160  48.919  59.791  1.00  0.00     0.292 C
HETATM   24  O4  UNL     1      15.448  47.924  60.460  1.00  0.00    -0.326 OA
BRANCH  22  25
HETATM   25  C6  UNL     1      17.813  50.671  60.024  1.00  0.00     0.114 C
BRANCH  25  26
HETATM   26  S1  UNL     1      17.232  52.360  60.153  1.00  0.00    -0.157 SA
BRANCH  26  27
HETATM   27  C7  UNL     1      18.260  53.403  61.182  1.00  0.00    -0.003 C
HETATM   28  C8  UNL     1      19.725  53.162  60.834  1.00  0.00     0.026 C
HETATM   29  C9  UNL     1      17.921  54.871  60.896  1.00  0.00     0.026 C
HETATM   30  C10 UNL     1      18.051  53.095  62.636  1.00  0.00     0.026 C
ENDBRANCH  26  27
ENDBRANCH  25  26
ENDBRANCH  22  25
BRANCH  23  31
HETATM   31  O3  UNL     1      16.876  48.422  58.735  1.00  0.00    -0.368 OA
ATOM     32  H3  UNL     1      16.317  48.029  58.074  1.00  0.00     0.212 HD
ENDBRANCH  23  31
ENDBRANCH  18  19
ENDBRANCH  16  18
ENDBRANCH   1  16
BRANCH   3  33
HETATM   33  O5  UNL     1      16.105  49.860  64.612  1.00  0.00    -0.395 OA
ATOM     34  H5  UNL     1      15.546  49.873  63.844  1.00  0.00     0.210 HD
ENDBRANCH   3  33
BRANCH   9  35
HETATM   35  C21 UNL     1      13.577  52.764  69.118  1.00  0.00     0.177 C
HETATM   36  O6  UNL     1      13.347  53.676  68.288  1.00  0.00    -0.648 OA
HETATM   37  O7  UNL     1      12.683  52.562  70.157  1.00  0.00    -0.648 OA
ENDBRANCH   9  35
TORSDOF 9
ENDMDL