MODEL 5
REMARK VINA RESULT: -7.420099276      2.066      4.014
REMARK  8 active torsions:
REMARK  status: ('A' for Active; 'I' for Inactive)
REMARK    1  A    between atoms: C2_2  and  C4_4
REMARK    2  A    between atoms: C4_4  and  O1_5
REMARK    3  A    between atoms: O1_5  and  C5_6
REMARK    4  A    between atoms: C7_8  and  C8_9
REMARK    5  A    between atoms: C9_12  and  O4_13
REMARK    6  A    between atoms: O4_13  and  C10_14
REMARK    7  A    between atoms: C25_29  and  O5_30
REMARK    8  A    between atoms: C29_36  and  O7_37
ROOT
HETATM    1  C10 UNL     1      13.907  49.637  66.596  1.00  0.00     0.133 C
HETATM    2  C11 UNL     1      13.706  48.475  67.568  1.00  0.00     0.034 C
HETATM    3  C12 UNL     1      14.481  48.511  68.808  1.00  0.00     0.012 C
HETATM    4  C13 UNL     1      15.794  49.269  68.796  1.00  0.00    -0.034 C
HETATM    5  C14 UNL     1      16.849  48.203  68.460  1.00  0.00     0.010 C
HETATM    6  C15 UNL     1      18.240  48.556  68.762  1.00  0.00     0.008 C
HETATM    7  C16 UNL     1      18.464  49.659  69.724  1.00  0.00     0.018 C
HETATM    8  C17 UNL     1      18.864  50.978  69.077  1.00  0.00    -0.012 C
HETATM    9  C18 UNL     1      20.363  51.037  68.839  1.00  0.00     0.010 C
HETATM   10  C19 UNL     1      18.134  51.284  67.827  1.00  0.00     0.005 C
HETATM   11  C20 UNL     1      16.671  51.557  68.200  1.00  0.00     0.006 C
HETATM   12  C21 UNL     1      15.861  50.376  67.801  1.00  0.00     0.004 C
HETATM   13  C22 UNL     1      14.518  50.810  67.256  1.00  0.00    -0.017 C
HETATM   14  C23 UNL     1      13.646  51.474  68.283  1.00  0.00     0.018 C
HETATM   15  C24 UNL     1      14.782  51.870  66.215  1.00  0.00     0.018 C
HETATM   16  C25 UNL     1      17.362  49.838  70.724  1.00  0.00     0.123 C
HETATM   17  C26 UNL     1      15.985  49.743  70.227  1.00  0.00     0.042 C
ENDROOT
BRANCH   1  18
HETATM   18  O4  UNL     1      14.754  49.111  65.628  1.00  0.00    -0.354 OA
BRANCH  18  19
HETATM   19  C9  UNL     1      14.267  49.022  64.365  1.00  0.00     0.275 C
HETATM   20  C7  UNL     1      15.292  49.368  63.319  1.00  0.00     0.144 C
HETATM   21  C6  UNL     1      14.582  49.636  62.045  1.00  0.00     0.055 C
HETATM   22  C5  UNL     1      14.279  48.506  61.137  1.00  0.00     0.153 C
HETATM   23  C29 UNL     1      13.340  47.488  61.684  1.00  0.00     0.175 C
HETATM   24  C27 UNL     1      12.886  47.776  63.093  1.00  0.00     0.151 C
HETATM   25  O6  UNL     1      13.880  47.690  64.049  1.00  0.00    -0.353 OA
HETATM   26  C28 UNL     1      11.828  46.715  63.427  1.00  0.00     0.042 C
BRANCH  20  27
HETATM   27  C8  UNL     1      16.376  48.361  63.256  1.00  0.00     0.181 C
HETATM   28  O2  UNL     1      17.508  48.685  62.814  1.00  0.00    -0.648 OA
HETATM   29  O3  UNL     1      16.259  47.039  63.652  1.00  0.00    -0.648 OA
ENDBRANCH  20  27
BRANCH  22  30
HETATM   30  O1  UNL     1      15.377  47.939  60.542  1.00  0.00    -0.383 OA
BRANCH  30  31
HETATM   31  C4  UNL     1      15.838  48.520  59.401  1.00  0.00     0.172 C
BRANCH  31  32
HETATM   32  C2  UNL     1      17.201  49.110  59.424  1.00  0.00     0.001 C
HETATM   33  C1  UNL     1      17.106  50.617  59.599  1.00  0.00     0.011 C
HETATM   34  C3  UNL     1      17.821  48.883  58.047  1.00  0.00     0.011 C
ENDBRANCH  31  32
ENDBRANCH  30  31
ENDBRANCH  22  30
BRANCH  23  35
HETATM   35  O7  UNL     1      12.125  47.430  60.944  1.00  0.00    -0.390 OA
ATOM     36  H7  UNL     1      11.569  46.713  61.227  1.00  0.00     0.210 HD
ENDBRANCH  23  35
ENDBRANCH  18  19
ENDBRANCH   1  18
BRANCH  16  37
HETATM   37  O5  UNL     1      17.617  48.970  71.815  1.00  0.00    -0.395 OA
ATOM     38  H5  UNL     1      17.080  49.253  72.546  1.00  0.00     0.210 HD
ENDBRANCH  16  37
TORSDOF 8
ENDMDL