MODEL 3
REMARK VINA RESULT: -9.134470132      1.838      2.800
REMARK  7 active torsions:
REMARK  status: ('A' for Active; 'I' for Inactive)
REMARK    1  A    between atoms: C2_2  and  C4_4
REMARK    2  A    between atoms: C2_2  and  C22_36
REMARK    3  A    between atoms: C4_4  and  C5_6
REMARK       I    between atoms: C5_6  and  N1_8
REMARK    4  A    between atoms: C8_11  and  N2_12
REMARK    5  A    between atoms: N2_12  and  C9_14
REMARK    6  A    between atoms: C12_18  and  C13_19
REMARK    7  A    between atoms: C16_24  and  N4_25
ROOT
HETATM    1  N2  UNL     1      14.409  47.911  65.361  1.00  0.00    -0.379 N
ATOM      2  H2  UNL     1      15.032  47.152  65.639  1.00  0.00     0.160 HD
ENDROOT
BRANCH   1   3
HETATM    3  C8  UNL     1      13.624  47.791  64.170  1.00  0.00     0.085 C
HETATM    4  C7  UNL     1      12.458  46.887  64.381  1.00  0.00     0.045 C
HETATM    5  C6  UNL     1      12.026  46.148  63.130  1.00  0.00     0.128 C
HETATM    6  N1  UNL     1      12.289  46.934  61.925  1.00  0.00    -0.345 N
HETATM    7  C5  UNL     1      11.292  47.010  60.933  1.00  0.00     0.290 C
HETATM    8  C21 UNL     1      13.553  47.618  61.756  1.00  0.00     0.128 C
HETATM    9  O2  UNL     1      10.225  46.380  61.159  1.00  0.00    -0.264 OA
HETATM   10  C20 UNL     1      14.455  47.330  62.981  1.00  0.00     0.045 C
BRANCH   7  11
HETATM   11  C4  UNL     1      11.403  47.746  59.694  1.00  0.00     0.224 C
HETATM   12  O1  UNL     1      11.637  48.994  59.823  1.00  0.00    -0.286 OA
BRANCH  11  13
HETATM   13  C2  UNL     1      11.284  47.226  58.329  1.00  0.00     0.026 C
HETATM   14  C1  UNL     1      10.760  45.751  58.511  1.00  0.00     0.024 C
HETATM   15  C3  UNL     1      12.611  47.127  57.646  1.00  0.00     0.024 C
BRANCH  13  16
HETATM   16  C22 UNL     1      10.224  47.862  57.477  1.00  0.00     0.001 C
HETATM   17  C23 UNL     1       8.894  47.959  58.203  1.00  0.00     0.006 C
HETATM   18  C24 UNL     1       7.922  48.674  57.268  1.00  0.00     0.000 C
HETATM   19  C25 UNL     1       8.273  50.130  57.119  1.00  0.00     0.000 C
HETATM   20  C26 UNL     1       9.781  50.328  57.319  1.00  0.00     0.000 C
HETATM   21  C27 UNL     1      10.519  49.106  56.761  1.00  0.00     0.006 C
ENDBRANCH  13  16
ENDBRANCH  11  13
ENDBRANCH   7  11
ENDBRANCH   1   3
BRANCH   1  22
HETATM   22  C9  UNL     1      14.321  49.101  66.168  1.00  0.00     0.086 A
HETATM   23  S1  UNL     1      13.463  49.374  67.610  1.00  0.00    -0.046 SA
HETATM   24  C10 UNL     1      13.890  51.001  67.894  1.00  0.00     0.118 A
HETATM   25  C11 UNL     1      14.702  51.288  66.839  1.00  0.00    -0.002 A
HETATM   26  O3  UNL     1      13.586  51.954  68.894  1.00  0.00    -0.343 OA
HETATM   27  C12 UNL     1      14.933  50.305  65.934  1.00  0.00     0.034 A
HETATM   28  C17 UNL     1      15.261  52.710  66.804  1.00  0.00     0.045 C
HETATM   29  C18 UNL     1      14.197  53.625  67.352  1.00  0.00     0.031 C
HETATM   30  C19 UNL     1      13.966  53.307  68.815  1.00  0.00     0.176 C
BRANCH  27  31
HETATM   31  C13 UNL     1      15.801  50.483  64.731  1.00  0.00     0.064 A
HETATM   32  C14 UNL     1      17.158  50.293  64.813  1.00  0.00     0.048 A
HETATM   33  C15 UNL     1      17.978  50.460  63.687  1.00  0.00     0.108 A
HETATM   34  N3  UNL     1      17.431  50.810  62.506  1.00  0.00    -0.202 N
HETATM   35  C16 UNL     1      16.105  50.989  62.459  1.00  0.00     0.676 A
ATOM     36  H3  UNL     1      18.008  50.935  61.674  1.00  0.00     0.183 HD
HETATM   37  N5  UNL     1      15.288  50.832  63.544  1.00  0.00    -0.191 N
ATOM     38  H5  UNL     1      14.283  50.982  63.448  1.00  0.00     0.184 HD
BRANCH  35  39
HETATM   39  N4  UNL     1      15.556  51.322  61.351  1.00  0.00    -0.234 N
ATOM     40  H42 UNL     1      15.841  50.813  60.515  1.00  0.00     0.174 HD
ATOM     41  H41 UNL     1      14.866  52.074  61.342  1.00  0.00     0.174 HD
ENDBRANCH  35  39
ENDBRANCH  27  31
ENDBRANCH   1  22
TORSDOF 7
ENDMDL