MODEL 3
REMARK VINA RESULT: -7.571095875      1.328      1.549
REMARK  7 active torsions:
REMARK  status: ('A' for Active; 'I' for Inactive)
REMARK    1  A    between atoms: C2_2  and  C3_3
REMARK    2  A    between atoms: C3_3  and  C4_4
REMARK    3  A    between atoms: C4_4  and  O1_5
REMARK    4  A    between atoms: C4_4  and  C5_10
REMARK    5  A    between atoms: O1_5  and  S1_6
REMARK    6  A    between atoms: C5_10  and  O5_11
REMARK    7  A    between atoms: C15_23  and  O7_24
ROOT
HETATM    1  C5  UNL     1      16.672  49.940  62.889  1.00  0.00     0.095 C
HETATM    2  C6  UNL     1      15.359  49.250  62.585  1.00  0.00     0.055 C
HETATM    3  C7  UNL     1      14.925  48.265  63.635  1.00  0.00    -0.013 C
HETATM    4  C8  UNL     1      15.487  46.891  63.222  1.00  0.00     0.021 C
HETATM    5  C9  UNL     1      13.438  48.097  63.423  1.00  0.00    -0.059 C
HETATM    6  C10 UNL     1      12.573  47.867  64.372  1.00  0.00    -0.048 C
HETATM    7  C11 UNL     1      11.140  47.717  64.072  1.00  0.00     0.044 C
HETATM    8  C12 UNL     1      10.891  46.816  62.882  1.00  0.00     0.083 C
HETATM    9  C13 UNL     1      11.764  47.295  61.781  1.00  0.00     0.131 C
HETATM   10  O6  UNL     1      11.513  46.933  60.645  1.00  0.00    -0.298 OA
HETATM   11  C14 UNL     1      12.930  48.197  62.028  1.00  0.00     0.113 C
HETATM   12  C15 UNL     1      13.066  47.767  65.763  1.00  0.00     0.147 C
HETATM   13  C16 UNL     1      14.047  48.942  65.909  1.00  0.00     0.042 C
HETATM   14  C17 UNL     1      15.243  48.625  65.029  1.00  0.00     0.006 C
HETATM   15  C18 UNL     1      16.368  49.568  65.229  1.00  0.00     0.003 C
HETATM   16  C19 UNL     1      16.348  50.304  66.529  1.00  0.00     0.007 C
HETATM   17  C20 UNL     1      17.282  51.432  66.259  1.00  0.00     0.011 C
HETATM   18  C21 UNL     1      17.723  51.309  64.779  1.00  0.00    -0.030 C
HETATM   19  C22 UNL     1      18.043  52.710  64.377  1.00  0.00     0.010 C
HETATM   20  C23 UNL     1      19.191  53.007  65.364  1.00  0.00     0.001 C
HETATM   21  C24 UNL     1      20.013  51.747  65.175  1.00  0.00     0.001 C
HETATM   22  C25 UNL     1      19.025  50.635  64.812  1.00  0.00     0.010 C
HETATM   23  C26 UNL     1      16.553  50.656  64.162  1.00  0.00     0.001 C
HETATM   24  C27 UNL     1      15.386  51.598  64.271  1.00  0.00     0.019 C
ENDROOT
BRANCH   1  25
HETATM   25  C4  UNL     1      17.260  50.479  61.692  1.00  0.00     0.180 C
BRANCH  25  26
HETATM   26  C3  UNL     1      16.583  51.147  60.592  1.00  0.00     0.036 C
BRANCH  26  27
HETATM   27  C2  UNL     1      17.249  52.334  59.943  1.00  0.00    -0.002 C
HETATM   28  C1  UNL     1      17.490  53.431  61.013  1.00  0.00     0.005 C
ENDBRANCH  26  27
ENDBRANCH  25  26
BRANCH  25  29
HETATM   29  O1  UNL     1      17.959  49.410  61.056  1.00  0.00    -0.248 OA
BRANCH  29  30
HETATM   30  S1  UNL     1      19.594  49.613  61.018  1.00  0.00     0.252 S
HETATM   31  O2  UNL     1      20.223  48.549  61.907  1.00  0.00    -0.572 OA
HETATM   32  O3  UNL     1      20.054  49.351  59.603  1.00  0.00    -0.572 OA
HETATM   33  O4  UNL     1      20.037  51.130  61.532  1.00  0.00    -0.572 OA
ENDBRANCH  29  30
ENDBRANCH  25  29
ENDBRANCH   1  25
BRANCH   1  34
HETATM   34  O5  UNL     1      17.504  48.802  63.189  1.00  0.00    -0.386 OA
ATOM     35  H5  UNL     1      18.160  49.156  63.778  1.00  0.00     0.210 HD
ENDBRANCH   1  34
BRANCH  12  36
HETATM   36  O7  UNL     1      13.667  46.573  66.071  1.00  0.00    -0.391 OA
ATOM     37  H7  UNL     1      13.649  46.347  66.993  1.00  0.00     0.210 HD
ENDBRANCH  12  36
TORSDOF 7
ENDMDL