MODEL 1
REMARK VINA RESULT: -8.344175859      0.000      0.000
REMARK  6 active torsions:
REMARK  status: ('A' for Active; 'I' for Inactive)
REMARK    1  A    between atoms: C5_5  and  C6_6
REMARK    2  A    between atoms: C6_6  and  N1_7
REMARK    3  A    between atoms: C9_10  and  N2_11
REMARK    4  A    between atoms: C17_19  and  N3_20
REMARK    5  A    between atoms: C22_26  and  N4_27
REMARK       I    between atoms: N4_27  and  C23_29
REMARK       I    between atoms: C23_29  and  N5_31
REMARK    6  A    between atoms: N5_31  and  C24_33
ROOT
HETATM    1  C1  UNL     1      13.607  48.293  61.246  1.00  0.00     0.051 C
HETATM    2  C2  UNL     1      14.197  48.674  62.567  1.00  0.00    -0.024 A
HETATM    3  C3  UNL     1      13.657  48.208  63.733  1.00  0.00    -0.022 A
HETATM    4  C4  UNL     1      14.166  48.533  64.966  1.00  0.00     0.048 A
HETATM    5  C5  UNL     1      15.305  49.393  65.029  1.00  0.00     0.030 A
HETATM    6  C17 UNL     1      15.881  49.886  63.892  1.00  0.00     0.071 A
HETATM    7  C22 UNL     1      15.294  49.500  62.669  1.00  0.00     0.070 A
HETATM    8  N6  UNL     1      13.583  48.041  66.161  1.00  0.00    -0.389 N
ATOM      9  H6  UNL     1      13.809  48.453  67.066  1.00  0.00     0.159 HD
HETATM   10  C27 UNL     1      12.649  46.927  66.052  1.00  0.00     0.120 C
HETATM   11  C28 UNL     1      11.679  47.299  64.944  1.00  0.00     0.024 C
HETATM   12  C29 UNL     1      12.469  47.310  63.646  1.00  0.00     0.043 C
ENDROOT
BRANCH   5  13
HETATM   13  C6  UNL     1      15.673  49.732  66.381  1.00  0.00     0.075 C
BRANCH  13  14
HETATM   14  N1  UNL     1      15.888  51.007  66.892  1.00  0.00    -0.292 NA
HETATM   15  C7  UNL     1      14.577  51.697  66.898  1.00  0.00     0.097 C
HETATM   16  C8  UNL     1      13.722  51.121  67.955  1.00  0.00     0.050 C
HETATM   17  C9  UNL     1      14.087  51.838  69.244  1.00  0.00     0.225 C
HETATM   18  C15 UNL     1      15.614  52.052  69.139  1.00  0.00     0.050 C
HETATM   19  C16 UNL     1      16.229  50.972  68.327  1.00  0.00     0.097 C
BRANCH  17  20
HETATM   20  N2  UNL     1      13.498  53.113  69.417  1.00  0.00     0.093 N
HETATM   21  C10 UNL     1      14.358  53.877  70.309  1.00  0.00     0.273 C
HETATM   22  C11 UNL     1      13.579  54.862  71.151  1.00  0.00     0.030 C
HETATM   23  C12 UNL     1      12.687  54.165  72.147  1.00  0.00     0.003 C
HETATM   24  C13 UNL     1      12.204  52.889  71.493  1.00  0.00     0.030 C
HETATM   25  C14 UNL     1      12.184  53.114  69.998  1.00  0.00     0.273 C
ENDBRANCH  17  20
ENDBRANCH  13  14
ENDBRANCH   5  13
BRANCH   6  26
HETATM   26  N3  UNL     1      17.002  50.782  63.823  1.00  0.00    -0.374 N
HETATM   27  C18 UNL     1      18.386  50.460  63.899  1.00  0.00     0.149 C
HETATM   28  C19 UNL     1      19.228  51.371  63.017  1.00  0.00     0.187 C
HETATM   29  O1  UNL     1      18.562  52.048  62.052  1.00  0.00    -0.388 OA
HETATM   30  C20 UNL     1      17.433  52.729  62.400  1.00  0.00     0.187 C
HETATM   31  C21 UNL     1      16.741  52.234  63.648  1.00  0.00     0.149 C
ENDBRANCH   6  26
BRANCH   7  32
HETATM   32  N4  UNL     1      15.850  49.993  61.465  1.00  0.00    -0.306 N
HETATM   33  C23 UNL     1      16.948  49.387  60.808  1.00  0.00     0.321 C
HETATM   34  O2  UNL     1      17.495  48.332  61.282  1.00  0.00    -0.247 OA
HETATM   35  N5  UNL     1      17.485  49.905  59.617  1.00  0.00    -0.339 N
ATOM     36  H5  UNL     1      17.068  50.746  59.220  1.00  0.00     0.164 HD
ATOM     37  H4  UNL     1      15.439  50.829  61.049  1.00  0.00     0.171 HD
BRANCH  35  38
HETATM   38  C24 UNL     1      18.607  49.295  58.930  1.00  0.00     0.078 C
HETATM   39  C25 UNL     1      18.261  49.117  57.469  1.00  0.00     0.032 C
HETATM   40  C26 UNL     1      19.825  50.196  59.016  1.00  0.00     0.032 C
ENDBRANCH  35  38
ENDBRANCH   7  32
TORSDOF 6
ENDMDL