MODEL 4
REMARK VINA RESULT: -8.834172185      1.342      1.717
REMARK  8 active torsions:
REMARK  status: ('A' for Active; 'I' for Inactive)
REMARK    1  A    between atoms: C5_5  and  C6_6
REMARK    2  A    between atoms: C7_9  and  N2_10
REMARK    3  A    between atoms: C10_13  and  C11_14
REMARK    4  A    between atoms: C11_14  and  C12_15
REMARK    5  A    between atoms: C17_26  and  C18_27
REMARK    6  A    between atoms: C21_32  and  N7_33
REMARK    7  A    between atoms: N7_33  and  C22_35
REMARK    8  A    between atoms: C25_38  and  N8_39
ROOT
HETATM    1  C6  UNL     1      13.335  48.066  62.765  1.00  0.00     0.089 A
HETATM    2  N1  UNL     1      12.492  47.540  61.845  1.00  0.00    -0.189 N
ATOM      3  H1  UNL     1      11.697  46.932  62.046  1.00  0.00     0.184 HD
HETATM    4  C7  UNL     1      12.872  47.947  60.629  1.00  0.00     0.681 A
HETATM    5  N5  UNL     1      13.940  48.719  60.786  1.00  0.00    -0.187 N
ATOM      6  H5  UNL     1      14.445  49.171  60.024  1.00  0.00     0.184 HD
HETATM    7  C17 UNL     1      14.264  48.824  62.085  1.00  0.00     0.104 A
ENDROOT
BRANCH   7   8
HETATM    8  C18 UNL     1      15.365  49.574  62.713  1.00  0.00     0.080 A
HETATM    9  C19 UNL     1      16.671  49.183  62.453  1.00  0.00     0.050 A
HETATM   10  C20 UNL     1      17.741  49.847  63.010  1.00  0.00     0.108 A
HETATM   11  N6  UNL     1      17.490  50.893  63.820  1.00  0.00    -0.202 N
HETATM   12  C21 UNL     1      16.217  51.265  64.067  1.00  0.00     0.678 A
ATOM     13  H6  UNL     1      18.263  51.404  64.247  1.00  0.00     0.183 HD
HETATM   14  N9  UNL     1      15.152  50.615  63.521  1.00  0.00    -0.190 N
ATOM     15  H9  UNL     1      14.201  50.921  63.727  1.00  0.00     0.184 HD
BRANCH  12  16
HETATM   16  N7  UNL     1      15.925  52.253  64.826  1.00  0.00    -0.221 N
ATOM     17  H7  UNL     1      15.948  53.183  64.408  1.00  0.00     0.178 HD
BRANCH  16  18
HETATM   18  C22 UNL     1      15.567  52.167  66.223  1.00  0.00     0.099 C
HETATM   19  C23 UNL     1      14.938  53.486  66.619  1.00  0.00     0.027 C
HETATM   20  C24 UNL     1      13.647  53.271  67.369  1.00  0.00     0.035 C
HETATM   21  C25 UNL     1      13.838  52.303  68.495  1.00  0.00     0.183 C
HETATM   22  C26 UNL     1      14.276  50.981  67.927  1.00  0.00     0.035 C
HETATM   23  C27 UNL     1      14.549  51.053  66.445  1.00  0.00     0.027 C
BRANCH  21  24
HETATM   24  N8  UNL     1      12.578  52.207  69.221  1.00  0.00    -0.075 N
ATOM     25  H83 UNL     1      12.253  51.246  69.323  1.00  0.00     0.274 HD
ATOM     26  H82 UNL     1      12.675  52.424  70.213  1.00  0.00     0.274 HD
ATOM     27  H81 UNL     1      11.900  52.806  68.749  1.00  0.00     0.274 HD
ENDBRANCH  21  24
ENDBRANCH  16  18
ENDBRANCH  12  16
ENDBRANCH   7   8
BRANCH   1  28
HETATM   28  C5  UNL     1      13.273  47.870  64.210  1.00  0.00    -0.006 A
HETATM   29  C4  UNL     1      14.373  47.511  64.956  1.00  0.00     0.014 A
HETATM   30  C3  UNL     1      14.279  47.333  66.318  1.00  0.00     0.007 A
HETATM   31  C2  UNL     1      13.057  47.518  66.953  1.00  0.00    -0.062 A
HETATM   32  C1  UNL     1      12.989  47.315  68.433  1.00  0.00     0.048 C
HETATM   33  C29 UNL     1      11.949  47.879  66.208  1.00  0.00     0.007 A
HETATM   34  C28 UNL     1      12.076  48.049  64.853  1.00  0.00     0.014 A
ENDBRANCH   1  28
BRANCH   4  35
HETATM   35  N2  UNL     1      12.219  47.597  59.390  1.00  0.00    -0.218 N
HETATM   36  C8  UNL     1      12.917  47.659  58.134  1.00  0.00     0.141 C
HETATM   37  C9  UNL     1      11.833  47.559  57.045  1.00  0.00     0.025 C
HETATM   38  C10 UNL     1      10.798  48.581  57.420  1.00  0.00    -0.004 C
HETATM   39  C15 UNL     1      10.000  48.159  58.633  1.00  0.00     0.025 C
HETATM   40  C16 UNL     1      10.843  47.174  59.414  1.00  0.00     0.141 C
BRANCH  38  41
HETATM   41  C11 UNL     1       9.981  48.958  56.240  1.00  0.00     0.080 C
BRANCH  41  42
HETATM   42  C12 UNL     1       8.899  49.940  56.503  1.00  0.00     0.073 C
HETATM   43  N3  UNL     1       7.840  49.991  55.744  1.00  0.00    -0.378 N
HETATM   44  C13 UNL     1       6.948  51.018  56.203  1.00  0.00     0.140 C
ATOM     45  H3  UNL     1       7.670  49.388  54.940  1.00  0.00     0.160 HD
HETATM   46  C14 UNL     1       7.394  51.262  57.623  1.00  0.00     0.140 C
HETATM   47  N4  UNL     1       8.799  50.919  57.523  1.00  0.00    -0.378 N
ATOM     48  H4  UNL     1       9.564  51.307  58.076  1.00  0.00     0.160 HD
ENDBRANCH  41  42
ENDBRANCH  38  41
ENDBRANCH   4  35
TORSDOF 8
ENDMDL