MODEL 2
REMARK VINA RESULT: -9.670481181      3.306      5.568
REMARK  6 active torsions:
REMARK  status: ('A' for Active; 'I' for Inactive)
REMARK    1  A    between atoms: O1_2  and  C2_3
REMARK    2  A    between atoms: C5_6  and  N1_7
REMARK    3  A    between atoms: N1_7  and  C6_10
REMARK    4  A    between atoms: C9_13  and  C10_14
REMARK    5  A    between atoms: C11_15  and  O2_16
REMARK    6  A    between atoms: C15_22  and  N3_23
ROOT
HETATM    1  C10 UNL     1      14.341  47.691  59.572  1.00  0.00     0.031 A
HETATM    2  C11 UNL     1      14.851  47.475  58.292  1.00  0.00     0.154 A
HETATM    3  N2  UNL     1      13.878  47.297  57.414  1.00  0.00    -0.331 N
HETATM    4  C12 UNL     1      14.036  47.012  56.007  1.00  0.00     0.158 C
HETATM    5  C13 UNL     1      12.706  47.393  58.087  1.00  0.00     0.051 A
HETATM    6  C14 UNL     1      11.416  47.410  57.582  1.00  0.00     0.060 A
HETATM    7  C15 UNL     1      10.378  47.657  58.433  1.00  0.00     0.033 A
HETATM    8  C24 UNL     1      10.590  47.871  59.751  1.00  0.00     0.053 A
HETATM    9  C25 UNL     1      11.895  47.863  60.297  1.00  0.00     0.060 A
HETATM   10  C26 UNL     1      12.053  48.037  61.694  1.00  0.00     0.100 C
HETATM   11  N5  UNL     1      12.129  48.178  62.862  1.00  0.00    -0.191 NA
HETATM   12  C27 UNL     1      12.943  47.636  59.458  1.00  0.00     0.026 A
ENDROOT
BRANCH   7  13
HETATM   13  N3  UNL     1       9.101  47.925  57.826  1.00  0.00    -0.380 N
HETATM   14  C16 UNL     1       7.776  47.490  57.951  1.00  0.00     0.123 C
HETATM   15  C17 UNL     1       6.907  48.585  57.324  1.00  0.00     0.031 C
HETATM   16  C18 UNL     1       7.819  49.696  56.927  1.00  0.00    -0.020 C
HETATM   17  C19 UNL     1       8.004  50.756  57.959  1.00  0.00     0.039 C
HETATM   18  C22 UNL     1       7.440  50.358  55.607  1.00  0.00     0.039 C
HETATM   19  C23 UNL     1       9.131  48.958  56.741  1.00  0.00     0.132 C
HETATM   20  C20 UNL     1       6.812  51.671  58.051  1.00  0.00     0.233 C
HETATM   21  N4  UNL     1       6.479  52.266  56.761  1.00  0.00    -0.075 N
HETATM   22  C21 UNL     1       6.259  51.242  55.770  1.00  0.00     0.233 C
ATOM     23  H42 UNL     1       5.684  52.902  56.831  1.00  0.00     0.277 HD
ATOM     24  H41 UNL     1       7.186  52.938  56.460  1.00  0.00     0.277 HD
ENDBRANCH   7  13
BRANCH   1  25
HETATM   25  C9  UNL     1      15.110  48.227  60.633  1.00  0.00    -0.064 C
HETATM   26  C8  UNL     1      15.115  49.620  61.093  1.00  0.00     0.037 C
HETATM   27  C7  UNL     1      14.851  49.717  62.645  1.00  0.00     0.037 C
HETATM   28  C6  UNL     1      15.733  48.878  63.433  1.00  0.00     0.187 C
HETATM   29  C29 UNL     1      16.279  47.677  62.667  1.00  0.00     0.037 C
HETATM   30  C28 UNL     1      15.025  47.264  61.838  1.00  0.00     0.037 C
BRANCH  28  31
HETATM   31  N1  UNL     1      16.584  49.326  64.466  1.00  0.00    -0.067 N
ATOM     32  H12 UNL     1      17.190  50.077  64.135  1.00  0.00     0.278 HD
ATOM     33  H11 UNL     1      17.291  48.623  64.683  1.00  0.00     0.278 HD
BRANCH  31  34
HETATM   34  C5  UNL     1      15.862  49.734  65.685  1.00  0.00     0.186 C
HETATM   35  C4  UNL     1      16.764  50.152  66.742  1.00  0.00     0.035 C
HETATM   36  C3  UNL     1      16.432  49.689  68.153  1.00  0.00     0.034 C
HETATM   37  C2  UNL     1      16.038  48.251  68.091  1.00  0.00     0.120 C
HETATM   38  C31 UNL     1      14.664  48.255  67.374  1.00  0.00     0.034 C
HETATM   39  C30 UNL     1      14.971  48.528  65.953  1.00  0.00     0.035 C
BRANCH  37  40
HETATM   40  O1  UNL     1      15.988  47.561  69.265  1.00  0.00    -0.391 OA
HETATM   41  C1  UNL     1      14.672  47.062  69.425  1.00  0.00     0.202 C
ENDBRANCH  37  40
ENDBRANCH  31  34
ENDBRANCH  28  31
ENDBRANCH   1  25
BRANCH   2  42
HETATM   42  O2  UNL     1      16.204  47.451  58.002  1.00  0.00    -0.345 OA
ATOM     43  H2  UNL     1      16.825  48.084  58.341  1.00  0.00     0.219 HD
ENDBRANCH   2  42
TORSDOF 6
ENDMDL