MODEL 5
REMARK VINA RESULT: -5.558833259      2.139      5.009
REMARK  2 active torsions:
REMARK  status: ('A' for Active; 'I' for Inactive)
REMARK    1  A    between atoms: C2_5  and  C3_6
REMARK    2  A    between atoms: C6_9  and  N3_10
ROOT
HETATM    1  N1  UNL     1      34.887  32.629  46.596  1.00  0.00    -0.172 NA
HETATM    2  C1  UNL     1      33.787  32.385  46.936  1.00  0.00     0.181 C
HETATM    3  N2  UNL     1      32.513  32.074  47.304  1.00  0.00    -0.302 N
ATOM      4  H2  UNL     1      32.098  31.293  46.796  1.00  0.00     0.177 HD
HETATM    5  C2  UNL     1      31.783  32.586  48.155  1.00  0.00     0.136 C
ENDROOT
BRANCH   5   6
HETATM    6  C3  UNL     1      31.994  33.688  49.067  1.00  0.00     0.094 A
HETATM    7  C4  UNL     1      31.473  34.959  49.088  1.00  0.00     0.043 A
HETATM    8  C5  UNL     1      31.990  35.643  50.171  1.00  0.00     0.065 A
HETATM    9  C6  UNL     1      32.824  34.741  50.781  1.00  0.00     0.215 A
HETATM   10  O3  UNL     1      32.805  33.638  50.126  1.00  0.00    -0.287 OA
BRANCH   9  11
HETATM   11  N3  UNL     1      33.587  35.007  51.957  1.00  0.00    -0.090 N
HETATM   12  O1  UNL     1      33.270  35.918  52.743  1.00  0.00    -0.530 OA
HETATM   13  O2  UNL     1      34.702  34.266  52.262  1.00  0.00    -0.530 OA
ENDBRANCH   9  11
ENDBRANCH   5   6
TORSDOF 2
ENDMDL