MODEL 5
REMARK VINA RESULT: -5.527542051      2.577      4.030
REMARK  3 active torsions:
REMARK  status: ('A' for Active; 'I' for Inactive)
REMARK    1  A    between atoms: N1_2  and  O3_4
REMARK    2  A    between atoms: O3_4  and  C1_5
REMARK    3  A    between atoms: N2_8  and  O4_10
ROOT
HETATM    1  C1  UNL     1      33.592  34.198  49.460  1.00  0.00     0.306 C
HETATM    2  C2  UNL     1      32.251  34.891  49.472  1.00  0.00     0.122 C
HETATM    3  C3  UNL     1      31.164  34.021  48.958  1.00  0.00     0.038 C
HETATM    4  N2  UNL     1      29.978  34.504  48.906  1.00  0.00    -0.273 N
ATOM      5  H2  UNL     1      29.832  35.464  49.220  1.00  0.00     0.193 HD
HETATM    6  C4  UNL     1      31.395  32.652  48.514  1.00  0.00     0.051 C
HETATM    7  C5  UNL     1      32.647  32.292  48.280  1.00  0.00     0.140 C
HETATM    8  O5  UNL     1      33.677  33.205  48.459  1.00  0.00    -0.329 OA
ENDROOT
BRANCH   1   9
HETATM    9  O3  UNL     1      33.807  33.653  50.758  1.00  0.00    -0.188 OA
BRANCH   9  10
HETATM   10  N1  UNL     1      34.331  34.365  51.791  1.00  0.00     0.007 N
HETATM   11  O1  UNL     1      35.540  34.232  52.138  1.00  0.00    -0.511 OA
HETATM   12  O2  UNL     1      33.594  35.264  52.518  1.00  0.00    -0.511 OA
ENDBRANCH   9  10
ENDBRANCH   1   9
BRANCH   4  13
HETATM   13  O4  UNL     1      28.891  33.797  48.451  1.00  0.00    -0.290 OA
ATOM     14  H4  UNL     1      28.841  32.848  48.462  1.00  0.00     0.244 HD
ENDBRANCH   4  13
TORSDOF 3
ENDMDL