MODEL 3
REMARK VINA RESULT: -6.049280745      2.241      3.434
REMARK  4 active torsions:
REMARK  status: ('A' for Active; 'I' for Inactive)
REMARK    1  A    between atoms: O1_1  and  N1_3
REMARK    2  A    between atoms: N1_3  and  N2_5
REMARK    3  A    between atoms: N3_7  and  C1_9
REMARK    4  A    between atoms: C6_14  and  N4_15
ROOT
HETATM    1  C1  UNL     1      32.724  34.399  49.761  1.00  0.00     0.082 A
HETATM    2  C2  UNL     1      32.781  35.791  49.891  1.00  0.00     0.033 A
HETATM    3  C3  UNL     1      31.806  36.600  49.326  1.00  0.00     0.002 A
HETATM    4  C4  UNL     1      30.753  36.063  48.625  1.00  0.00     0.003 A
HETATM    5  C5  UNL     1      30.695  34.693  48.497  1.00  0.00     0.038 A
HETATM    6  C6  UNL     1      31.665  33.865  49.056  1.00  0.00     0.131 A
ENDROOT
BRANCH   1   7
HETATM    7  N3  UNL     1      33.709  33.557  50.329  1.00  0.00    -0.283 N
HETATM    8  N2  UNL     1      34.759  33.306  49.672  1.00  0.00    -0.223 N
ATOM      9  H2  UNL     1      35.473  32.699  50.075  1.00  0.00     0.210 HD
ATOM     10  H3  UNL     1      33.573  33.157  51.258  1.00  0.00     0.188 HD
BRANCH   8  11
HETATM   11  N1  UNL     1      34.952  33.849  48.401  1.00  0.00    -0.196 N
ATOM     12  H1  UNL     1      35.068  34.858  48.307  1.00  0.00     0.217 HD
BRANCH  11  13
HETATM   13  O1  UNL     1      34.988  33.145  47.383  1.00  0.00    -0.273 OA
ATOM     14  H1  UNL     1      34.197  32.860  46.938  1.00  0.00     0.246 HD
ENDBRANCH  11  13
ENDBRANCH   8  11
ENDBRANCH   1   7
BRANCH   6  15
HETATM   15  N4  UNL     1      31.606  32.446  48.923  1.00  0.00    -0.113 N
HETATM   16  O2  UNL     1      32.557  31.779  48.444  1.00  0.00    -0.532 OA
HETATM   17  O3  UNL     1      30.478  31.773  49.329  1.00  0.00    -0.532 OA
ENDBRANCH   6  15
TORSDOF 4
ENDMDL