MODEL 1
REMARK VINA RESULT: -5.856950250      0.000      0.000
REMARK  4 active torsions:
REMARK  status: ('A' for Active; 'I' for Inactive)
REMARK    1  A    between atoms: C1_2  and  N1_3
REMARK    2  A    between atoms: N1_3  and  N2_5
REMARK    3  A    between atoms: N3_7  and  N4_9
REMARK    4  A    between atoms: C2_11  and  C3_12
ROOT
HETATM    1  N2  UNL     1      35.230  32.001  47.266  1.00  0.00    -0.226 N
ATOM      2  H2  UNL     1      35.680  31.388  47.946  1.00  0.00     0.210 HD
HETATM    3  N3  UNL     1      34.793  33.132  47.653  1.00  0.00    -0.229 N
ATOM      4  H3  UNL     1      34.341  33.758  46.986  1.00  0.00     0.210 HD
ENDROOT
BRANCH   3   5
HETATM    5  N4  UNL     1      34.927  33.511  48.961  1.00  0.00    -0.295 N
HETATM    6  C2  UNL     1      34.160  34.124  49.709  1.00  0.00     0.127 C
ATOM      7  H4  UNL     1      35.812  33.242  49.391  1.00  0.00     0.187 HD
BRANCH   6   8
HETATM    8  C3  UNL     1      32.819  34.629  49.339  1.00  0.00     0.021 A
HETATM    9  C4  UNL     1      32.338  35.881  49.144  1.00  0.00     0.021 A
HETATM   10  C5  UNL     1      31.043  36.028  48.806  1.00  0.00     0.008 A
HETATM   11  C6  UNL     1      30.295  34.886  48.683  1.00  0.00     0.050 A
HETATM   12  S1  UNL     1      31.412  33.657  49.039  1.00  0.00    -0.101 SA
ENDBRANCH   6   8
ENDBRANCH   3   5
BRANCH   1  13
HETATM   13  N1  UNL     1      35.116  31.572  45.942  1.00  0.00    -0.262 N
ATOM     14  H1  UNL     1      35.927  31.247  45.416  1.00  0.00     0.191 HD
BRANCH  13  15
HETATM   15  C1  UNL     1      33.942  31.602  45.414  1.00  0.00     0.369 C
HETATM   16  O1  UNL     1      32.745  31.949  45.471  1.00  0.00    -0.282 OA
ENDBRANCH  13  15
ENDBRANCH   1  13
TORSDOF 4
ENDMDL