MODEL 1
REMARK VINA RESULT: -6.402260065      0.000      0.000
REMARK  2 active torsions:
REMARK  status: ('A' for Active; 'I' for Inactive)
REMARK    1  A    between atoms: N3_6  and  N4_8
REMARK    2  A    between atoms: N4_8  and  C4_10
ROOT
HETATM    1  N1  UNL     1      34.240  34.203  52.207  1.00  0.00    -0.189 NA
HETATM    2  C1  UNL     1      33.393  34.715  51.604  1.00  0.00     0.130 C
HETATM    3  C2  UNL     1      32.316  35.353  50.862  1.00  0.00     0.209 C
HETATM    4  C3  UNL     1      31.897  36.702  51.144  1.00  0.00     0.130 C
HETATM    5  N2  UNL     1      31.566  37.811  51.362  1.00  0.00    -0.189 NA
HETATM    6  N3  UNL     1      31.744  34.679  49.924  1.00  0.00    -0.281 N
ATOM      7  H3  UNL     1      30.985  35.107  49.395  1.00  0.00     0.188 HD
ENDROOT
BRANCH   6   8
HETATM    8  N4  UNL     1      32.131  33.397  49.621  1.00  0.00    -0.298 N
ATOM      9  H4  UNL     1      31.898  32.682  50.311  1.00  0.00     0.187 HD
BRANCH   8  10
HETATM   10  C4  UNL     1      32.813  32.948  48.470  1.00  0.00     0.063 A
HETATM   11  C5  UNL     1      32.192  32.261  47.431  1.00  0.00     0.034 A
HETATM   12  C6  UNL     1      32.862  31.820  46.315  1.00  0.00     0.019 A
HETATM   13  C7  UNL     1      34.209  32.071  46.220  1.00  0.00     0.088 A
HETATM   14  N5  UNL     1      34.843  32.736  47.209  1.00  0.00    -0.373 N
HETATM   15  C8  UNL     1      34.169  33.170  48.315  1.00  0.00     0.118 A
ATOM     16  H5  UNL     1      35.843  32.917  47.130  1.00  0.00     0.164 HD
ENDBRANCH   8  10
ENDBRANCH   6   8
TORSDOF 2
ENDMDL