MODEL 5
REMARK VINA RESULT: -6.302253231      0.907      4.762
REMARK  4 active torsions:
REMARK  status: ('A' for Active; 'I' for Inactive)
REMARK    1  A    between atoms: N1_2  and  C1_4
REMARK    2  A    between atoms: C5_8  and  C6_9
REMARK    3  A    between atoms: C6_9  and  O3_10
REMARK    4  A    between atoms: N2_12  and  O4_14
ROOT
HETATM    1  C1  UNL     1      32.708  33.119  48.534  1.00  0.00     0.103 A
HETATM    2  C2  UNL     1      32.157  31.877  48.684  1.00  0.00     0.036 A
HETATM    3  C3  UNL     1      30.777  31.774  48.776  1.00  0.00     0.003 A
HETATM    4  C4  UNL     1      30.001  32.897  48.716  1.00  0.00     0.016 A
HETATM    5  C5  UNL     1      30.564  34.171  48.562  1.00  0.00     0.019 A
HETATM    6  C7  UNL     1      31.932  34.282  48.470  1.00  0.00     0.052 A
ENDROOT
BRANCH   5   7
HETATM    7  C6  UNL     1      29.682  35.336  48.504  1.00  0.00     0.170 C
HETATM    8  N2  UNL     1      29.535  36.123  49.445  1.00  0.00    -0.247 N
ATOM      9  H2  UNL     1      28.877  36.857  49.185  1.00  0.00     0.196 HD
BRANCH   7  10
HETATM   10  O3  UNL     1      28.989  35.514  47.274  1.00  0.00    -0.344 OA
ATOM     11  H3  UNL     1      28.100  35.843  47.353  1.00  0.00     0.219 HD
ENDBRANCH   7  10
BRANCH   8  12
HETATM   12  O4  UNL     1      29.957  36.314  50.673  1.00  0.00    -0.288 OA
ATOM     13  H4  UNL     1      30.556  35.933  51.306  1.00  0.00     0.244 HD
ENDBRANCH   8  12
ENDBRANCH   5   7
BRANCH   1  14
HETATM   14  N1  UNL     1      34.130  33.257  48.436  1.00  0.00    -0.116 N
HETATM   15  O1  UNL     1      34.830  33.561  49.422  1.00  0.00    -0.532 OA
HETATM   16  O2  UNL     1      34.759  33.052  47.233  1.00  0.00    -0.532 OA
ENDBRANCH   1  14
TORSDOF 4
ENDMDL