MODEL 3
REMARK VINA RESULT: -5.749044968      2.439      3.064
REMARK  3 active torsions:
REMARK  status: ('A' for Active; 'I' for Inactive)
REMARK    1  A    between atoms: N1_3  and  O1_4
REMARK    2  A    between atoms: N1_3  and  C3_6
REMARK    3  A    between atoms: C6_9  and  N2_10
ROOT
HETATM    1  C1  UNL     1      29.208  33.163  48.439  1.00  0.00     0.039 C
HETATM    2  C2  UNL     1      30.367  32.973  48.154  1.00  0.00     0.032 C
HETATM    3  N1  UNL     1      31.696  32.750  47.834  1.00  0.00    -0.157 N
ENDROOT
BRANCH   3   4
HETATM    4  O1  UNL     1      31.998  32.078  46.715  1.00  0.00    -0.273 OA
ATOM      5  H1  UNL     1      32.903  32.027  46.433  1.00  0.00     0.246 HD
ENDBRANCH   3   4
BRANCH   3   6
HETATM    6  C3  UNL     1      32.730  33.219  48.669  1.00  0.00     0.185 A
HETATM    7  C4  UNL     1      34.055  33.307  48.294  1.00  0.00     0.064 A
HETATM    8  C5  UNL     1      34.729  33.808  49.386  1.00  0.00     0.067 A
HETATM    9  C6  UNL     1      33.798  34.005  50.382  1.00  0.00     0.216 A
HETATM   10  O4  UNL     1      32.627  33.643  49.913  1.00  0.00    -0.268 OA
BRANCH   9  11
HETATM   11  N2  UNL     1      34.074  34.518  51.696  1.00  0.00    -0.090 N
HETATM   12  O2  UNL     1      35.118  34.185  52.280  1.00  0.00    -0.530 OA
HETATM   13  O3  UNL     1      33.207  35.363  52.313  1.00  0.00    -0.530 OA
ENDBRANCH   9  11
ENDBRANCH   3   6
TORSDOF 3
ENDMDL