MODEL 4
REMARK VINA RESULT: -5.344575528      2.344      4.128
REMARK  4 active torsions:
REMARK  status: ('A' for Active; 'I' for Inactive)
REMARK    1  A    between atoms: C1_4  and  O1_5
REMARK    2  A    between atoms: C1_4  and  N3_10
REMARK    3  A    between atoms: O1_5  and  C2_6
REMARK    4  A    between atoms: C2_6  and  N2_7
ROOT
HETATM    1  N1  UNL     1      34.651  33.506  48.422  1.00  0.00    -0.365 N
ATOM      2  H11 UNL     1      34.749  32.734  47.762  1.00  0.00     0.159 HD
ATOM      3  H12 UNL     1      35.477  34.033  48.704  1.00  0.00     0.159 HD
HETATM    4  C1  UNL     1      33.480  33.762  48.857  1.00  0.00     0.216 C
ENDROOT
BRANCH   4   5
HETATM    5  O1  UNL     1      33.346  34.811  49.755  1.00  0.00    -0.296 OA
BRANCH   5   6
HETATM    6  C2  UNL     1      32.754  34.709  51.017  1.00  0.00     0.379 C
BRANCH   6   7
HETATM    7  N2  UNL     1      33.651  35.057  52.102  1.00  0.00    -0.130 N
HETATM    8  O2  UNL     1      33.361  35.996  52.841  1.00  0.00    -0.535 OA
HETATM    9  O3  UNL     1      34.790  34.315  52.254  1.00  0.00    -0.535 OA
ENDBRANCH   6   7
ENDBRANCH   5   6
ENDBRANCH   4   5
BRANCH   4  10
HETATM   10  N3  UNL     1      32.341  33.035  48.467  1.00  0.00    -0.348 N
HETATM   11  C3  UNL     1      32.210  31.608  48.173  1.00  0.00     0.126 C
HETATM   12  C4  UNL     1      30.906  31.281  48.868  1.00  0.00     0.021 C
HETATM   13  C5  UNL     1      30.074  32.528  48.835  1.00  0.00     0.021 C
HETATM   14  C6  UNL     1      30.994  33.556  48.264  1.00  0.00     0.126 C
ENDBRANCH   4  10
TORSDOF 4
ENDMDL