MODEL 2
REMARK VINA RESULT: -5.985546979      1.923      4.299
REMARK  3 active torsions:
REMARK  status: ('A' for Active; 'I' for Inactive)
REMARK    1  A    between atoms: N2_8  and  N3_9
REMARK    2  A    between atoms: N3_9  and  C4_11
REMARK    3  A    between atoms: C4_11  and  C5_12
ROOT
HETATM    1  N1  UNL     1      35.090  33.593  48.686  1.00  0.00    -0.363 N
ATOM      2  H11 UNL     1      34.833  33.816  49.648  1.00  0.00     0.159 HD
ATOM      3  H12 UNL     1      36.041  33.927  48.525  1.00  0.00     0.159 HD
HETATM    4  C1  UNL     1      34.343  32.995  47.826  1.00  0.00     0.243 A
HETATM    5  O1  UNL     1      34.674  32.708  46.589  1.00  0.00    -0.289 OA
HETATM    6  C2  UNL     1      33.677  32.093  45.980  1.00  0.00     0.165 A
HETATM    7  C3  UNL     1      32.661  31.990  46.896  1.00  0.00     0.145 A
HETATM    8  N2  UNL     1      33.077  32.550  48.040  1.00  0.00    -0.229 N
ENDROOT
BRANCH   8   9
HETATM    9  N3  UNL     1      32.337  32.646  49.212  1.00  0.00    -0.300 N
ATOM     10  H3  UNL     1      32.163  31.803  49.760  1.00  0.00     0.186 HD
BRANCH   9  11
HETATM   11  C4  UNL     1      31.864  33.768  49.623  1.00  0.00     0.145 C
BRANCH  11  12
HETATM   12  C5  UNL     1      32.560  34.424  50.747  1.00  0.00     0.091 A
HETATM   13  C6  UNL     1      32.210  35.602  51.367  1.00  0.00     0.040 A
HETATM   14  C7  UNL     1      33.121  35.847  52.357  1.00  0.00     0.027 A
HETATM   15  C8  UNL     1      34.015  34.798  52.315  1.00  0.00     0.142 A
HETATM   16  O2  UNL     1      33.637  33.993  51.353  1.00  0.00    -0.321 OA
ENDBRANCH  11  12
ENDBRANCH   9  11
ENDBRANCH   8   9
TORSDOF 3
ENDMDL