MODEL 1
REMARK VINA RESULT: -6.922482120      0.000      0.000
REMARK  3 active torsions:
REMARK  status: ('A' for Active; 'I' for Inactive)
REMARK    1  A    between atoms: C4_4  and  N1_5
REMARK    2  A    between atoms: N1_5  and  C5_7
REMARK    3  A    between atoms: C6_12  and  N4_13
ROOT
HETATM    1  C5  UNL     1      63.165  14.251  24.647  1.00  0.00     0.163 A
HETATM    2  N2  UNL     1      64.250  15.019  24.792  1.00  0.00    -0.278 N
ATOM      3  H2  UNL     1      64.212  16.016  24.584  1.00  0.00     0.189 HD
HETATM    4  N3  UNL     1      65.327  14.483  25.194  1.00  0.00    -0.278 N
ATOM      5  H3  UNL     1      66.163  15.055  25.310  1.00  0.00     0.189 HD
HETATM    6  C6  UNL     1      65.378  13.188  25.466  1.00  0.00     0.165 A
HETATM    7  S1  UNL     1      63.763  12.722  25.115  1.00  0.00    -0.015 SA
ENDROOT
BRANCH   1   8
HETATM    8  N1  UNL     1      61.962  14.538  24.259  1.00  0.00    -0.365 N
ATOM      9  H1  UNL     1      61.689  15.520  24.280  1.00  0.00     0.162 HD
BRANCH   8  10
HETATM   10  C4  UNL     1      60.996  13.610  23.809  1.00  0.00     0.083 C
HETATM   11  C3  UNL     1      60.162  14.064  22.659  1.00  0.00     0.025 C
HETATM   12  C2  UNL     1      58.944  13.181  22.661  1.00  0.00     0.002 C
HETATM   13  C1  UNL     1      58.990  12.406  23.985  1.00  0.00     0.002 C
HETATM   14  C11 UNL     1      59.978  13.206  24.844  1.00  0.00     0.025 C
ENDBRANCH   8  10
ENDBRANCH   1   8
BRANCH   6  15
HETATM   15  N4  UNL     1      66.482  12.391  25.927  1.00  0.00    -0.356 N
HETATM   16  C7  UNL     1      67.205  12.780  27.123  1.00  0.00     0.151 C
HETATM   17  C8  UNL     1      68.682  12.834  26.727  1.00  0.00     0.187 C
HETATM   18  O1  UNL     1      69.015  11.526  26.334  1.00  0.00    -0.388 OA
HETATM   19  C9  UNL     1      68.437  11.330  25.078  1.00  0.00     0.187 C
HETATM   20  C10 UNL     1      66.917  11.198  25.242  1.00  0.00     0.151 C
ENDBRANCH   6  15
TORSDOF 3
ENDMDL