MODEL 4
REMARK VINA RESULT: -5.227400319      4.246      6.123
REMARK  3 active torsions:
REMARK  status: ('A' for Active; 'I' for Inactive)
REMARK    1  A    between atoms: C2_2  and  C3_3
REMARK    2  A    between atoms: C3_3  and  N1_4
REMARK    3  A    between atoms: N2_8  and  C6_10
ROOT
HETATM    1  N1  UNL     1      66.316  11.800  25.250  1.00  0.00    -0.293 N
HETATM    2  C4  UNL     1      67.241  10.783  25.084  1.00  0.00     0.283 C
HETATM    3  O1  UNL     1      68.482  10.891  25.415  1.00  0.00    -0.265 OA
HETATM    4  C5  UNL     1      66.745   9.550  24.504  1.00  0.00     0.147 C
HETATM    5  N2  UNL     1      67.265   8.390  24.451  1.00  0.00    -0.331 N
ATOM      6  H2  UNL     1      68.183   8.239  24.869  1.00  0.00     0.168 HD
HETATM    7  S3  UNL     1      65.135  10.035  23.828  1.00  0.00    -0.037 SA
HETATM    8  C7  UNL     1      64.991  11.524  24.835  1.00  0.00     0.150 C
HETATM    9  S4  UNL     1      63.615  12.343  25.171  1.00  0.00    -0.052 SA
ENDROOT
BRANCH   5  10
HETATM   10  C6  UNL     1      66.614   7.313  23.836  1.00  0.00     0.150 C
HETATM   11  S1  UNL     1      65.687   6.328  24.759  1.00  0.00    -0.052 SA
HETATM   12  S2  UNL     1      66.723   6.932  22.100  1.00  0.00    -0.020 SA
ENDBRANCH   5  10
BRANCH   1  13
HETATM   13  C3  UNL     1      66.646  13.124  25.825  1.00  0.00     0.160 C
BRANCH  13  14
HETATM   14  C2  UNL     1      66.545  13.095  27.308  1.00  0.00    -0.017 C
HETATM   15  C1  UNL     1      67.652  13.070  28.036  1.00  0.00     0.008 C
ENDBRANCH  13  14
ENDBRANCH   1  13
TORSDOF 3
ENDMDL