MODEL 3
REMARK VINA RESULT: -7.789716201      1.571      3.026
REMARK  4 active torsions:
REMARK  status: ('A' for Active; 'I' for Inactive)
REMARK    1  A    between atoms: C5_6  and  O2_7
REMARK    2  A    between atoms: C10_14  and  O4_15
REMARK    3  A    between atoms: O4_15  and  C11_16
REMARK    4  A    between atoms: C11_16  and  C12_18
ROOT
HETATM    1  C1  UNL     1      63.345  14.750  24.584  1.00  0.00     0.017 C
HETATM    2  C2  UNL     1      62.478  13.834  24.198  1.00  0.00    -0.050 C
HETATM    3  C3  UNL     1      61.304  14.075  23.369  1.00  0.00     0.051 C
HETATM    4  C4  UNL     1      60.987  15.459  22.994  1.00  0.00     0.180 C
HETATM    5  O1  UNL     1      59.582  15.528  22.873  1.00  0.00    -0.360 OA
HETATM    6  C5  UNL     1      59.052  14.369  23.431  1.00  0.00     0.264 C
HETATM    7  C6  UNL     1      60.106  13.820  24.311  1.00  0.00     0.083 C
HETATM    8  C7  UNL     1      60.087  12.391  24.615  1.00  0.00     0.169 A
HETATM    9  O3  UNL     1      60.559  12.170  26.015  1.00  0.00    -0.366 OA
HETATM   10  C8  UNL     1      61.337  11.738  24.962  1.00  0.00     0.115 A
HETATM   11  C9  UNL     1      61.375  10.208  24.851  1.00  0.00     0.052 C
HETATM   12  C10 UNL     1      62.610  12.386  24.581  1.00  0.00     0.197 C
ENDROOT
BRANCH  12  13
HETATM   13  O4  UNL     1      63.678  12.177  25.464  1.00  0.00    -0.308 OA
BRANCH  13  14
HETATM   14  C11 UNL     1      64.861  11.570  25.147  1.00  0.00     0.263 C
HETATM   15  O5  UNL     1      64.823  10.782  24.154  1.00  0.00    -0.265 OA
BRANCH  14  16
HETATM   16  C12 UNL     1      66.118  11.806  25.904  1.00  0.00     0.077 C
HETATM   17  C13 UNL     1      66.025  12.983  26.837  1.00  0.00     0.020 C
HETATM   18  C14 UNL     1      67.323  11.902  24.992  1.00  0.00     0.020 C
ENDBRANCH  14  16
ENDBRANCH  13  14
ENDBRANCH  12  13
BRANCH   6  19
HETATM   19  O2  UNL     1      57.848  14.623  24.078  1.00  0.00    -0.371 OA
ATOM     20  H2  UNL     1      57.417  13.817  24.335  1.00  0.00     0.212 HD
ENDBRANCH   6  19
TORSDOF 4
ENDMDL