MODEL 2
REMARK VINA RESULT: -5.427063891      6.374      7.917
REMARK  3 active torsions:
REMARK  status: ('A' for Active; 'I' for Inactive)
REMARK    1  A    between atoms: C2_2  and  N1_3
REMARK    2  A    between atoms: N1_3  and  C3_5
REMARK    3  A    between atoms: N4_11  and  C5_12
ROOT
HETATM    1  C3  UNL     1      61.476  11.379  24.958  1.00  0.00     0.696 A
HETATM    2  N2  UNL     1      62.622  11.429  25.659  1.00  0.00    -0.185 N
ATOM      3  H2  UNL     1      62.911  10.796  26.405  1.00  0.00     0.185 HD
HETATM    4  C4  UNL     1      63.308  12.475  25.183  1.00  0.00     0.215 A
HETATM    5  N3  UNL     1      62.568  13.027  24.215  1.00  0.00    -0.279 N
ATOM      6  H3  UNL     1      62.849  13.846  23.676  1.00  0.00     0.188 HD
HETATM    7  N4  UNL     1      61.428  12.381  24.044  1.00  0.00    -0.117 N
ENDROOT
BRANCH   7   8
HETATM    8  C5  UNL     1      60.356  12.654  23.108  1.00  0.00     0.142 C
HETATM    9  C6  UNL     1      60.874  13.554  22.039  1.00  0.00     0.102 C
HETATM   10  S1  UNL     1      60.601  15.206  22.795  1.00  0.00    -0.161 SA
HETATM   11  C7  UNL     1      59.694  14.618  24.282  1.00  0.00     0.063 C
HETATM   12  C8  UNL     1      58.572  15.517  24.641  1.00  0.00     0.089 C
HETATM   13  C10 UNL     1      59.171  13.321  23.765  1.00  0.00     0.036 C
HETATM   14  S2  UNL     1      57.350  15.118  23.329  1.00  0.00    -0.167 SA
HETATM   15  C9  UNL     1      58.138  13.571  22.728  1.00  0.00     0.082 C
ENDBRANCH   7   8
BRANCH   1  16
HETATM   16  N1  UNL     1      60.548  10.487  25.140  1.00  0.00    -0.225 N
ATOM     17  H1  UNL     1      60.533   9.652  24.555  1.00  0.00     0.177 HD
BRANCH  16  18
HETATM   18  C2  UNL     1      59.547  10.657  26.148  1.00  0.00     0.134 C
HETATM   19  C1  UNL     1      59.942  10.084  27.491  1.00  0.00     0.027 C
ENDBRANCH  16  18
ENDBRANCH   1  16
TORSDOF 3
ENDMDL