MODEL 4
REMARK VINA RESULT: -7.375535716      2.882      6.961
REMARK  3 active torsions:
REMARK  status: ('A' for Active; 'I' for Inactive)
REMARK    1  A    between atoms: N1_3  and  C3_4
REMARK    2  A    between atoms: C3_4  and  N2_5
REMARK    3  A    between atoms: C8_11  and  O2_12
ROOT
HETATM    1  C1  UNL     1      60.509  11.780  25.283  1.00  0.00     0.064 C
HETATM    2  C2  UNL     1      61.259  12.829  24.989  1.00  0.00     0.107 A
HETATM    3  N1  UNL     1      60.773  14.161  24.719  1.00  0.00    -0.277 N
HETATM    4  C8  UNL     1      61.888  14.968  24.454  1.00  0.00     0.172 A
HETATM    5  C9  UNL     1      63.027  14.251  24.535  1.00  0.00     0.065 A
HETATM    6  C10 UNL     1      64.365  14.804  24.313  1.00  0.00     0.062 C
HETATM    7  C11 UNL     1      65.356  14.473  25.389  1.00  0.00     0.006 C
HETATM    8  C12 UNL     1      65.678  12.998  25.444  1.00  0.00     0.002 C
HETATM    9  C13 UNL     1      64.578  12.202  26.110  1.00  0.00     0.020 C
HETATM   10  C14 UNL     1      63.565  11.796  25.059  1.00  0.00     0.131 C
HETATM   11  N3  UNL     1      62.669  12.919  24.866  1.00  0.00    -0.333 N
ENDROOT
BRANCH   3  12
HETATM   12  C3  UNL     1      59.386  14.503  24.765  1.00  0.00     0.163 C
BRANCH  12  13
HETATM   13  N2  UNL     1      58.845  15.017  23.541  1.00  0.00    -0.275 NA
HETATM   14  C4  UNL     1      57.551  15.609  23.880  1.00  0.00     0.122 C
HETATM   15  C5  UNL     1      56.674  15.793  22.653  1.00  0.00     0.182 C
HETATM   16  O1  UNL     1      56.345  14.553  22.095  1.00  0.00    -0.389 OA
HETATM   17  C6  UNL     1      57.154  13.544  22.625  1.00  0.00     0.182 C
HETATM   18  C7  UNL     1      58.590  13.946  22.584  1.00  0.00     0.122 C
ENDBRANCH  12  13
ENDBRANCH   3  12
BRANCH   4  19
HETATM   19  O2  UNL     1      61.919  16.314  24.146  1.00  0.00    -0.344 OA
ATOM     20  H2  UNL     1      61.641  17.048  24.682  1.00  0.00     0.219 HD
ENDBRANCH   4  19
TORSDOF 3
ENDMDL