MODEL 5
REMARK VINA RESULT: -5.322406809      1.869      3.922
REMARK  3 active torsions:
REMARK  status: ('A' for Active; 'I' for Inactive)
REMARK    1  A    between atoms: C10_12  and  C12_14
REMARK    2  A    between atoms: C12_14  and  O3_15
REMARK    3  A    between atoms: C13_17  and  O4_18
ROOT
HETATM    1  O4  UNL     1      61.907   6.314  26.838  1.00  0.00    -0.274 OA
HETATM    2  C14 UNL     1      62.517   5.964  27.984  1.00  0.00     0.229 C
HETATM    3  N1  UNL     1      63.030   5.651  28.954  1.00  0.00    -0.164 NA
ENDROOT
BRANCH   1   4
HETATM    4  C13 UNL     1      62.418   7.222  25.889  1.00  0.00     0.193 C
HETATM    5  C2  UNL     1      62.286   6.503  24.534  1.00  0.00    -0.010 C
HETATM    6  C1  UNL     1      63.138   7.161  23.482  1.00  0.00     0.018 C
HETATM    7  C3  UNL     1      62.565   5.030  24.681  1.00  0.00     0.018 C
HETATM    8  C4  UNL     1      60.794   6.632  24.188  1.00  0.00     0.093 C
HETATM    9  C5  UNL     1      60.248   7.513  25.250  1.00  0.00     0.165 C
HETATM   10  O1  UNL     1      59.102   7.510  25.619  1.00  0.00    -0.294 OA
HETATM   11  C6  UNL     1      61.388   8.307  25.679  1.00  0.00     0.162 C
HETATM   12  O2  UNL     1      61.766   9.186  24.632  1.00  0.00    -0.357 OA
HETATM   13  C10 UNL     1      61.298   9.429  26.576  1.00  0.00     0.049 C
HETATM   14  C7  UNL     1      61.115  10.208  25.321  1.00  0.00     0.068 C
HETATM   15  C8  UNL     1      59.700  10.484  24.881  1.00  0.00     0.047 C
HETATM   16  C9  UNL     1      61.956  11.476  25.199  1.00  0.00     0.047 C
HETATM   17  C11 UNL     1      60.252   9.519  27.622  1.00  0.00     0.024 C
BRANCH  13  18
HETATM   18  C12 UNL     1      62.656   9.784  27.200  1.00  0.00     0.179 C
BRANCH  18  19
HETATM   19  O3  UNL     1      62.568   9.460  28.573  1.00  0.00    -0.400 OA
ATOM     20  H3  UNL     1      62.336  10.261  29.027  1.00  0.00     0.209 HD
ENDBRANCH  18  19
ENDBRANCH  13  18
ENDBRANCH   1   4
TORSDOF 3
ENDMDL