MODEL 1
REMARK VINA RESULT: -7.726082275      0.000      0.000
REMARK  3 active torsions:
REMARK  status: ('A' for Active; 'I' for Inactive)
REMARK    1  A    between atoms: N1_1  and  C1_4
REMARK    2  A    between atoms: C2_9  and  N4_10
REMARK    3  A    between atoms: N5_13  and  C5_14
ROOT
HETATM    1  N4  UNL     1      60.045  14.192  24.076  1.00  0.00    -0.357 N
HETATM    2  C3  UNL     1      61.068  15.208  24.019  1.00  0.00     0.155 C
HETATM    3  C4  UNL     1      62.468  14.622  23.895  1.00  0.00     0.292 C
HETATM    4  N5  UNL     1      62.609  13.644  24.954  1.00  0.00     0.096 N
HETATM    5  C11 UNL     1      61.678  12.567  24.653  1.00  0.00     0.292 C
HETATM    6  C12 UNL     1      60.298  13.085  25.011  1.00  0.00     0.155 C
ENDROOT
BRANCH   1   7
HETATM    7  C2  UNL     1      58.849  14.214  23.303  1.00  0.00     0.165 A
HETATM    8  N3  UNL     1      58.569  13.380  22.316  1.00  0.00    -0.278 N
HETATM    9  N2  UNL     1      57.474  13.473  21.683  1.00  0.00    -0.278 N
ATOM     10  H3  UNL     1      59.239  12.655  22.062  1.00  0.00     0.189 HD
HETATM   11  C1  UNL     1      56.608  14.429  22.027  1.00  0.00     0.160 A
ATOM     12  H2  UNL     1      57.259  12.830  20.922  1.00  0.00     0.189 HD
HETATM   13  S1  UNL     1      57.451  15.191  23.318  1.00  0.00    -0.016 SA
BRANCH  11  14
HETATM   14  N1  UNL     1      55.435  14.686  21.498  1.00  0.00    -0.379 N
ATOM     15  H12 UNL     1      55.076  15.529  21.049  1.00  0.00     0.158 HD
ATOM     16  H11 UNL     1      54.627  14.068  21.430  1.00  0.00     0.158 HD
ENDBRANCH  11  14
ENDBRANCH   1   7
BRANCH   4  17
HETATM   17  C5  UNL     1      63.936  13.065  25.013  1.00  0.00     0.223 C
HETATM   18  C6  UNL     1      65.002  14.076  25.342  1.00  0.00     0.036 C
HETATM   19  C7  UNL     1      66.326  13.360  25.287  1.00  0.00     0.002 C
HETATM   20  C8  UNL     1      66.205  11.946  24.747  1.00  0.00     0.000 C
HETATM   21  C9  UNL     1      65.254  11.104  25.582  1.00  0.00     0.002 C
HETATM   22  C10 UNL     1      64.054  11.950  26.013  1.00  0.00     0.036 C
ENDBRANCH   4  17
TORSDOF 3
ENDMDL