MODEL 2
REMARK VINA RESULT: -7.366092776      4.644      7.516
REMARK  3 active torsions:
REMARK  status: ('A' for Active; 'I' for Inactive)
REMARK    1  A    between atoms: C2_3  and  C8_13
REMARK    2  A    between atoms: N2_4  and  N3_6
REMARK       I    between atoms: C8_13  and  N4_15
REMARK    3  A    between atoms: N4_15  and  C9_17
ROOT
HETATM    1  N1  UNL     1      60.926   9.688  24.969  1.00  0.00    -0.190 NA
HETATM    2  C1  UNL     1      61.896  10.303  25.142  1.00  0.00     0.125 C
HETATM    3  C2  UNL     1      63.092  11.053  25.368  1.00  0.00     0.197 C
HETATM    4  N2  UNL     1      63.049  12.328  25.292  1.00  0.00    -0.286 N
ATOM      5  H2  UNL     1      63.890  12.884  25.449  1.00  0.00     0.188 HD
ENDROOT
BRANCH   3   6
HETATM    6  C8  UNL     1      64.346  10.378  25.682  1.00  0.00     0.286 C
HETATM    7  O1  UNL     1      64.393   9.122  25.753  1.00  0.00    -0.265 OA
HETATM    8  N4  UNL     1      65.534  11.105  25.913  1.00  0.00    -0.301 N
ATOM      9  H4  UNL     1      65.607  11.706  26.734  1.00  0.00     0.171 HD
BRANCH   8  10
HETATM   10  C9  UNL     1      66.551  11.014  25.077  1.00  0.00     0.151 A
HETATM   11  N5  UNL     1      66.520  10.627  23.804  1.00  0.00    -0.346 N
HETATM   12  C10 UNL     1      67.630  10.600  23.130  1.00  0.00     0.097 A
ATOM     13  H5  UNL     1      65.639  10.357  23.366  1.00  0.00     0.167 HD
HETATM   14  C11 UNL     1      68.781  10.975  23.773  1.00  0.00     0.070 A
HETATM   15  S1  UNL     1      68.206  11.352  25.335  1.00  0.00    -0.064 SA
ENDBRANCH   8  10
ENDBRANCH   3   6
BRANCH   4  16
HETATM   16  N3  UNL     1      61.840  12.946  24.992  1.00  0.00    -0.308 N
HETATM   17  C3  UNL     1      61.723  14.156  24.608  1.00  0.00     0.004 C
HETATM   18  C4  UNL     1      60.446  14.827  24.285  1.00  0.00     0.054 C
HETATM   19  C7  UNL     1      62.795  15.151  24.400  1.00  0.00     0.054 C
HETATM   20  C5  UNL     1      60.826  15.683  23.094  1.00  0.00     0.006 C
HETATM   21  C6  UNL     1      62.172  16.224  23.519  1.00  0.00     0.006 C
ATOM     22  H3  UNL     1      60.987  12.393  25.085  1.00  0.00     0.186 HD
ENDBRANCH   4  16
TORSDOF 3
ENDMDL