MODEL 1
REMARK VINA RESULT: -7.769971757      0.000      0.000
REMARK  4 active torsions:
REMARK  status: ('A' for Active; 'I' for Inactive)
REMARK       I    between atoms: C2_2  and  N1_4
REMARK    1  A    between atoms: C4_7  and  C5_8
REMARK    2  A    between atoms: C10_14  and  C11_15
REMARK    3  A    between atoms: C11_15  and  O4_16
REMARK    4  A    between atoms: N2_18  and  O5_20
ROOT
HETATM    1  C1  UNL     1      62.187  15.959  23.470  1.00  0.00     0.118 C
HETATM    2  C2  UNL     1      60.916  15.262  23.159  1.00  0.00     0.225 C
HETATM    3  O1  UNL     1      60.068  15.797  22.406  1.00  0.00    -0.273 OA
HETATM    4  N1  UNL     1      60.604  13.984  23.685  1.00  0.00    -0.251 N
HETATM    5  C3  UNL     1      61.415  13.182  24.562  1.00  0.00     0.258 C
HETATM    6  O2  UNL     1      62.557  13.433  25.016  1.00  0.00    -0.270 OA
HETATM    7  C4  UNL     1      60.608  11.985  24.817  1.00  0.00     0.221 C
HETATM    8  O3  UNL     1      59.310  12.484  24.706  1.00  0.00    -0.343 OA
HETATM    9  C10 UNL     1      59.419  13.180  23.479  1.00  0.00     0.311 C
ENDROOT
BRANCH   9  10
HETATM   10  C11 UNL     1      58.213  13.978  23.207  1.00  0.00     0.186 C
HETATM   11  N2  UNL     1      57.589  13.758  22.089  1.00  0.00    -0.247 N
ATOM     12  H2  UNL     1      56.751  14.301  21.881  1.00  0.00     0.196 HD
BRANCH  10  13
HETATM   13  O4  UNL     1      57.697  14.937  24.041  1.00  0.00    -0.345 OA
ATOM     14  H4  UNL     1      57.004  14.795  24.675  1.00  0.00     0.219 HD
ENDBRANCH  10  13
BRANCH  11  15
HETATM   15  O5  UNL     1      58.012  12.822  21.174  1.00  0.00    -0.288 OA
ATOM     16  H5  UNL     1      57.410  12.321  20.637  1.00  0.00     0.244 HD
ENDBRANCH  11  15
ENDBRANCH   9  10
BRANCH   7  17
HETATM   17  C5  UNL     1      60.875  11.322  26.126  1.00  0.00     0.024 C
HETATM   18  C6  UNL     1      59.654  10.715  26.759  1.00  0.00     0.007 C
HETATM   19  C7  UNL     1      60.098   9.442  27.451  1.00  0.00     0.000 C
HETATM   20  C8  UNL     1      61.619   9.440  27.306  1.00  0.00     0.000 C
HETATM   21  C9  UNL     1      61.777  10.116  25.965  1.00  0.00     0.007 C
ENDBRANCH   7  17
TORSDOF 4
ENDMDL