MODEL 4
REMARK VINA RESULT: -6.541628373      3.045      4.616
REMARK  3 active torsions:
REMARK  status: ('A' for Active; 'I' for Inactive)
REMARK    1  A    between atoms: C2_2  and  N1_4
REMARK    2  A    between atoms: N1_4  and  N2_6
REMARK    3  A    between atoms: N2_6  and  C4_8
ROOT
HETATM    1  C4  UNL     1       1.217   9.470   0.068  1.00  0.00     0.140 A
HETATM    2  N3  UNL     1       1.755   8.909  -1.051  1.00  0.00    -0.336 N
ATOM      3  H3  UNL     1       2.697   9.165  -1.349  1.00  0.00     0.168 HD
HETATM    4  C5  UNL     1       1.044   8.017  -1.759  1.00  0.00     0.182 A
HETATM    5  N4  UNL     1      -0.189   7.668  -1.389  1.00  0.00    -0.354 N
ATOM      6  H4  UNL     1      -0.702   6.989  -1.950  1.00  0.00     0.166 HD
HETATM    7  C6  UNL     1      -0.767   8.183  -0.305  1.00  0.00     0.039 A
HETATM    8  C7  UNL     1      -0.040   9.108   0.438  1.00  0.00     0.070 A
HETATM    9  S1  UNL     1      -0.866   9.766   1.870  1.00  0.00    -0.115 SA
HETATM   10  C8  UNL     1      -2.621   9.976   1.398  1.00  0.00     0.007 C
HETATM   11  C9  UNL     1      -3.530   9.807   2.595  1.00  0.00     0.027 C
HETATM   12  C10 UNL     1      -2.841  11.399   0.894  1.00  0.00     0.027 C
HETATM   13  C11 UNL     1      -2.976   9.056   0.251  1.00  0.00     0.035 C
HETATM   14  C12 UNL     1      -2.140   7.829   0.154  1.00  0.00    -0.002 C
HETATM   15  C13 UNL     1      -2.109   6.959   1.355  1.00  0.00     0.021 C
HETATM   16  C14 UNL     1      -2.745   6.997  -0.988  1.00  0.00     0.021 C
ENDROOT
BRANCH   1  17
HETATM   17  N2  UNL     1       1.860  10.322   0.767  1.00  0.00    -0.284 N
ATOM     18  H2  UNL     1       2.150  10.032   1.701  1.00  0.00     0.188 HD
BRANCH  17  19
HETATM   19  N1  UNL     1       2.200  11.604   0.372  1.00  0.00    -0.308 N
ATOM     20  H1  UNL     1       2.600  11.744  -0.556  1.00  0.00     0.186 HD
BRANCH  19  21
HETATM   21  C2  UNL     1       2.026  12.641   1.149  1.00  0.00    -0.004 C
HETATM   22  C1  UNL     1       2.502  12.539   2.541  1.00  0.00     0.064 C
HETATM   23  C3  UNL     1       1.378  13.830   0.587  1.00  0.00     0.064 C
ENDBRANCH  19  21
ENDBRANCH  17  19
ENDBRANCH   1  17
TORSDOF 3
ENDMDL