MODEL 2
REMARK VINA RESULT: -8.391524272      1.805      4.398
REMARK  2 active torsions:
REMARK  status: ('A' for Active; 'I' for Inactive)
REMARK    1  A    between atoms: N2_3  and  C2_5
REMARK    2  A    between atoms: C9_16  and  C10_17
ROOT
HETATM    1  N1  UNL     1      -2.041   8.906   4.185  1.00  0.00    -0.171 NA
HETATM    2  C1  UNL     1      -1.945   9.073   3.043  1.00  0.00     0.196 C
HETATM    3  N2  UNL     1      -1.829   9.285   1.675  1.00  0.00    -0.126 N
ATOM      4  H2  UNL     1      -2.649   9.488   1.103  1.00  0.00     0.197 HD
ENDROOT
BRANCH   3   5
HETATM    5  C2  UNL     1      -0.524   9.212   1.093  1.00  0.00     0.690 A
HETATM    6  N3  UNL     1      -0.057   8.188   0.526  1.00  0.00    -0.199 N
HETATM    7  C3  UNL     1       1.231   8.068  -0.065  1.00  0.00     0.121 A
ATOM      8  H3  UNL     1      -0.660   7.366   0.488  1.00  0.00     0.180 HD
HETATM    9  C4  UNL     1       1.132   7.813  -1.563  1.00  0.00     0.054 C
HETATM   10  C8  UNL     1       1.924   6.922   0.638  1.00  0.00     0.054 C
HETATM   11  N4  UNL     1       1.962   9.302   0.068  1.00  0.00    -0.351 N
HETATM   12  C5  UNL     1       1.289   6.344  -1.876  1.00  0.00     0.004 C
HETATM   13  C6  UNL     1       2.717   5.973  -1.548  1.00  0.00     0.000 C
HETATM   14  C7  UNL     1       3.075   6.360  -0.141  1.00  0.00     0.004 C
HETATM   15  C9  UNL     1       1.543  10.369   0.630  1.00  0.00     0.110 A
ATOM     16  H4  UNL     1       2.904   9.326  -0.325  1.00  0.00     0.163 HD
HETATM   17  N5  UNL     1       0.248  10.394   1.189  1.00  0.00    -0.179 N
ATOM     18  H5  UNL     1      -0.117  11.230   1.644  1.00  0.00     0.185 HD
BRANCH  15  19
HETATM   19  C10 UNL     1       2.419  11.562   0.686  1.00  0.00     0.123 C
HETATM   20  C11 UNL     1       2.581  12.125   1.959  1.00  0.00    -0.170 C
HETATM   21  C12 UNL     1       2.775  12.658   3.233  1.00  0.00     0.084 C
HETATM   22  C13 UNL     1       4.310  12.505   3.527  1.00  0.00     0.038 C
HETATM   23  C14 UNL     1       5.100  12.272   2.239  1.00  0.00    -0.030 C
HETATM   24  C15 UNL     1       4.857  11.181   1.350  1.00  0.00    -0.029 C
HETATM   25  C16 UNL     1       3.868  11.196   0.201  1.00  0.00     0.050 C
ENDBRANCH  15  19
ENDBRANCH   3   5
TORSDOF 2
ENDMDL