MODEL 2
REMARK VINA RESULT: -6.572442924      2.123      3.021
REMARK  3 active torsions:
REMARK  status: ('A' for Active; 'I' for Inactive)
REMARK    1  A    between atoms: C10_10  and  O1_12
REMARK    2  A    between atoms: C13_15  and  O2_16
REMARK    3  A    between atoms: O2_16  and  O3_17
ROOT
HETATM    1  C1  UNL     1       4.670  10.725   0.934  1.00  0.00     0.076 C
HETATM    2  C2  UNL     1       3.621  10.416  -0.079  1.00  0.00     0.039 C
HETATM    3  C3  UNL     1       4.170   9.986  -1.230  1.00  0.00     0.006 C
HETATM    4  C4  UNL     1       3.508   9.576  -2.483  1.00  0.00     0.039 C
HETATM    5  C5  UNL     1       2.793   8.273  -2.457  1.00  0.00    -0.032 C
HETATM    6  C6  UNL     1       2.681   7.897  -3.956  1.00  0.00     0.016 C
HETATM    7  C7  UNL     1       3.710   7.235  -1.889  1.00  0.00     0.010 C
HETATM    8  C8  UNL     1       3.120   5.868  -1.812  1.00  0.00     0.004 C
HETATM    9  C9  UNL     1       1.665   5.755  -1.681  1.00  0.00     0.038 C
HETATM   10  C10 UNL     1       0.819   6.895  -2.115  1.00  0.00     0.061 C
HETATM   11  C11 UNL     1      -0.519   6.735  -1.372  1.00  0.00     0.046 C
HETATM   12  C12 UNL     1       1.411   8.260  -1.915  1.00  0.00     0.062 C
HETATM   13  C13 UNL     1       1.225   8.680  -0.500  1.00  0.00     0.197 C
HETATM   14  C14 UNL     1       1.093  10.196  -0.335  1.00  0.00     0.157 C
HETATM   15  C15 UNL     1      -0.041  10.605   0.542  1.00  0.00     0.042 C
HETATM   16  O4  UNL     1       2.299  10.623   0.335  1.00  0.00    -0.349 OA
ENDROOT
BRANCH  10  17
HETATM   17  O1  UNL     1       0.414   6.687  -3.459  1.00  0.00    -0.390 OA
ATOM     18  H1  UNL     1      -0.519   6.513  -3.479  1.00  0.00     0.210 HD
ENDBRANCH  10  17
BRANCH  13  19
HETATM   19  O2  UNL     1       2.202   8.195   0.365  1.00  0.00    -0.235 OA
BRANCH  19  20
HETATM   20  O3  UNL     1       1.650   7.512   1.332  1.00  0.00    -0.250 OA
ATOM     21  H3  UNL     1       1.386   6.654   1.020  1.00  0.00     0.253 HD
ENDBRANCH  19  20
ENDBRANCH  13  19
TORSDOF 3
ENDMDL