MODEL 5
REMARK VINA RESULT: -6.918677311      2.416      3.739
REMARK  1 active torsions:
REMARK  status: ('A' for Active; 'I' for Inactive)
REMARK    1  A    between atoms: O1_1  and  C1_3
ROOT
HETATM    1  C1  UNL     1       2.887  11.441   1.167  1.00  0.00     0.183 C
HETATM    2  C2  UNL     1       2.249  12.517   2.046  1.00  0.00     0.037 C
HETATM    3  C3  UNL     1       1.642  13.523   1.061  1.00  0.00     0.003 C
HETATM    4  C4  UNL     1       0.492  12.854   0.398  1.00  0.00     0.006 C
HETATM    5  C5  UNL     1       0.792  11.534  -0.218  1.00  0.00     0.074 C
HETATM    6  C6  UNL     1       1.744  10.679   0.535  1.00  0.00     0.226 C
HETATM    7  O2  UNL     1       1.065  10.032   1.556  1.00  0.00    -0.195 OA
HETATM    8  O3  UNL     1       0.676   8.882   1.140  1.00  0.00    -0.197 OA
HETATM    9  C7  UNL     1       1.494   8.532   0.039  1.00  0.00     0.208 C
HETATM   10  O4  UNL     1       2.207   9.652  -0.295  1.00  0.00    -0.310 OA
HETATM   11  C8  UNL     1       2.334   7.382   0.510  1.00  0.00     0.052 C
HETATM   12  C9  UNL     1       2.942   6.577  -0.591  1.00  0.00     0.014 C
HETATM   13  C10 UNL     1       1.857   6.037  -1.520  1.00  0.00    -0.013 C
HETATM   14  C11 UNL     1       0.893   5.169  -0.749  1.00  0.00     0.009 C
HETATM   15  C12 UNL     1       0.274   6.024   0.353  1.00  0.00    -0.013 C
HETATM   16  C13 UNL     1       1.373   6.449   1.263  1.00  0.00     0.014 C
HETATM   17  C14 UNL     1      -0.458   7.144  -0.312  1.00  0.00     0.014 C
HETATM   18  C15 UNL     1       0.533   8.072  -1.027  1.00  0.00     0.052 C
HETATM   19  C16 UNL     1       1.179   7.264  -2.108  1.00  0.00     0.014 C
ENDROOT
BRANCH   1  20
HETATM   20  O1  UNL     1       3.766  11.970   0.248  1.00  0.00    -0.390 OA
ATOM     21  H1  UNL     1       3.612  11.641  -0.630  1.00  0.00     0.210 HD
ENDBRANCH   1  20
TORSDOF 1
ENDMDL