MODEL 2
REMARK VINA RESULT: -7.116645023      4.677      7.077
REMARK  2 active torsions:
REMARK  status: ('A' for Active; 'I' for Inactive)
REMARK    1  A    between atoms: C2_2  and  C3_3
REMARK    2  A    between atoms: C13_16  and  O4_17
ROOT
HETATM    1  C3  UNL     1      -2.466   9.899   0.147  1.00  0.00     0.050 C
HETATM    2  C4  UNL     1      -1.013   9.519  -0.181  1.00  0.00     0.083 C
HETATM    3  C5  UNL     1      -0.219   9.253   1.057  1.00  0.00     0.198 C
HETATM    4  C6  UNL     1       0.995   8.385   0.689  1.00  0.00     0.071 C
HETATM    5  C7  UNL     1       1.763   9.141  -0.347  1.00  0.00     0.007 C
HETATM    6  C8  UNL     1       2.229  10.435   0.284  1.00  0.00     0.026 C
HETATM    7  C9  UNL     1       1.122  11.157   1.002  1.00  0.00     0.171 C
HETATM    8  O1  UNL     1       0.261  10.366   1.692  1.00  0.00    -0.353 OA
HETATM    9  O2  UNL     1      -0.918   8.492   1.997  1.00  0.00    -0.200 OA
HETATM   10  O3  UNL     1      -2.119   8.901   2.228  1.00  0.00    -0.226 OA
HETATM   11  C10 UNL     1      -2.957   8.879   1.116  1.00  0.00     0.103 C
HETATM   12  C11 UNL     1      -2.892   7.505   0.473  1.00  0.00     0.044 C
HETATM   13  C12 UNL     1      -3.812   7.383  -0.697  1.00  0.00     0.035 C
HETATM   14  C13 UNL     1      -5.228   7.821  -0.374  1.00  0.00     0.118 C
HETATM   15  C14 UNL     1      -5.302   7.962   1.134  1.00  0.00     0.035 C
HETATM   16  C15 UNL     1      -4.370   9.073   1.571  1.00  0.00     0.044 C
ENDROOT
BRANCH   1  17
HETATM   17  C2  UNL     1      -2.405  11.269   0.696  1.00  0.00    -0.029 C
HETATM   18  C1  UNL     1      -3.354  11.946   1.273  1.00  0.00     0.007 C
ENDBRANCH   1  17
BRANCH  14  19
HETATM   19  O4  UNL     1      -6.168   6.868  -0.749  1.00  0.00    -0.396 OA
ATOM     20  H4  UNL     1      -5.795   6.199  -1.310  1.00  0.00     0.210 HD
ENDBRANCH  14  19
TORSDOF 2
ENDMDL