MODEL 1
REMARK VINA RESULT: -6.613486805      0.000      0.000
REMARK  2 active torsions:
REMARK  status: ('A' for Active; 'I' for Inactive)
REMARK    1  A    between atoms: N1_9  and  N2_11
REMARK    2  A    between atoms: N2_11  and  C8_13
ROOT
HETATM    1  C1  UNL     1      -3.318   9.935   3.333  1.00  0.00     0.046 C
HETATM    2  C2  UNL     1      -3.428   9.693   1.858  1.00  0.00     0.061 C
HETATM    3  C3  UNL     1      -4.694   8.863   1.635  1.00  0.00     0.046 C
HETATM    4  O1  UNL     1      -3.603  10.865   1.132  1.00  0.00    -0.380 OA
HETATM    5  C4  UNL     1      -2.532  11.710   1.136  1.00  0.00     0.169 C
HETATM    6  C5  UNL     1      -1.216  11.067   0.768  1.00  0.00     0.037 C
HETATM    7  C6  UNL     1      -1.028   9.802   1.515  1.00  0.00     0.046 C
HETATM    8  C7  UNL     1      -0.009   8.888   1.008  1.00  0.00     0.009 C
HETATM    9  N1  UNL     1       1.069   9.106   0.358  1.00  0.00    -0.306 N
ATOM     10  H1  UNL     1       1.640   8.300   0.101  1.00  0.00     0.186 HD
HETATM   11  C11 UNL     1      -0.454   7.512   1.397  1.00  0.00     0.055 C
HETATM   12  C12 UNL     1      -1.906   7.674   1.867  1.00  0.00     0.018 C
HETATM   13  C13 UNL     1      -2.292   8.960   1.268  1.00  0.00    -0.004 C
HETATM   14  C14 UNL     1      -2.480   8.823  -0.215  1.00  0.00     0.019 C
ENDROOT
BRANCH   9  15
HETATM   15  N2  UNL     1       1.518  10.361  -0.022  1.00  0.00    -0.280 N
ATOM     16  H2  UNL     1       0.990  10.940  -0.674  1.00  0.00     0.189 HD
BRANCH  15  17
HETATM   17  C8  UNL     1       2.653  10.770   0.493  1.00  0.00     0.163 A
HETATM   18  N3  UNL     1       3.865  10.233   0.369  1.00  0.00    -0.345 N
HETATM   19  C9  UNL     1       4.868  10.805   0.969  1.00  0.00     0.097 A
ATOM     20  H3  UNL     1       4.005   9.389  -0.186  1.00  0.00     0.167 HD
HETATM   21  C10 UNL     1       4.623  11.934   1.701  1.00  0.00     0.070 A
HETATM   22  S1  UNL     1       2.939  12.128   1.491  1.00  0.00    -0.063 SA
ENDBRANCH  15  17
ENDBRANCH   9  15
TORSDOF 2
ENDMDL