MODEL 4
REMARK VINA RESULT: -7.695902962      2.745      6.618
REMARK  2 active torsions:
REMARK  status: ('A' for Active; 'I' for Inactive)
REMARK    1  A    between atoms: C5_5  and  O1_6
REMARK    2  A    between atoms: C8_13  and  C10_15
ROOT
HETATM    1  C1  UNL     1      -4.751   6.377  -1.501  1.00  0.00     0.036 C
HETATM    2  C2  UNL     1      -3.923   5.941  -0.351  1.00  0.00    -0.023 C
HETATM    3  C3  UNL     1      -3.234   6.773   0.355  1.00  0.00    -0.025 C
HETATM    4  C4  UNL     1      -2.406   6.372   1.499  1.00  0.00     0.073 C
HETATM    5  C5  UNL     1      -1.364   7.465   1.836  1.00  0.00     0.154 C
HETATM    6  C6  UNL     1      -1.879   8.836   1.799  1.00  0.00     0.191 C
HETATM    7  O2  UNL     1      -3.216   8.780   1.369  1.00  0.00    -0.344 OA
HETATM    8  C7  UNL     1      -3.223   8.223   0.062  1.00  0.00     0.327 C
HETATM    9  O3  UNL     1      -2.092   8.466  -0.654  1.00  0.00    -0.202 OA
HETATM   10  O4  UNL     1      -1.355   9.453  -0.386  1.00  0.00    -0.224 OA
HETATM   11  C8  UNL     1      -1.252   9.851   0.945  1.00  0.00     0.125 C
HETATM   12  C9  UNL     1      -2.199  11.075   0.979  1.00  0.00     0.052 C
ENDROOT
BRANCH  11  13
HETATM   13  C10 UNL     1       0.095  10.371   1.276  1.00  0.00     0.026 C
HETATM   14  C11 UNL     1       1.240   9.612   0.675  1.00  0.00     0.008 C
HETATM   15  C12 UNL     1       2.017  10.375  -0.379  1.00  0.00     0.000 C
HETATM   16  C13 UNL     1       3.176  11.147   0.205  1.00  0.00     0.000 C
HETATM   17  C14 UNL     1       2.726  12.423   0.811  1.00  0.00     0.000 C
HETATM   18  C15 UNL     1       1.602  12.240   1.816  1.00  0.00     0.000 C
HETATM   19  C16 UNL     1       0.308  11.833   1.094  1.00  0.00     0.008 C
ENDBRANCH  11  13
BRANCH   5  20
HETATM   20  O1  UNL     1      -1.016   7.109   3.145  1.00  0.00    -0.393 OA
ATOM     21  H1  UNL     1      -1.632   6.406   3.313  1.00  0.00     0.210 HD
ENDBRANCH   5  20
TORSDOF 2
ENDMDL