MODEL 2
REMARK VINA RESULT: -7.269280401      1.012      1.272
REMARK  1 active torsions:
REMARK  status: ('A' for Active; 'I' for Inactive)
REMARK    1  A    between atoms: C3_6  and  C4_7
ROOT
HETATM    1  C4  UNL     1       1.447  11.622   0.709  1.00  0.00     0.364 C
HETATM    2  O1  UNL     1       0.812  11.408   1.909  1.00  0.00    -0.200 OA
HETATM    3  O2  UNL     1      -0.430  11.009   1.617  1.00  0.00    -0.194 OA
HETATM    4  C5  UNL     1      -0.408   9.722   1.060  1.00  0.00     0.237 C
HETATM    5  O3  UNL     1       0.894   9.513   0.608  1.00  0.00    -0.194 OA
HETATM    6  O4  UNL     1       1.151  10.560  -0.180  1.00  0.00    -0.200 OA
HETATM    7  C6  UNL     1      -1.318   9.619  -0.148  1.00  0.00     0.055 C
HETATM    8  C7  UNL     1      -2.707   9.972   0.267  1.00  0.00     0.015 C
HETATM    9  C8  UNL     1      -3.125   9.058   1.385  1.00  0.00    -0.013 C
HETATM   10  C9  UNL     1      -3.140   7.647   0.839  1.00  0.00     0.009 C
HETATM   11  C10 UNL     1      -1.737   7.264   0.450  1.00  0.00    -0.013 C
HETATM   12  C11 UNL     1      -1.242   8.194  -0.641  1.00  0.00     0.015 C
HETATM   13  C12 UNL     1      -0.783   7.364   1.608  1.00  0.00     0.015 C
HETATM   14  C13 UNL     1      -0.800   8.764   2.144  1.00  0.00     0.055 C
HETATM   15  C14 UNL     1      -2.216   9.147   2.580  1.00  0.00     0.015 C
ENDROOT
BRANCH   1  16
HETATM   16  C3  UNL     1       2.927  11.708   0.781  1.00  0.00     0.246 C
HETATM   17  N1  UNL     1       3.533  10.375   0.640  1.00  0.00    -0.066 N
HETATM   18  C2  UNL     1       4.952  10.737   0.779  1.00  0.00     0.233 C
ATOM     19  H12 UNL     1       3.283   9.857  -0.202  1.00  0.00     0.277 HD
ATOM     20  H11 UNL     1       3.189   9.658   1.279  1.00  0.00     0.277 HD
HETATM   21  C1  UNL     1       4.950  11.723   1.931  1.00  0.00     0.030 C
HETATM   22  C15 UNL     1       3.480  12.141   2.097  1.00  0.00     0.040 C
ENDBRANCH   1  16
TORSDOF 1
ENDMDL