MODEL 2
REMARK VINA RESULT: -7.570455095      3.525      7.095
REMARK  2 active torsions:
REMARK  status: ('A' for Active; 'I' for Inactive)
REMARK    1  A    between atoms: C2_3  and  O2_5
REMARK    2  A    between atoms: O2_5  and  C3_6
ROOT
HETATM    1  N1  UNL     1      -7.009   9.204   1.428  1.00  0.00    -0.186 NA
HETATM    2  C1  UNL     1      -5.878   9.365   1.643  1.00  0.00     0.170 C
HETATM    3  C2  UNL     1      -4.476   9.563   1.919  1.00  0.00     0.365 C
HETATM    4  O1  UNL     1      -4.036   9.918   3.021  1.00  0.00    -0.247 OA
ENDROOT
BRANCH   3   5
HETATM    5  O2  UNL     1      -3.480   9.383   0.998  1.00  0.00    -0.304 OA
BRANCH   5   6
HETATM    6  C3  UNL     1      -2.121   9.633   1.191  1.00  0.00     0.133 C
HETATM    7  C4  UNL     1      -1.435   8.296   1.097  1.00  0.00     0.032 C
HETATM    8  C5  UNL     1      -1.349   7.661  -0.220  1.00  0.00     0.003 C
HETATM    9  C6  UNL     1      -0.013   7.728  -0.913  1.00  0.00     0.004 C
HETATM   10  C7  UNL     1       1.145   7.941   0.001  1.00  0.00     0.027 C
HETATM   11  C8  UNL     1       2.382   7.651  -0.784  1.00  0.00    -0.031 C
HETATM   12  C9  UNL     1       3.500   8.365  -0.699  1.00  0.00    -0.031 C
HETATM   13  C10 UNL     1       3.649   9.544   0.197  1.00  0.00     0.027 C
HETATM   14  C11 UNL     1       3.279  10.833  -0.532  1.00  0.00     0.011 C
HETATM   15  C12 UNL     1       3.172  11.921   0.514  1.00  0.00     0.078 C
HETATM   16  C13 UNL     1       1.860  11.967   1.171  1.00  0.00     0.127 C
HETATM   17  O3  UNL     1       1.769  11.913   2.405  1.00  0.00    -0.298 OA
HETATM   18  C14 UNL     1       0.597  12.080   0.414  1.00  0.00     0.078 C
HETATM   19  C15 UNL     1      -0.574  11.597   1.246  1.00  0.00     0.010 C
HETATM   20  C16 UNL     1      -1.523  10.726   0.414  1.00  0.00     0.033 C
ENDBRANCH   5   6
ENDBRANCH   3   5
TORSDOF 2
ENDMDL