MODEL 3
REMARK VINA RESULT: -7.404763345      3.200      4.493
REMARK  2 active torsions:
REMARK  status: ('A' for Active; 'I' for Inactive)
REMARK    1  A    between atoms: N1_1  and  C1_4
REMARK    2  A    between atoms: C9_13  and  N3_14
ROOT
HETATM    1  C1  UNL     1      -1.827  10.806   1.036  1.00  0.00     0.031 C
HETATM    2  C2  UNL     1      -3.216  11.039   1.585  1.00  0.00     0.059 C
HETATM    3  C3  UNL     1      -3.760   9.745   2.088  1.00  0.00     0.008 C
HETATM    4  C4  UNL     1      -4.226   8.919   0.904  1.00  0.00     0.020 C
HETATM    5  C5  UNL     1      -3.221   7.830   0.691  1.00  0.00     0.123 C
HETATM    6  N2  UNL     1      -1.941   8.356   0.261  1.00  0.00    -0.378 N
HETATM    7  C6  UNL     1      -1.371   7.450  -0.729  1.00  0.00     0.123 C
HETATM    8  C7  UNL     1       0.088   7.773  -0.973  1.00  0.00     0.026 C
HETATM    9  C8  UNL     1       0.734   8.251   0.286  1.00  0.00     0.061 C
HETATM   10  C9  UNL     1       0.121   9.563   0.685  1.00  0.00     0.038 C
HETATM   11  C16 UNL     1      -1.225   9.548   0.650  1.00  0.00     0.075 C
ENDROOT
BRANCH  10  12
HETATM   12  N3  UNL     1       0.846  10.696   1.080  1.00  0.00    -0.364 N
HETATM   13  C10 UNL     1       2.098  10.918   1.019  1.00  0.00    -0.006 C
HETATM   14  C11 UNL     1       2.648  12.226   1.515  1.00  0.00     0.053 C
HETATM   15  C15 UNL     1       3.096   9.981   0.468  1.00  0.00     0.130 C
HETATM   16  C12 UNL     1       4.025  12.054   2.107  1.00  0.00     0.013 C
HETATM   17  C13 UNL     1       4.977  11.653   0.997  1.00  0.00     0.079 C
HETATM   18  C14 UNL     1       4.259  10.831   0.010  1.00  0.00     0.132 C
HETATM   19  O1  UNL     1       4.581  10.824  -1.148  1.00  0.00    -0.298 OA
ATOM     20  H3  UNL     1       0.288  11.453   1.474  1.00  0.00     0.165 HD
ENDBRANCH  10  12
BRANCH   1  21
HETATM   21  N1  UNL     1      -1.087  11.840   0.888  1.00  0.00    -0.400 N
ATOM     22  H12 UNL     1      -1.584  12.722   0.768  1.00  0.00     0.156 HD
ATOM     23  H11 UNL     1      -0.079  11.687   0.907  1.00  0.00     0.156 HD
ENDBRANCH   1  21
TORSDOF 2
ENDMDL