MODEL 5
REMARK VINA RESULT: -6.082550796      2.204      2.578
REMARK  3 active torsions:
REMARK  status: ('A' for Active; 'I' for Inactive)
REMARK    1  A    between atoms: N1_2  and  C1_4
REMARK    2  A    between atoms: C3_8  and  N3_9
REMARK    3  A    between atoms: N3_9  and  N4_11
ROOT
HETATM    1  N3  UNL     1       8.432   4.757  12.639  1.00  0.00    -0.280 N
ATOM      2  H3  UNL     1       7.869   5.435  12.125  1.00  0.00     0.189 HD
ENDROOT
BRANCH   1   3
HETATM    3  C3  UNL     1       9.742   4.871  12.673  1.00  0.00     0.165 A
HETATM    4  N2  UNL     1      10.543   5.283  11.695  1.00  0.00    -0.343 N
HETATM    5  C2  UNL     1      11.822   5.333  11.909  1.00  0.00     0.134 A
ATOM      6  H2  UNL     1      10.158   5.556  10.790  1.00  0.00     0.167 HD
HETATM    7  C1  UNL     1      12.282   4.956  13.141  1.00  0.00     0.162 A
HETATM    8  S1  UNL     1      10.824   4.540  13.947  1.00  0.00    -0.027 SA
BRANCH   7   9
HETATM    9  N1  UNL     1      13.639   4.918  13.632  1.00  0.00    -0.107 N
HETATM   10  O1  UNL     1      13.794   4.878  14.859  1.00  0.00    -0.531 OA
HETATM   11  O2  UNL     1      14.706   4.925  12.799  1.00  0.00    -0.531 OA
ENDBRANCH   7   9
ENDBRANCH   1   3
BRANCH   1  12
HETATM   12  N4  UNL     1       7.817   3.696  13.316  1.00  0.00    -0.307 N
HETATM   13  C4  UNL     1       7.921   2.474  12.929  1.00  0.00     0.004 C
HETATM   14  C5  UNL     1       7.230   1.425  13.717  1.00  0.00     0.054 C
HETATM   15  C9  UNL     1       8.697   2.050  11.737  1.00  0.00     0.054 C
HETATM   16  C6  UNL     1       8.157   0.243  13.908  1.00  0.00     0.006 C
HETATM   17  C7  UNL     1       8.698  -0.289  12.621  1.00  0.00     0.001 C
HETATM   18  C8  UNL     1       8.423   0.610  11.437  1.00  0.00     0.006 C
ATOM     19  H4  UNL     1       7.265   3.901  14.148  1.00  0.00     0.186 HD
ENDBRANCH   1  12
TORSDOF 3
ENDMDL