MODEL 4
REMARK VINA RESULT: -4.604282685      2.604      4.193
REMARK  3 active torsions:
REMARK  status: ('A' for Active; 'I' for Inactive)
REMARK    1  A    between atoms: C2_2  and  N1_3
REMARK    2  A    between atoms: C4_8  and  N2_9
REMARK       I    between atoms: N2_9  and  C5_11
REMARK    3  A    between atoms: C5_11  and  C6_13
ROOT
HETATM    1  N1  UNL     1      10.472   1.527  14.234  1.00  0.00    -0.312 N
HETATM    2  C3  UNL     1      10.819   1.118  15.445  1.00  0.00     0.153 A
HETATM    3  S1  UNL     1      10.702  -0.453  16.025  1.00  0.00    -0.051 SA
HETATM    4  S2  UNL     1      11.440   2.291  16.512  1.00  0.00    -0.019 SA
HETATM    5  S3  UNL     1      11.257   3.830  15.104  1.00  0.00    -0.013 SA
HETATM    6  C4  UNL     1      10.618   2.800  13.905  1.00  0.00     0.161 A
ENDROOT
BRANCH   6   7
HETATM    7  N2  UNL     1      10.283   3.273  12.707  1.00  0.00    -0.306 N
HETATM    8  C5  UNL     1       9.745   4.545  12.542  1.00  0.00     0.237 C
HETATM    9  O1  UNL     1      10.251   5.441  11.798  1.00  0.00    -0.272 OA
ATOM     10  H2  UNL     1      10.426   2.685  11.886  1.00  0.00     0.171 HD
BRANCH   8  11
HETATM   11  C6  UNL     1       8.502   4.935  13.260  1.00  0.00     0.217 C
HETATM   12 CL1  UNL     1       7.238   3.776  12.785  1.00  0.00    -0.121 Cl
ENDBRANCH   8  11
ENDBRANCH   6   7
BRANCH   1  13
HETATM   13  C2  UNL     1       9.938   0.524  13.271  1.00  0.00     0.128 C
HETATM   14  C1  UNL     1       8.440   0.506  13.442  1.00  0.00     0.027 C
ENDBRANCH   1  13
TORSDOF 3
ENDMDL