MODEL 4
REMARK VINA RESULT: -6.493573026      0.895      1.207
REMARK  3 active torsions:
REMARK  status: ('A' for Active; 'I' for Inactive)
REMARK    1  A    between atoms: N1_2  and  C1_4
REMARK    2  A    between atoms: C2_5  and  O3_6
REMARK    3  A    between atoms: C3_9  and  N2_10
ROOT
HETATM    1  C1  UNL     1      11.927   4.669  13.563  1.00  0.00     0.186 A
HETATM    2  C2  UNL     1      11.650   5.075  12.277  1.00  0.00     0.221 A
HETATM    3  O4  UNL     1      10.449   4.708  11.965  1.00  0.00    -0.267 OA
HETATM    4  C3  UNL     1       9.844   4.064  12.944  1.00  0.00     0.173 A
HETATM    5  C9  UNL     1      10.773   4.027  13.982  1.00  0.00     0.123 A
HETATM    6 CL1  UNL     1      10.478   3.279  15.516  1.00  0.00    -0.077 Cl
ENDROOT
BRANCH   4   7
HETATM    7  N2  UNL     1       8.526   3.522  12.952  1.00  0.00    -0.360 N
HETATM    8  C4  UNL     1       7.444   4.400  13.343  1.00  0.00     0.125 C
HETATM    9  C5  UNL     1       6.152   3.657  13.015  1.00  0.00     0.020 C
HETATM   10  C6  UNL     1       6.190   2.397  13.868  1.00  0.00     0.003 C
HETATM   11  C7  UNL     1       7.259   1.460  13.374  1.00  0.00     0.020 C
HETATM   12  C8  UNL     1       8.317   2.139  12.571  1.00  0.00     0.125 C
ENDBRANCH   4   7
BRANCH   2  13
HETATM   13  O3  UNL     1      12.587   5.776  11.493  1.00  0.00    -0.339 OA
ATOM     14  H3  UNL     1      13.042   6.546  11.816  1.00  0.00     0.220 HD
ENDBRANCH   2  13
BRANCH   1  15
HETATM   15  N1  UNL     1      13.108   4.864  14.333  1.00  0.00    -0.109 N
HETATM   16  O1  UNL     1      14.197   4.425  13.930  1.00  0.00    -0.532 OA
HETATM   17  O2  UNL     1      13.002   5.537  15.534  1.00  0.00    -0.532 OA
ENDBRANCH   1  15
TORSDOF 3
ENDMDL