MODEL 4
REMARK VINA RESULT: -5.553511118      4.400      5.483
REMARK  3 active torsions:
REMARK  status: ('A' for Active; 'I' for Inactive)
REMARK    1  A    between atoms: O1_1  and  C1_3
REMARK    2  A    between atoms: C5_10  and  C6_11
REMARK    3  A    between atoms: N1_12  and  N2_14
ROOT
HETATM    1  C1  UNL     1      11.636   4.049  12.601  1.00  0.00     0.123 A
HETATM    2  C2  UNL     1      12.909   4.587  12.698  1.00  0.00     0.152 A
HETATM    3  F1  UNL     1      13.171   5.665  11.886  1.00  0.00    -0.203 F
HETATM    4  C3  UNL     1      13.913   4.166  13.499  1.00  0.00     0.076 A
HETATM    5  C4  UNL     1      13.861   3.111  14.383  1.00  0.00     0.075 A
HETATM    6  S1  UNL     1      15.153   2.712  15.291  1.00  0.00    -0.072 SA
HETATM    7  S2  UNL     1      12.367   2.301  14.424  1.00  0.00    -0.074 SA
HETATM    8  C5  UNL     1      11.198   2.970  13.337  1.00  0.00     0.059 A
ENDROOT
BRANCH   8   9
HETATM    9  C6  UNL     1       9.853   2.424  13.218  1.00  0.00     0.128 C
HETATM   10  N1  UNL     1       8.884   3.272  13.323  1.00  0.00    -0.313 N
ATOM     11  H1  UNL     1       9.125   4.251  13.479  1.00  0.00     0.185 HD
BRANCH  10  12
HETATM   12  N2  UNL     1       7.543   2.948  13.238  1.00  0.00    -0.328 N
HETATM   13  C7  UNL     1       6.491   3.826  12.802  1.00  0.00     0.142 C
HETATM   14  C8  UNL     1       5.408   3.537  13.838  1.00  0.00     0.023 C
HETATM   15  C9  UNL     1       5.515   2.031  13.957  1.00  0.00     0.023 C
HETATM   16  C10 UNL     1       6.944   1.686  13.564  1.00  0.00     0.142 C
ENDBRANCH  10  12
ENDBRANCH   8   9
BRANCH   1  17
HETATM   17  O1  UNL     1      10.744   4.631  11.712  1.00  0.00    -0.356 OA
ATOM     18  H1  UNL     1      10.251   4.061  11.134  1.00  0.00     0.218 HD
ENDBRANCH   1  17
TORSDOF 3
ENDMDL