MODEL 4
REMARK VINA RESULT: -5.783587287      2.885      5.098
REMARK  3 active torsions:
REMARK  status: ('A' for Active; 'I' for Inactive)
REMARK    1  A    between atoms: C1_2  and  N1_3
REMARK    2  A    between atoms: C4_8  and  O2_9
REMARK    3  A    between atoms: N2_11  and  N3_12
ROOT
HETATM    1  N1  UNL     1       8.588   0.865  13.256  1.00  0.00    -0.313 N
ATOM      2  H1  UNL     1       7.963   0.104  13.518  1.00  0.00     0.170 HD
HETATM    3  C2  UNL     1       8.087   2.064  13.250  1.00  0.00     0.174 A
HETATM    4  S1  UNL     1       6.462   2.498  13.643  1.00  0.00    -0.059 SA
HETATM    5  C3  UNL     1       6.585   4.177  13.396  1.00  0.00     0.111 A
HETATM    6  C4  UNL     1       7.884   4.312  13.022  1.00  0.00     0.170 A
HETATM    7  N2  UNL     1       8.642   3.236  12.950  1.00  0.00    -0.210 N
ENDROOT
BRANCH   7   8
HETATM    8  N3  UNL     1      10.040   3.257  12.573  1.00  0.00    -0.297 N
HETATM    9  C5  UNL     1      10.930   3.590  13.424  1.00  0.00     0.022 C
HETATM   10  C6  UNL     1      10.693   3.981  14.843  1.00  0.00     0.056 C
HETATM   11  C9  UNL     1      12.393   3.681  13.160  1.00  0.00     0.129 C
HETATM   12  C7  UNL     1      11.816   4.932  15.175  1.00  0.00     0.008 C
HETATM   13  C8  UNL     1      12.825   4.833  14.062  1.00  0.00     0.026 C
HETATM   14 CL1  UNL     1      13.295   2.262  13.725  1.00  0.00    -0.119 Cl
ATOM     15  H3  UNL     1      10.314   3.004  11.623  1.00  0.00     0.187 HD
ENDBRANCH   7   8
BRANCH   6  16
HETATM   16  O2  UNL     1       8.413   5.603  12.711  1.00  0.00    -0.344 OA
ATOM     17  H2  UNL     1       9.047   6.012  13.289  1.00  0.00     0.219 HD
ENDBRANCH   6  16
BRANCH   1  18
HETATM   18  C1  UNL     1       9.907   0.522  12.936  1.00  0.00     0.354 C
HETATM   19  O1  UNL     1      10.689   0.194  13.865  1.00  0.00    -0.283 OA
ENDBRANCH   1  18
TORSDOF 3
ENDMDL