MODEL 2
REMARK VINA RESULT: -6.828966033      2.808      5.909
REMARK  3 active torsions:
REMARK  status: ('A' for Active; 'I' for Inactive)
REMARK    1  A    between atoms: C5_6  and  N1_7
REMARK    2  A    between atoms: N2_9  and  C6_11
REMARK    3  A    between atoms: C11_17  and  O2_18
ROOT
HETATM    1  C1  UNL     1       6.360   1.397  13.735  1.00  0.00     0.068 C
HETATM    2  C2  UNL     1       7.596   2.165  13.446  1.00  0.00     0.013 A
HETATM    3  C3  UNL     1       8.848   1.573  13.445  1.00  0.00     0.082 A
HETATM    4  C4  UNL     1       9.981   2.307  13.166  1.00  0.00     0.206 A
HETATM    5  O1  UNL     1      11.121   1.809  13.156  1.00  0.00    -0.286 OA
HETATM    6  C5  UNL     1       9.909   3.685  12.875  1.00  0.00     0.149 A
HETATM    7  C11 UNL     1       8.628   4.215  12.894  1.00  0.00     0.175 A
HETATM    8  N3  UNL     1       7.534   3.466  13.171  1.00  0.00    -0.334 N
HETATM    9  C12 UNL     1       6.240   4.115  13.165  1.00  0.00     0.158 C
ENDROOT
BRANCH   6  10
HETATM   10  N1  UNL     1      11.037   4.408  12.598  1.00  0.00    -0.297 N
HETATM   11  N2  UNL     1      12.032   4.899  12.865  1.00  0.00    -0.328 N
ATOM     12  H2  UNL     1      12.470   5.382  12.080  1.00  0.00     0.180 HD
ATOM     13  H1  UNL     1      10.929   4.632  11.608  1.00  0.00     0.187 HD
BRANCH  11  14
HETATM   14  C6  UNL     1      12.783   4.977  14.063  1.00  0.00     0.133 C
HETATM   15  C7  UNL     1      11.888   5.020  15.297  1.00  0.00     0.029 C
HETATM   16  C8  UNL     1      12.850   4.696  16.405  1.00  0.00     0.005 C
HETATM   17  C9  UNL     1      13.841   3.760  15.804  1.00  0.00     0.039 C
HETATM   18  C10 UNL     1      13.622   3.742  14.326  1.00  0.00     0.194 C
HETATM   19  F1  UNL     1      14.856   3.887  13.673  1.00  0.00    -0.247 F
ENDBRANCH  11  14
ENDBRANCH   6  10
BRANCH   7  20
HETATM   20  O2  UNL     1       8.489   5.584  12.612  1.00  0.00    -0.344 OA
ATOM     21  H2  UNL     1       7.781   5.843  12.034  1.00  0.00     0.219 HD
ENDBRANCH   7  20
TORSDOF 3
ENDMDL