MODEL 2
REMARK VINA RESULT: -5.358086640      2.322      2.740
REMARK  3 active torsions:
REMARK  status: ('A' for Active; 'I' for Inactive)
REMARK    1  A    between atoms: C2_7  and  N2_8
REMARK    2  A    between atoms: N2_8  and  N3_10
REMARK    3  A    between atoms: C3_12  and  C4_13
ROOT
HETATM    1  N3  UNL     1       9.180   1.542  14.058  1.00  0.00    -0.313 N
ATOM      2  H3  UNL     1       8.293   1.707  13.583  1.00  0.00     0.185 HD
HETATM    3  C3  UNL     1       9.575   0.340  14.308  1.00  0.00     0.104 C
ENDROOT
BRANCH   1   4
HETATM    4  N2  UNL     1       9.975   2.605  14.441  1.00  0.00    -0.291 N
ATOM      5  H2  UNL     1      10.233   2.707  15.423  1.00  0.00     0.187 HD
BRANCH   4   6
HETATM    6  C2  UNL     1      10.410   3.495  13.559  1.00  0.00     0.136 A
HETATM    7  C1  UNL     1       9.651   4.406  12.909  1.00  0.00     0.146 A
HETATM    8 CL1  UNL     1       7.874   4.499  13.204  1.00  0.00    -0.061 Cl
HETATM    9  N1  UNL     1      10.182   5.243  12.054  1.00  0.00    -0.309 N
HETATM   10  S1  UNL     1      11.820   5.171  11.771  1.00  0.00     0.027 SA
ATOM     11  H1  UNL     1       9.601   5.927  11.569  1.00  0.00     0.176 HD
HETATM   12  S2  UNL     1      12.047   3.623  13.099  1.00  0.00    -0.013 SA
ENDBRANCH   4   6
ENDBRANCH   1   4
BRANCH   3  13
HETATM   13  C4  UNL     1      10.867   0.090  14.999  1.00  0.00     0.116 C
HETATM   14  C5  UNL     1      11.461  -1.181  14.477  1.00  0.00     0.030 C
HETATM   15  C6  UNL     1      10.860  -2.413  15.090  1.00  0.00     0.004 C
HETATM   16  C7  UNL     1      11.118  -2.279  16.596  1.00  0.00     0.019 C
HETATM   17  C8  UNL     1      10.290  -1.101  17.023  1.00  0.00     0.114 C
HETATM   18  N4  UNL     1      10.701   0.132  16.421  1.00  0.00    -0.413 N
ATOM     19  H4  UNL     1      10.864   0.979  16.965  1.00  0.00     0.153 HD
ENDBRANCH   3  13
TORSDOF 3
ENDMDL