MODEL 5
REMARK VINA RESULT: -5.898947842      2.252      3.529
REMARK  7 active torsions:
REMARK  status: ('A' for Active; 'I' for Inactive)
REMARK    1  A    between atoms: C2_2  and  C3_3
REMARK    2  A    between atoms: C4_4  and  C5_5
REMARK    3  A    between atoms: C7_7  and  N1_8
REMARK    4  A    between atoms: C8_9  and  O1_10
REMARK    5  A    between atoms: C10_14  and  N2_15
REMARK    6  A    between atoms: N2_15  and  N3_17
REMARK    7  A    between atoms: N3_17  and  O2_19
ROOT
HETATM    1  N1  UNL     1      11.158   3.340  13.078  1.00  0.00    -0.300 N
HETATM    2  C8  UNL     1      12.424   3.645  12.991  1.00  0.00     0.151 A
HETATM    3  C9  UNL     1      12.766   4.812  12.356  1.00  0.00     0.109 A
HETATM    4  S1  UNL     1      11.251   5.439  11.899  1.00  0.00    -0.060 SA
HETATM    5  C10 UNL     1      10.273   4.193  12.537  1.00  0.00     0.169 A
ENDROOT
BRANCH   1   6
HETATM    6  C7  UNL     1      10.658   2.109  13.741  1.00  0.00     0.111 A
HETATM    7  C5  UNL     1      11.544   1.220  14.483  1.00  0.00     0.090 A
HETATM    8  C6  UNL     1      10.601   2.064  15.243  1.00  0.00     0.046 A
BRANCH   7   9
HETATM    9  C4  UNL     1      11.184  -0.227  14.508  1.00  0.00    -0.100 C
HETATM   10  C3  UNL     1      10.888  -1.393  14.548  1.00  0.00    -0.106 C
BRANCH  10  11
HETATM   11  C2  UNL     1      10.514  -2.801  14.618  1.00  0.00     0.089 C
HETATM   12  C1  UNL     1      10.789  -3.426  15.950  1.00  0.00     0.018 C
ENDBRANCH  10  11
ENDBRANCH   7   9
ENDBRANCH   1   6
BRANCH   2  13
HETATM   13  O1  UNL     1      13.494   2.850  13.514  1.00  0.00    -0.346 OA
ATOM     14  H1  UNL     1      13.572   1.910  13.407  1.00  0.00     0.219 HD
ENDBRANCH   2  13
BRANCH   5  15
HETATM   15  N2  UNL     1       8.956   4.087  12.507  1.00  0.00    -0.260 N
ATOM     16  H2  UNL     1       8.494   3.278  12.091  1.00  0.00     0.191 HD
BRANCH  15  17
HETATM   17  N3  UNL     1       8.233   5.125  13.067  1.00  0.00    -0.208 N
ATOM     18  H3  UNL     1       8.702   6.014  13.244  1.00  0.00     0.215 HD
BRANCH  17  19
HETATM   19  O2  UNL     1       7.015   5.011  13.368  1.00  0.00    -0.274 OA
ATOM     20  H2  UNL     1       6.702   4.353  13.977  1.00  0.00     0.246 HD
ENDBRANCH  17  19
ENDBRANCH  15  17
ENDBRANCH   5  15
TORSDOF 7
ENDMDL