MODEL 3
REMARK VINA RESULT: -5.597772857      3.789      6.337
REMARK  3 active torsions:
REMARK  status: ('A' for Active; 'I' for Inactive)
REMARK    1  A    between atoms: C2_2  and  C4_5
REMARK    2  A    between atoms: C6_9  and  N2_10
REMARK    3  A    between atoms: C7_12  and  C8_13
ROOT
HETATM    1  C4  UNL     1      10.533  -1.425  15.737  1.00  0.00     0.095 A
HETATM    2  C5  UNL     1      10.248  -1.904  14.469  1.00  0.00     0.126 A
HETATM    3  N1  UNL     1       9.839  -0.823  13.791  1.00  0.00    -0.330 N
ATOM      4  H1  UNL     1       9.548  -0.816  12.814  1.00  0.00     0.168 HD
HETATM    5  C6  UNL     1       9.870   0.252  14.600  1.00  0.00     0.228 A
HETATM    6  O1  UNL     1      10.293  -0.151  15.764  1.00  0.00    -0.280 OA
ENDROOT
BRANCH   5   7
HETATM    7  N2  UNL     1       9.496   1.589  14.213  1.00  0.00    -0.334 N
HETATM    8  C7  UNL     1      10.312   2.565  14.297  1.00  0.00     0.098 C
ATOM      9  H2  UNL     1       8.553   1.759  13.862  1.00  0.00     0.168 HD
BRANCH   8  10
HETATM   10  C8  UNL     1       9.873   3.921  13.884  1.00  0.00     0.234 C
HETATM   11  C9  UNL     1      10.139   4.059  12.401  1.00  0.00     0.114 C
HETATM   12  S1  UNL     1      11.891   4.540  12.453  1.00  0.00    -0.140 SA
HETATM   13  C10 UNL     1      12.003   4.835  14.267  1.00  0.00     0.306 C
HETATM   14  N3  UNL     1      10.594   4.956  14.570  1.00  0.00    -0.057 N
ATOM     15  H32 UNL     1      10.231   5.885  14.359  1.00  0.00     0.278 HD
ATOM     16  H31 UNL     1      10.412   4.954  15.574  1.00  0.00     0.278 HD
ENDBRANCH   8  10
ENDBRANCH   5   7
BRANCH   1  17
HETATM   17  C2  UNL     1      11.031  -2.307  16.836  1.00  0.00     0.080 C
HETATM   18  C1  UNL     1      12.439  -1.999  17.237  1.00  0.00     0.039 C
HETATM   19  C3  UNL     1      10.940  -3.735  16.372  1.00  0.00     0.039 C
HETATM   20 CL1  UNL     1       9.967  -2.067  18.225  1.00  0.00    -0.113 Cl
ENDBRANCH   1  17
TORSDOF 3
ENDMDL