MODEL 2
REMARK VINA RESULT: -4.949306447      0.263      3.761
REMARK  8 active torsions:
REMARK  status: ('A' for Active; 'I' for Inactive)
REMARK    1  A    between atoms: N1_1  and  C1_5
REMARK    2  A    between atoms: C1_5  and  C2_6
REMARK    3  A    between atoms: C2_6  and  N2_7
REMARK    4  A    between atoms: N2_7  and  C3_9
REMARK    5  A    between atoms: C6_16  and  N5_17
REMARK    6  A    between atoms: N5_17  and  C7_19
REMARK    7  A    between atoms: C7_19  and  C8_20
REMARK    8  A    between atoms: C8_20  and  N6_21
ROOT
HETATM    1  C3  UNL     1      49.878  46.285 -19.532  1.00  0.00     0.145 A
HETATM    2  N3  UNL     1      50.720  46.347 -20.616  1.00  0.00    -0.348 N
ATOM      3  H3  UNL     1      50.478  46.939 -21.411  1.00  0.00     0.167 HD
HETATM    4  C4  UNL     1      51.855  45.637 -20.637  1.00  0.00     0.107 A
HETATM    5  C5  UNL     1      52.238  44.820 -19.598  1.00  0.00     0.107 A
HETATM    6  N4  UNL     1      51.425  44.751 -18.535  1.00  0.00    -0.348 N
ATOM      7  H4  UNL     1      51.676  44.155 -17.746  1.00  0.00     0.167 HD
HETATM    8  C6  UNL     1      50.264  45.468 -18.496  1.00  0.00     0.145 A
ENDROOT
BRANCH   1   9
HETATM    9  N2  UNL     1      48.807  46.986 -19.566  1.00  0.00    -0.372 N
ATOM     10  H2  UNL     1      48.213  46.924 -18.739  1.00  0.00     0.161 HD
BRANCH   9  11
HETATM   11  C2  UNL     1      48.330  47.843 -20.603  1.00  0.00     0.148 C
BRANCH  11  12
HETATM   12  C1  UNL     1      49.011  49.203 -20.413  1.00  0.00     0.249 C
BRANCH  12  13
HETATM   13  N1  UNL     1      48.001  50.200 -20.699  1.00  0.00    -0.078 N
ATOM     14  H13 UNL     1      47.072  49.806 -20.849  1.00  0.00     0.274 HD
ATOM     15  H12 UNL     1      47.761  50.778 -19.894  1.00  0.00     0.274 HD
ATOM     16  H11 UNL     1      48.349  50.734 -21.495  1.00  0.00     0.274 HD
ENDBRANCH  12  13
ENDBRANCH  11  12
ENDBRANCH   9  11
ENDBRANCH   1   9
BRANCH   8  17
HETATM   17  N5  UNL     1      49.529  45.369 -17.466  1.00  0.00    -0.372 N
ATOM     18  H5  UNL     1      48.594  44.992 -17.615  1.00  0.00     0.161 HD
BRANCH  17  19
HETATM   19  C7  UNL     1      49.859  45.725 -16.123  1.00  0.00     0.148 C
BRANCH  19  20
HETATM   20  C8  UNL     1      50.161  47.227 -16.106  1.00  0.00     0.249 C
BRANCH  20  21
HETATM   21  N6  UNL     1      48.960  48.008 -16.033  1.00  0.00    -0.078 N
ATOM     22  H63 UNL     1      48.597  48.220 -16.963  1.00  0.00     0.274 HD
ATOM     23  H62 UNL     1      48.178  47.456 -15.680  1.00  0.00     0.274 HD
ATOM     24  H61 UNL     1      49.095  48.856 -15.485  1.00  0.00     0.274 HD
ENDBRANCH  20  21
ENDBRANCH  19  20
ENDBRANCH  17  19
ENDBRANCH   8  17
TORSDOF 8
ENDMDL