MODEL 3
REMARK VINA RESULT: -5.096857779      0.880      1.226
REMARK  6 active torsions:
REMARK  status: ('A' for Active; 'I' for Inactive)
REMARK    1  A    between atoms: C2_2  and  N1_3
REMARK    2  A    between atoms: C2_2  and  N4_17
REMARK    3  A    between atoms: N1_3  and  C3_5
REMARK    4  A    between atoms: C5_7  and  N2_8
REMARK    5  A    between atoms: C6_12  and  N3_13
REMARK    6  A    between atoms: N4_17  and  N5_19
ROOT
HETATM    1  C3  UNL     1      50.041  48.336 -20.176  1.00  0.00     0.113 C
HETATM    2  C4  UNL     1      50.220  49.582 -21.000  1.00  0.00     0.061 C
HETATM    3  C5  UNL     1      48.715  49.633 -21.246  1.00  0.00     0.217 C
HETATM    4  C6  UNL     1      48.689  48.160 -20.883  1.00  0.00     0.236 C
ENDROOT
BRANCH   1   5
HETATM    5  N1  UNL     1      50.904  47.255 -20.379  1.00  0.00    -0.394 N
ATOM      6  H1  UNL     1      51.205  47.041 -21.330  1.00  0.00     0.155 HD
BRANCH   5   7
HETATM    7  C2  UNL     1      51.373  46.456 -19.331  1.00  0.00     0.196 C
HETATM    8  C1  UNL     1      51.878  45.123 -19.822  1.00  0.00     0.056 C
BRANCH   7   9
HETATM    9  N4  UNL     1      50.320  46.175 -18.413  1.00  0.00    -0.232 N
ATOM     10  H4  UNL     1      49.393  45.943 -18.768  1.00  0.00     0.189 HD
BRANCH   9  11
HETATM   11  N5  UNL     1      50.528  46.212 -17.090  1.00  0.00    -0.002 N
HETATM   12  C7  UNL     1      49.701  45.178 -16.459  1.00  0.00     0.300 C
HETATM   13  C8  UNL     1      50.035  47.506 -16.582  1.00  0.00     0.300 C
HETATM   14  C9  UNL     1      51.852  46.062 -16.596  1.00  0.00     0.300 C
ENDBRANCH   9  11
ENDBRANCH   7   9
ENDBRANCH   5   7
ENDBRANCH   1   5
BRANCH   4  15
HETATM   15  N3  UNL     1      47.611  47.779 -20.020  1.00  0.00    -0.071 N
ATOM     16  H33 UNL     1      47.353  46.805 -20.184  1.00  0.00     0.274 HD
ATOM     17  H32 UNL     1      47.935  47.715 -19.056  1.00  0.00     0.274 HD
ATOM     18  H31 UNL     1      46.788  48.378 -20.079  1.00  0.00     0.274 HD
ENDBRANCH   4  15
BRANCH   3  19
HETATM   19  N2  UNL     1      48.059  50.533 -20.356  1.00  0.00    -0.073 N
ATOM     20  H23 UNL     1      47.099  50.241 -20.175  1.00  0.00     0.274 HD
ATOM     21  H22 UNL     1      48.432  50.456 -19.410  1.00  0.00     0.274 HD
ATOM     22  H21 UNL     1      48.096  51.496 -20.691  1.00  0.00     0.274 HD
ENDBRANCH   3  19
TORSDOF 6
ENDMDL