MODEL 3
REMARK VINA RESULT: -5.066594636      2.418      6.279
REMARK  8 active torsions:
REMARK  status: ('A' for Active; 'I' for Inactive)
REMARK    1  A    between atoms: N1_1  and  C1_5
REMARK    2  A    between atoms: C1_5  and  C2_6
REMARK    3  A    between atoms: C2_6  and  C3_7
REMARK    4  A    between atoms: C3_7  and  N2_8
REMARK    5  A    between atoms: C6_11  and  N3_12
REMARK    6  A    between atoms: N3_12  and  C7_14
REMARK    7  A    between atoms: C7_14  and  C8_15
REMARK    8  A    between atoms: C8_15  and  N4_16
ROOT
HETATM    1  N2  UNL     1      49.636  48.537 -21.660  1.00  0.00    -0.353 N
HETATM    2  C4  UNL     1      50.361  47.391 -21.510  1.00  0.00     0.095 A
HETATM    3  C5  UNL     1      50.153  46.602 -20.401  1.00  0.00     0.065 A
HETATM    4  C6  UNL     1      49.228  46.944 -19.438  1.00  0.00     0.103 A
HETATM    5  N5  UNL     1      48.534  48.065 -19.607  1.00  0.00    -0.339 N
ATOM      6  H5  UNL     1      47.842  48.346 -18.913  1.00  0.00     0.168 HD
HETATM    7  C9  UNL     1      48.745  48.837 -20.704  1.00  0.00     0.184 A
ENDROOT
BRANCH   4   8
HETATM    8  N3  UNL     1      49.094  46.155 -18.434  1.00  0.00    -0.375 N
ATOM      9  H3  UNL     1      48.203  45.668 -18.344  1.00  0.00     0.161 HD
BRANCH   8  10
HETATM   10  C7  UNL     1      50.076  45.899 -17.435  1.00  0.00     0.148 C
BRANCH  10  11
HETATM   11  C8  UNL     1      50.322  47.206 -16.678  1.00  0.00     0.249 C
BRANCH  11  12
HETATM   12  N4  UNL     1      49.173  47.458 -15.838  1.00  0.00    -0.078 N
ATOM     13  H43 UNL     1      48.373  46.873 -16.077  1.00  0.00     0.274 HD
ATOM     14  H42 UNL     1      49.303  47.127 -14.882  1.00  0.00     0.274 HD
ATOM     15  H41 UNL     1      48.960  48.454 -15.885  1.00  0.00     0.274 HD
ENDBRANCH  11  12
ENDBRANCH  10  11
ENDBRANCH   8  10
ENDBRANCH   4   8
BRANCH   1  16
HETATM   16  C3  UNL     1      49.879  49.323 -22.843  1.00  0.00     0.130 C
BRANCH  16  17
HETATM   17  C2  UNL     1      51.356  49.341 -23.144  1.00  0.00     0.047 C
BRANCH  17  18
HETATM   18  C1  UNL     1      52.024  50.661 -22.966  1.00  0.00     0.231 C
BRANCH  18  19
HETATM   19  N1  UNL     1      52.277  50.883 -21.546  1.00  0.00    -0.079 N
ATOM     20  H13 UNL     1      53.174  51.340 -21.380  1.00  0.00     0.274 HD
ATOM     21  H12 UNL     1      51.673  51.604 -21.153  1.00  0.00     0.274 HD
ATOM     22  H11 UNL     1      52.196  49.996 -21.048  1.00  0.00     0.274 HD
ENDBRANCH  18  19
ENDBRANCH  17  18
ENDBRANCH  16  17
ENDBRANCH   1  16
TORSDOF 8
ENDMDL