MODEL 1
REMARK VINA RESULT: -6.716989557      0.000      0.000
REMARK  5 active torsions:
REMARK  status: ('A' for Active; 'I' for Inactive)
REMARK    1  A    between atoms: N2_5  and  C4_6
REMARK    2  A    between atoms: C4_6  and  N3_7
REMARK    3  A    between atoms: N3_7  and  C5_10
REMARK    4  A    between atoms: C5_10  and  C6_11
REMARK    5  A    between atoms: C6_11  and  N4_12
ROOT
HETATM    1  N3  UNL     1      48.692  47.087 -19.505  1.00  0.00    -0.056 N
ATOM      2  H31 UNL     1      47.754  47.332 -19.188  1.00  0.00     0.279 HD
ATOM      3  H32 UNL     1      48.559  46.078 -19.578  1.00  0.00     0.279 HD
ENDROOT
BRANCH   1   4
HETATM    4  C4  UNL     1      49.709  47.439 -18.542  1.00  0.00     0.379 C
BRANCH   4   5
HETATM    5  N2  UNL     1      49.913  46.405 -17.557  1.00  0.00    -0.276 N
HETATM    6  C3  UNL     1      49.514  45.128 -17.692  1.00  0.00     0.115 A
HETATM    7  C2  UNL     1      49.859  44.392 -16.576  1.00  0.00     0.065 A
HETATM    8  C1  UNL     1      50.499  45.306 -15.743  1.00  0.00     0.132 A
HETATM    9  N1  UNL     1      51.035  44.990 -14.459  1.00  0.00    -0.081 NA
HETATM   10  N8  UNL     1      50.501  46.487 -16.381  1.00  0.00    -0.284 N
ATOM     11  H8  UNL     1      50.907  47.342 -16.002  1.00  0.00     0.188 HD
ENDBRANCH   4   5
ENDBRANCH   1   4
BRANCH   1  12
HETATM   12  C5  UNL     1      49.017  47.690 -20.774  1.00  0.00     0.257 C
BRANCH  12  13
HETATM   13  C6  UNL     1      49.918  48.883 -20.639  1.00  0.00     0.200 C
BRANCH  13  14
HETATM   14  N4  UNL     1      49.184  50.074 -20.240  1.00  0.00    -0.201 N
HETATM   15  N5  UNL     1      47.989  50.528 -20.527  1.00  0.00    -0.209 N
HETATM   16  N6  UNL     1      48.187  51.577 -19.771  1.00  0.00    -0.211 N
ATOM     17  H5  UNL     1      47.217  50.198 -21.105  1.00  0.00     0.211 HD
HETATM   18  N7  UNL     1      49.388  51.125 -19.481  1.00  0.00    -0.209 N
ATOM     19  H6  UNL     1      47.639  52.399 -19.514  1.00  0.00     0.211 HD
ATOM     20  H7  UNL     1      50.161  51.456 -18.903  1.00  0.00     0.211 HD
ENDBRANCH  13  14
ENDBRANCH  12  13
ENDBRANCH   1  12
TORSDOF 5
ENDMDL