MODEL 4
REMARK VINA RESULT: -5.589367749      2.552      4.813
REMARK  4 active torsions:
REMARK  status: ('A' for Active; 'I' for Inactive)
REMARK    1  A    between atoms: N1_1  and  N2_4
REMARK       I    between atoms: N2_4  and  C1_5
REMARK       I    between atoms: C1_5  and  N3_6
REMARK       I    between atoms: C1_5  and  N4_10
REMARK    2  A    between atoms: N4_10  and  C2_11
REMARK    3  A    between atoms: N4_10  and  C3_13
REMARK    4  A    between atoms: C3_13  and  C4_14
ROOT
HETATM    1  N2  UNL     1      49.164  48.058 -16.697  1.00  0.00    -0.093 NA
HETATM    2  C1  UNL     1      50.266  48.281 -17.602  1.00  0.00     0.400 C
HETATM    3  N3  UNL     1      49.936  49.394 -18.449  1.00  0.00    -0.042 N
ATOM      4  H31 UNL     1      50.714  49.551 -19.088  1.00  0.00     0.278 HD
ATOM      5  H32 UNL     1      49.686  50.229 -17.920  1.00  0.00     0.278 HD
ATOM      6  H33 UNL     1      49.048  49.267 -18.935  1.00  0.00     0.278 HD
HETATM    7  N4  UNL     1      50.664  47.109 -18.352  1.00  0.00    -0.313 N
ENDROOT
BRANCH   7   8
HETATM    8  C2  UNL     1      51.967  46.551 -18.137  1.00  0.00     0.353 C
HETATM    9  O1  UNL     1      52.417  46.235 -17.016  1.00  0.00    -0.283 OA
ENDBRANCH   7   8
BRANCH   7  10
HETATM   10  C3  UNL     1      49.824  46.472 -19.332  1.00  0.00     0.168 C
BRANCH  10  11
HETATM   11  C4  UNL     1      50.150  46.838 -20.717  1.00  0.00    -0.024 A
HETATM   12  C5  UNL     1      51.205  46.445 -21.512  1.00  0.00     0.027 A
HETATM   13  C6  UNL     1      51.125  47.054 -22.761  1.00  0.00     0.088 A
HETATM   14  N5  UNL     1      50.025  47.820 -22.737  1.00  0.00    -0.375 N
HETATM   15  C7  UNL     1      49.425  47.714 -21.541  1.00  0.00     0.096 A
ATOM     16  H5  UNL     1      49.694  48.397 -23.511  1.00  0.00     0.164 HD
ENDBRANCH  10  11
ENDBRANCH   7  10
BRANCH   1  17
HETATM   17  N1  UNL     1      49.378  47.060 -15.774  1.00  0.00    -0.345 N
ATOM     18  H12 UNL     1      49.869  46.199 -16.016  1.00  0.00     0.172 HD
ATOM     19  H11 UNL     1      49.008  47.258 -14.845  1.00  0.00     0.172 HD
ENDBRANCH   1  17
TORSDOF 4
ENDMDL