MODEL 1
REMARK VINA RESULT: -5.372655979      0.000      0.000
REMARK  8 active torsions:
REMARK  status: ('A' for Active; 'I' for Inactive)
REMARK    1  A    between atoms: N1_1  and  C1_5
REMARK    2  A    between atoms: C1_5  and  C2_6
REMARK    3  A    between atoms: C2_6  and  N2_7
REMARK    4  A    between atoms: N2_7  and  C3_9
REMARK    5  A    between atoms: C6_14  and  N4_15
REMARK    6  A    between atoms: N4_15  and  C7_17
REMARK    7  A    between atoms: C7_17  and  C8_18
REMARK    8  A    between atoms: C8_18  and  N5_19
ROOT
HETATM    1  C3  UNL     1      48.932  47.612 -20.243  1.00  0.00     0.118 A
HETATM    2  C4  UNL     1      50.034  47.290 -21.016  1.00  0.00     0.066 A
HETATM    3  C5  UNL     1      50.879  46.290 -20.581  1.00  0.00     0.110 A
HETATM    4  N3  UNL     1      50.642  45.638 -19.429  1.00  0.00    -0.202 N
ATOM      5  H3  UNL     1      51.278  44.903 -19.121  1.00  0.00     0.183 HD
HETATM    6  C6  UNL     1      49.581  45.948 -18.687  1.00  0.00     0.679 A
HETATM    7  N6  UNL     1      48.753  46.926 -19.110  1.00  0.00    -0.177 N
ATOM      8  H6  UNL     1      47.945  47.155 -18.532  1.00  0.00     0.185 HD
ENDROOT
BRANCH   1   9
HETATM    9  N2  UNL     1      48.099  48.547 -20.604  1.00  0.00    -0.374 N
ATOM     10  H2  UNL     1      47.102  48.332 -20.596  1.00  0.00     0.161 HD
BRANCH   9  11
HETATM   11  C2  UNL     1      48.504  49.858 -21.012  1.00  0.00     0.148 C
BRANCH  11  12
HETATM   12  C1  UNL     1      49.143  50.663 -19.903  1.00  0.00     0.249 C
BRANCH  12  13
HETATM   13  N1  UNL     1      48.290  51.791 -19.592  1.00  0.00    -0.078 N
ATOM     14  H13 UNL     1      48.671  52.672 -19.936  1.00  0.00     0.274 HD
ATOM     15  H12 UNL     1      47.427  51.787 -20.134  1.00  0.00     0.274 HD
ATOM     16  H11 UNL     1      48.119  51.808 -18.587  1.00  0.00     0.274 HD
ENDBRANCH  12  13
ENDBRANCH  11  12
ENDBRANCH   9  11
ENDBRANCH   1   9
BRANCH   6  17
HETATM   17  N4  UNL     1      49.363  45.316 -17.585  1.00  0.00    -0.224 N
ATOM     18  H4  UNL     1      48.693  44.548 -17.621  1.00  0.00     0.177 HD
BRANCH  17  19
HETATM   19  C7  UNL     1      49.965  45.582 -16.324  1.00  0.00     0.165 C
BRANCH  19  20
HETATM   20  C8  UNL     1      50.184  47.053 -16.060  1.00  0.00     0.249 C
BRANCH  20  21
HETATM   21  N5  UNL     1      48.990  47.744 -15.693  1.00  0.00    -0.078 N
ATOM     22  H53 UNL     1      48.657  48.325 -16.462  1.00  0.00     0.274 HD
ATOM     23  H52 UNL     1      48.205  47.097 -15.618  1.00  0.00     0.274 HD
ATOM     24  H51 UNL     1      49.090  48.294 -14.840  1.00  0.00     0.274 HD
ENDBRANCH  20  21
ENDBRANCH  19  20
ENDBRANCH  17  19
ENDBRANCH   6  17
TORSDOF 8
ENDMDL