MODEL 2
REMARK VINA RESULT: -5.136344645      1.991      5.496
REMARK  7 active torsions:
REMARK  status: ('A' for Active; 'I' for Inactive)
REMARK    1  A    between atoms: C3_6  and  N3_7
REMARK    2  A    between atoms: C4_11  and  N4_12
REMARK    3  A    between atoms: N4_12  and  C5_15
REMARK    4  A    between atoms: C5_15  and  C6_16
REMARK    5  A    between atoms: C6_16  and  C7_17
REMARK    6  A    between atoms: C7_17  and  C8_18
REMARK    7  A    between atoms: C8_18  and  N5_19
ROOT
HETATM    1  C1  UNL     1      51.421  49.589 -22.136  1.00  0.00     0.117 C
HETATM    2  N1  UNL     1      51.223  48.363 -21.437  1.00  0.00    -0.282 NA
HETATM    3  C2  UNL     1      50.068  47.662 -21.894  1.00  0.00     0.147 C
HETATM    4  N2  UNL     1      48.963  47.890 -21.312  1.00  0.00    -0.361 N
ATOM      5  H2  UNL     1      48.152  47.376 -21.657  1.00  0.00     0.161 HD
HETATM    6  C3  UNL     1      48.734  48.785 -20.228  1.00  0.00     0.314 C
HETATM    7  C4  UNL     1      49.986  49.253 -19.538  1.00  0.00     0.248 C
HETATM    8  C9  UNL     1      51.171  48.474 -20.000  1.00  0.00     0.132 C
ENDROOT
BRANCH   7   9
HETATM    9  N4  UNL     1      49.858  49.154 -18.093  1.00  0.00    -0.066 N
ATOM     10  H42 UNL     1      50.189  49.991 -17.615  1.00  0.00     0.277 HD
ATOM     11  H41 UNL     1      48.886  49.189 -17.785  1.00  0.00     0.277 HD
BRANCH   9  12
HETATM   12  C5  UNL     1      50.530  47.969 -17.647  1.00  0.00     0.233 C
BRANCH  12  13
HETATM   13  C6  UNL     1      49.963  47.404 -16.376  1.00  0.00     0.029 C
BRANCH  13  14
HETATM   14  C7  UNL     1      49.833  45.921 -16.358  1.00  0.00     0.029 C
BRANCH  14  15
HETATM   15  C8  UNL     1      50.939  45.174 -15.696  1.00  0.00     0.229 C
BRANCH  15  16
HETATM   16  N5  UNL     1      50.576  44.840 -14.354  1.00  0.00    -0.079 N
ATOM     17  H53 UNL     1      51.386  44.573 -13.795  1.00  0.00     0.274 HD
ATOM     18  H52 UNL     1      50.290  45.661 -13.820  1.00  0.00     0.274 HD
ATOM     19  H51 UNL     1      49.857  44.117 -14.353  1.00  0.00     0.274 HD
ENDBRANCH  15  16
ENDBRANCH  14  15
ENDBRANCH  13  14
ENDBRANCH  12  13
ENDBRANCH   9  12
ENDBRANCH   7   9
BRANCH   6  20
HETATM   20  N3  UNL     1      48.020  49.952 -20.756  1.00  0.00    -0.056 N
ATOM     21  H33 UNL     1      48.648  50.682 -21.092  1.00  0.00     0.276 HD
ATOM     22  H32 UNL     1      47.549  49.761 -21.641  1.00  0.00     0.276 HD
ATOM     23  H31 UNL     1      47.382  50.280 -20.031  1.00  0.00     0.276 HD
ENDBRANCH   6  20
TORSDOF 7
ENDMDL