MODEL 1
REMARK VINA RESULT: -6.205035642      0.000      0.000
REMARK  7 active torsions:
REMARK  status: ('A' for Active; 'I' for Inactive)
REMARK    1  A    between atoms: N1_1  and  C1_5
REMARK    2  A    between atoms: C1_5  and  C2_6
REMARK    3  A    between atoms: C2_6  and  C3_7
REMARK    4  A    between atoms: C2_6  and  O2_10
REMARK    5  A    between atoms: C3_7  and  O1_8
REMARK    6  A    between atoms: O2_10  and  C4_11
REMARK    7  A    between atoms: C4_11  and  N2_12
ROOT
HETATM    1  C2  UNL     1      49.387  48.495 -20.071  1.00  0.00     0.172 C
ENDROOT
BRANCH   1   2
HETATM    2  C1  UNL     1      49.232  49.865 -20.764  1.00  0.00     0.263 C
BRANCH   2   3
HETATM    3  N1  UNL     1      47.921  50.418 -20.489  1.00  0.00    -0.077 N
ATOM      4  H13 UNL     1      47.174  49.804 -20.814  1.00  0.00     0.274 HD
ATOM      5  H12 UNL     1      47.703  50.405 -19.493  1.00  0.00     0.274 HD
ATOM      6  H11 UNL     1      47.844  51.355 -20.885  1.00  0.00     0.274 HD
ENDBRANCH   2   3
ENDBRANCH   1   2
BRANCH   1   7
HETATM    7  C3  UNL     1      48.289  47.634 -20.584  1.00  0.00     0.197 C
BRANCH   7   8
HETATM    8  O1  UNL     1      47.134  47.790 -19.813  1.00  0.00    -0.398 OA
ATOM      9  H1  UNL     1      46.543  48.417 -20.213  1.00  0.00     0.209 HD
ENDBRANCH   7   8
ENDBRANCH   1   7
BRANCH   1  10
HETATM   10  O2  UNL     1      49.515  48.707 -18.777  1.00  0.00    -0.363 OA
BRANCH  10  11
HETATM   11  C4  UNL     1      50.504  48.299 -17.991  1.00  0.00     0.299 C
BRANCH  11  12
HETATM   12  N2  UNL     1      50.489  46.883 -17.604  1.00  0.00    -0.324 N
HETATM   13  C5  UNL     1      51.127  45.949 -18.305  1.00  0.00     0.094 A
HETATM   14  C6  UNL     1      51.071  44.634 -17.894  1.00  0.00     0.017 A
HETATM   15  C7  UNL     1      50.377  44.247 -16.781  1.00  0.00     0.005 A
HETATM   16  C8  UNL     1      49.716  45.213 -16.055  1.00  0.00     0.045 A
HETATM   17  C9  UNL     1      49.786  46.523 -16.485  1.00  0.00     0.119 A
HETATM   18  N3  UNL     1      49.100  47.487 -15.720  1.00  0.00    -0.083 NA
ENDBRANCH  11  12
ENDBRANCH  10  11
ENDBRANCH   1  10
TORSDOF 7
ENDMDL