MODEL 5
REMARK VINA RESULT: -5.224304914      1.086      1.145
REMARK  6 active torsions:
REMARK  status: ('A' for Active; 'I' for Inactive)
REMARK    1  A    between atoms: N1_1  and  C1_5
REMARK    2  A    between atoms: C1_5  and  C2_6
REMARK    3  A    between atoms: C2_6  and  C3_7
REMARK    4  A    between atoms: C3_7  and  N2_8
REMARK       I    between atoms: N2_8  and  C4_10
REMARK    5  A    between atoms: N4_12  and  C5_14
REMARK    6  A    between atoms: C5_14  and  C6_15
ROOT
HETATM    1  N2  UNL     1      49.181  47.699 -18.210  1.00  0.00    -0.365 N
ATOM      2  H2  UNL     1      48.678  48.587 -18.182  1.00  0.00     0.162 HD
HETATM    3  C4  UNL     1      49.633  47.142 -16.991  1.00  0.00     0.184 C
HETATM    4  N3  UNL     1      49.204  47.661 -15.744  1.00  0.00    -0.064 NA
HETATM    5  N4  UNL     1      50.467  46.129 -17.046  1.00  0.00    -0.363 N
ATOM      6  H4  UNL     1      50.767  45.768 -17.951  1.00  0.00     0.162 HD
ENDROOT
BRANCH   1   7
HETATM    7  C3  UNL     1      49.396  47.071 -19.488  1.00  0.00     0.124 C
BRANCH   7   8
HETATM    8  C2  UNL     1      48.496  47.685 -20.506  1.00  0.00     0.047 C
BRANCH   8   9
HETATM    9  C1  UNL     1      48.966  49.054 -20.948  1.00  0.00     0.231 C
BRANCH   9  10
HETATM   10  N1  UNL     1      48.018  50.097 -20.645  1.00  0.00    -0.079 N
ATOM     11  H13 UNL     1      47.722  50.050 -19.671  1.00  0.00     0.274 HD
ATOM     12  H12 UNL     1      48.472  51.011 -20.636  1.00  0.00     0.274 HD
ATOM     13  H11 UNL     1      47.213  50.096 -21.271  1.00  0.00     0.274 HD
ENDBRANCH   9  10
ENDBRANCH   8   9
ENDBRANCH   7   8
ENDBRANCH   1   7
BRANCH   5  14
HETATM   14  C5  UNL     1      50.965  45.518 -15.822  1.00  0.00     0.149 C
BRANCH  14  15
HETATM   15  C6  UNL     1      51.268  44.072 -16.130  1.00  0.00     0.117 C
HETATM   16  C7  UNL     1      50.057  43.351 -16.692  1.00  0.00     0.147 C
HETATM   17  N5  UNL     1      50.305  41.989 -16.263  1.00  0.00    -0.384 N
HETATM   18  C8  UNL     1      51.134  41.961 -15.272  1.00  0.00     0.171 C
ATOM     19  H5  UNL     1      49.883  41.163 -16.686  1.00  0.00     0.160 HD
HETATM   20  N6  UNL     1      51.527  43.304 -14.935  1.00  0.00    -0.379 N
ATOM     21  H6  UNL     1      51.906  43.639 -14.049  1.00  0.00     0.160 HD
ENDBRANCH  14  15
ENDBRANCH   5  14
TORSDOF 6
ENDMDL