MODEL 1
REMARK VINA RESULT: -6.892313895      0.000      0.000
REMARK  5 active torsions:
REMARK  status: ('A' for Active; 'I' for Inactive)
REMARK    1  A    between atoms: C2_2  and  C4_4
REMARK    2  A    between atoms: C5_5  and  N1_6
REMARK    3  A    between atoms: C6_10  and  O1_11
REMARK       I    between atoms: N2_14  and  C8_15
REMARK       I    between atoms: C8_15  and  N3_17
REMARK    4  A    between atoms: C9_19  and  C10_20
REMARK    5  A    between atoms: C10_20  and  C11_21
REMARK       I    between atoms: N4_24  and  C14_25
ROOT
HETATM    1  C4  UNL     1      -5.522   8.344   7.998  1.00  0.00     0.125 C
HETATM    2  C5  UNL     1      -5.003   9.766   7.866  1.00  0.00     0.236 C
HETATM    3  C6  UNL     1      -6.023  10.591   8.611  1.00  0.00     0.168 C
HETATM    4  C7  UNL     1      -6.701   9.646   9.526  1.00  0.00     0.162 C
HETATM    5  N2  UNL     1      -6.175   8.323   9.283  1.00  0.00    -0.324 N
HETATM    6  C8  UNL     1      -6.290   7.244  10.178  1.00  0.00     0.322 C
HETATM    7  O2  UNL     1      -5.777   6.127   9.891  1.00  0.00    -0.247 OA
HETATM    8  N3  UNL     1      -6.967   7.330  11.426  1.00  0.00    -0.323 N
ATOM      9  H3  UNL     1      -7.946   7.618  11.433  1.00  0.00     0.169 HD
HETATM   10  C9  UNL     1      -6.398   7.061  12.543  1.00  0.00     0.066 C
ENDROOT
BRANCH   1  11
HETATM   11  C2  UNL     1      -6.427   7.979   6.853  1.00  0.00     0.002 C
HETATM   12  C1  UNL     1      -5.940   8.588   5.542  1.00  0.00     0.011 C
HETATM   13  C3  UNL     1      -6.478   6.488   6.616  1.00  0.00     0.011 C
ENDBRANCH   1  11
BRANCH  10  14
HETATM   14  C10 UNL     1      -5.002   6.637  12.681  1.00  0.00     0.049 C
BRANCH  14  15
HETATM   15  C11 UNL     1      -4.895   5.344  13.418  1.00  0.00    -0.007 C
HETATM   16  C12 UNL     1      -6.206   5.012  14.117  1.00  0.00     0.025 C
HETATM   17  C13 UNL     1      -6.106   3.641  14.706  1.00  0.00     0.126 C
HETATM   18  N4  UNL     1      -4.895   3.441  15.488  1.00  0.00    -0.356 N
HETATM   19  C14 UNL     1      -4.901   2.506  16.545  1.00  0.00     0.183 C
HETATM   20  C15 UNL     1      -3.668   4.163  15.235  1.00  0.00     0.126 C
HETATM   21  N5  UNL     1      -5.763   2.586  17.485  1.00  0.00    -0.374 N
HETATM   22  N6  UNL     1      -3.947   1.468  16.569  1.00  0.00    -0.064 NA
ATOM     23  H52 UNL     1      -6.453   3.337  17.468  1.00  0.00     0.158 HD
ATOM     24  H51 UNL     1      -5.767   1.910  18.249  1.00  0.00     0.158 HD
HETATM   25  C16 UNL     1      -3.859   5.460  14.524  1.00  0.00     0.025 C
ENDBRANCH  14  15
ENDBRANCH  10  14
BRANCH   2  26
HETATM   26  N1  UNL     1      -3.723   9.876   8.519  1.00  0.00    -0.070 N
ATOM     27  H13 UNL     1      -3.418  10.845   8.609  1.00  0.00     0.274 HD
ATOM     28  H12 UNL     1      -3.776   9.646   9.511  1.00  0.00     0.274 HD
ATOM     29  H11 UNL     1      -3.037   9.302   8.027  1.00  0.00     0.274 HD
ENDBRANCH   2  26
BRANCH   3  30
HETATM   30  O1  UNL     1      -6.974  11.115   7.732  1.00  0.00    -0.392 OA
ATOM     31  H1  UNL     1      -7.527  10.426   7.383  1.00  0.00     0.210 HD
ENDBRANCH   3  30
TORSDOF 5
ENDMDL