MODEL 4
REMARK VINA RESULT: -5.886934675      2.182      6.084
REMARK  8 active torsions:
REMARK  status: ('A' for Active; 'I' for Inactive)
REMARK       I    between atoms: C2_4  and  N2_5
REMARK       I    between atoms: C2_4  and  N7_24
REMARK    1  A    between atoms: N2_5  and  N3_7
REMARK    2  A    between atoms: N3_7  and  C3_9
REMARK    3  A    between atoms: C3_9  and  N4_11
REMARK    4  A    between atoms: N4_11  and  C4_13
REMARK    5  A    between atoms: C4_13  and  C5_14
REMARK    6  A    between atoms: C5_14  and  N5_16
REMARK    7  A    between atoms: C6_18  and  C7_19
REMARK    8  A    between atoms: C7_19  and  N6_20
ROOT
HETATM    1  C3  UNL     1      -2.513   1.408  11.358  1.00  0.00     0.187 C
HETATM    2  S1  UNL     1      -3.094  -0.006  10.742  1.00  0.00    -0.040 SA
ENDROOT
BRANCH   1   3
HETATM    3  N3  UNL     1      -3.237   2.136  12.331  1.00  0.00    -0.262 N
ATOM      4  H3  UNL     1      -3.023   3.117  12.513  1.00  0.00     0.190 HD
BRANCH   3   5
HETATM    5  N2  UNL     1      -4.249   1.488  13.035  1.00  0.00    -0.130 N
HETATM    6  C2  UNL     1      -4.616   1.827  14.381  1.00  0.00     0.690 C
HETATM    7  N1  UNL     1      -4.582   0.869  15.227  1.00  0.00    -0.229 N
HETATM    8  N7  UNL     1      -4.984   3.162  14.685  1.00  0.00    -0.217 N
HETATM    9  C1  UNL     1      -4.903   0.961  16.618  1.00  0.00     0.165 C
ATOM     10  H1  UNL     1      -4.298  -0.047  14.878  1.00  0.00     0.177 HD
HETATM   11  C8  UNL     1      -4.103   3.939  15.521  1.00  0.00     0.141 C
HETATM   12  C12 UNL     1      -6.199   3.683  14.159  1.00  0.00     0.141 C
HETATM   13  C9  UNL     1      -3.946   5.308  14.879  1.00  0.00     0.020 C
HETATM   14  C10 UNL     1      -5.320   5.934  14.862  1.00  0.00     0.003 C
HETATM   15  C11 UNL     1      -6.265   5.160  14.006  1.00  0.00     0.020 C
ATOM     16  H2  UNL     1      -4.754   0.733  12.570  1.00  0.00     0.205 HD
ENDBRANCH   3   5
ENDBRANCH   1   3
BRANCH   1  17
HETATM   17  N4  UNL     1      -1.273   1.934  10.907  1.00  0.00    -0.360 N
ATOM     18  H4  UNL     1      -0.462   1.880  11.522  1.00  0.00     0.162 HD
BRANCH  17  19
HETATM   19  C4  UNL     1      -1.124   2.542   9.606  1.00  0.00     0.191 C
BRANCH  19  20
HETATM   20  C5  UNL     1      -1.338   3.996   9.737  1.00  0.00     0.095 C
HETATM   21  S2  UNL     1      -2.751   4.650   9.292  1.00  0.00    -0.064 SA
BRANCH  20  22
HETATM   22  N5  UNL     1      -0.300   4.796  10.231  1.00  0.00    -0.361 N
HETATM   23  C6  UNL     1      -0.175   5.391  11.331  1.00  0.00     0.088 C
ATOM     24  H5  UNL     1       0.486   4.916   9.591  1.00  0.00     0.165 HD
BRANCH  23  25
HETATM   25  C7  UNL     1      -1.136   5.404  12.448  1.00  0.00     0.274 C
BRANCH  25  26
HETATM   26  N6  UNL     1      -0.844   4.336  13.393  1.00  0.00    -0.075 N
ATOM     27  H63 UNL     1      -0.094   3.731  13.058  1.00  0.00     0.274 HD
ATOM     28  H62 UNL     1      -0.391   4.691  14.235  1.00  0.00     0.274 HD
ATOM     29  H61 UNL     1      -1.687   3.806  13.612  1.00  0.00     0.274 HD
ENDBRANCH  25  26
ENDBRANCH  23  25
ENDBRANCH  20  22
ENDBRANCH  19  20
ENDBRANCH  17  19
ENDBRANCH   1  17
TORSDOF 8
ENDMDL