MODEL 2
REMARK VINA RESULT: -6.709236676      2.225      2.685
REMARK  4 active torsions:
REMARK  status: ('A' for Active; 'I' for Inactive)
REMARK    1  A    between atoms: C2_2  and  C3_3
REMARK    2  A    between atoms: C3_3  and  N1_4
REMARK       I    between atoms: N1_4  and  C4_6
REMARK       I    between atoms: C4_6  and  N2_8
REMARK    3  A    between atoms: C8_12  and  O2_13
REMARK    4  A    between atoms: C14_20  and  N3_21
ROOT
HETATM    1  N1  UNL     1      -0.685   7.600  11.302  1.00  0.00    -0.343 N
ATOM      2  H1  UNL     1      -1.529   8.089  11.003  1.00  0.00     0.164 HD
HETATM    3  C4  UNL     1      -0.821   6.422  12.064  1.00  0.00     0.318 C
HETATM    4  O1  UNL     1       0.212   5.825  12.432  1.00  0.00    -0.247 OA
HETATM    5  N2  UNL     1      -2.097   5.929  12.402  1.00  0.00    -0.331 N
HETATM    6  C5  UNL     1      -2.243   4.716  13.193  1.00  0.00     0.132 C
HETATM    7  C6  UNL     1      -3.301   3.779  12.674  1.00  0.00     0.013 C
HETATM    8  C7  UNL     1      -3.835   4.405  11.374  1.00  0.00     0.046 C
HETATM    9  C8  UNL     1      -4.431   5.696  11.966  1.00  0.00     0.078 C
HETATM   10  C9  UNL     1      -3.258   6.677  11.933  1.00  0.00     0.165 C
HETATM   11  C10 UNL     1      -4.756   5.427  13.387  1.00  0.00     0.028 C
HETATM   12  C11 UNL     1      -6.173   5.655  13.794  1.00  0.00     0.008 C
HETATM   13  C12 UNL     1      -6.401   5.128  15.158  1.00  0.00     0.002 C
HETATM   14  C13 UNL     1      -5.579   4.041  15.682  1.00  0.00     0.025 C
HETATM   15  C14 UNL     1      -4.573   3.377  14.819  1.00  0.00     0.088 C
HETATM   16  C16 UNL     1      -4.586   3.909  13.453  1.00  0.00     0.021 C
ENDROOT
BRANCH   1  17
HETATM   17  C3  UNL     1       0.608   8.148  10.927  1.00  0.00     0.124 C
BRANCH  17  18
HETATM   18  C2  UNL     1       0.961   9.322  11.775  1.00  0.00     0.015 C
HETATM   19  C1  UNL     1       1.785   8.964  12.973  1.00  0.00     0.006 C
ENDBRANCH  17  18
ENDBRANCH   1  17
BRANCH   9  20
HETATM   20  O2  UNL     1      -5.486   6.144  11.202  1.00  0.00    -0.388 OA
ATOM     21  H2  UNL     1      -5.398   7.072  11.015  1.00  0.00     0.210 HD
ENDBRANCH   9  20
BRANCH  15  22
HETATM   22  N3  UNL     1      -4.835   1.960  14.772  1.00  0.00    -0.362 N
HETATM   23  C15 UNL     1      -4.476   1.083  15.621  1.00  0.00     0.197 C
HETATM   24  N4  UNL     1      -4.858  -0.275  15.353  1.00  0.00    -0.067 NA
HETATM   25  N5  UNL     1      -3.737   1.281  16.809  1.00  0.00    -0.067 NA
ATOM     26  H3  UNL     1      -5.366   1.624  13.969  1.00  0.00     0.162 HD
ENDBRANCH  15  22
TORSDOF 4
ENDMDL