MODEL 2
REMARK VINA RESULT: -6.496758558      1.994      2.614
REMARK  5 active torsions:
REMARK  status: ('A' for Active; 'I' for Inactive)
REMARK       I    between atoms: C2_2  and  N1_4
REMARK    1  A    between atoms: N1_4  and  C3_6
REMARK    2  A    between atoms: C3_6  and  C4_7
REMARK       I    between atoms: C4_7  and  N2_9
REMARK    3  A    between atoms: N2_9  and  C5_11
REMARK    4  A    between atoms: C8_14  and  O3_15
REMARK       I    between atoms: N3_20  and  C12_21
REMARK       I    between atoms: C12_21  and  N5_25
REMARK    5  A    between atoms: N5_25  and  C13_27
ROOT
HETATM    1  C5  UNL     1      -3.245   3.440  12.823  1.00  0.00     0.092 C
HETATM    2  C6  UNL     1      -2.982   4.844  12.369  1.00  0.00     0.054 C
HETATM    3  C7  UNL     1      -2.406   4.820  10.949  1.00  0.00     0.132 C
HETATM    4  C8  UNL     1      -3.398   4.180   9.996  1.00  0.00     0.142 C
HETATM    5  C9  UNL     1      -3.552   2.754  10.419  1.00  0.00     0.042 C
HETATM    6  C10 UNL     1      -2.909   2.454  11.749  1.00  0.00     0.029 C
HETATM    7  C11 UNL     1      -1.398   2.613  11.502  1.00  0.00     0.148 C
HETATM    8  N3  UNL     1      -1.237   3.964  11.002  1.00  0.00    -0.211 N
HETATM    9  C12 UNL     1      -0.003   4.507  10.558  1.00  0.00     0.670 C
HETATM   10  N4  UNL     1       0.968   4.531  11.407  1.00  0.00    -0.235 N
ATOM     11  H41 UNL     1       1.855   4.921  11.088  1.00  0.00     0.174 HD
ATOM     12  H42 UNL     1       0.880   4.182  12.361  1.00  0.00     0.174 HD
HETATM   13  N5  UNL     1       0.119   4.989   9.239  1.00  0.00    -0.218 N
ATOM     14  H5  UNL     1      -0.727   5.296   8.760  1.00  0.00     0.178 HD
ENDROOT
BRANCH   1  15
HETATM   15  N2  UNL     1      -4.544   3.254  13.406  1.00  0.00    -0.355 N
HETATM   16  C4  UNL     1      -4.799   3.345  14.801  1.00  0.00     0.235 C
HETATM   17  O2  UNL     1      -3.831   3.603  15.584  1.00  0.00    -0.272 OA
ATOM     18  H2  UNL     1      -5.327   3.046  12.786  1.00  0.00     0.162 HD
BRANCH  16  19
HETATM   19  C3  UNL     1      -6.115   3.159  15.415  1.00  0.00     0.225 C
BRANCH  19  20
HETATM   20  N1  UNL     1      -6.126   3.360  16.830  1.00  0.00    -0.353 N
HETATM   21  C2  UNL     1      -6.194   2.234  17.687  1.00  0.00     0.213 C
HETATM   22  C1  UNL     1      -6.212   2.340  19.162  1.00  0.00     0.117 C
HETATM   23  O1  UNL     1      -6.244   1.088  17.184  1.00  0.00    -0.274 OA
ATOM     24  H1  UNL     1      -6.084   4.303  17.219  1.00  0.00     0.162 HD
ENDBRANCH  19  20
ENDBRANCH  16  19
ENDBRANCH   1  15
BRANCH   4  25
HETATM   25  O3  UNL     1      -4.595   4.888  10.009  1.00  0.00    -0.393 OA
ATOM     26  H3  UNL     1      -4.930   4.976   9.124  1.00  0.00     0.210 HD
ENDBRANCH   4  25
BRANCH  13  27
HETATM   27  C13 UNL     1       1.368   5.073   8.529  1.00  0.00     0.036 C
HETATM   28  C14 UNL     1       2.221   3.860   8.823  1.00  0.00     0.038 C
HETATM   29  C15 UNL     1       1.149   5.079   7.020  1.00  0.00     0.038 C
HETATM   30  C16 UNL     1       2.104   6.350   8.936  1.00  0.00     0.038 C
ENDBRANCH  13  27
TORSDOF 5
ENDMDL