MODEL 2
REMARK VINA RESULT: -7.170267468      0.772      1.032
REMARK  6 active torsions:
REMARK  status: ('A' for Active; 'I' for Inactive)
REMARK    1  A    between atoms: C2_3  and  N2_4
REMARK    2  A    between atoms: C8_10  and  N3_11
REMARK    3  A    between atoms: N3_11  and  C9_13
REMARK    4  A    between atoms: C10_18  and  N6_19
REMARK    5  A    between atoms: C14_27  and  C15_28
REMARK    6  A    between atoms: C15_28  and  O1_29
ROOT
HETATM    1  N1  UNL     1      -3.459   2.234  10.228  1.00  0.00    -0.196 NA
HETATM    2  C1  UNL     1      -3.848   2.545  11.275  1.00  0.00     0.087 C
HETATM    3  C2  UNL     1      -4.362   2.931  12.583  1.00  0.00     0.363 C
ENDROOT
BRANCH   3   4
HETATM    4  N2  UNL     1      -3.871   4.257  13.005  1.00  0.00    -0.028 N
HETATM    5  C3  UNL     1      -2.454   4.118  13.139  1.00  0.00     0.242 C
HETATM    6  C4  UNL     1      -1.641   5.279  12.669  1.00  0.00     0.028 C
HETATM    7  C5  UNL     1      -2.102   6.614  13.054  1.00  0.00     0.007 C
HETATM    8  C6  UNL     1      -3.485   6.759  13.539  1.00  0.00     0.002 C
HETATM    9  C7  UNL     1      -3.857   5.917  14.733  1.00  0.00     0.068 C
HETATM   10  C14 UNL     1      -4.495   6.568  12.457  1.00  0.00     0.009 C
HETATM   11  C8  UNL     1      -4.401   4.585  14.328  1.00  0.00     0.217 C
HETATM   12  C11 UNL     1      -5.907   4.593  14.342  1.00  0.00     0.062 C
HETATM   13  C12 UNL     1      -6.571   5.492  13.378  1.00  0.00     0.005 C
HETATM   14  C13 UNL     1      -5.861   6.774  13.071  1.00  0.00     0.014 C
HETATM   15  C16 UNL     1      -4.310   5.143  11.973  1.00  0.00     0.253 C
BRANCH  11  16
HETATM   16  N3  UNL     1      -3.961   3.575  15.213  1.00  0.00    -0.189 N
ATOM     17  H3  UNL     1      -2.953   3.423  15.206  1.00  0.00     0.180 HD
BRANCH  16  18
HETATM   18  C9  UNL     1      -4.594   2.825  16.012  1.00  0.00     0.709 A
HETATM   19  N4  UNL     1      -5.433   3.331  16.987  1.00  0.00    -0.117 N
HETATM   20  N5  UNL     1      -5.940   2.341  17.649  1.00  0.00    -0.118 N
ATOM     21  H4  UNL     1      -5.621   4.320  17.155  1.00  0.00     0.206 HD
HETATM   22  C10 UNL     1      -5.478   1.203  17.161  1.00  0.00     0.705 A
ATOM     23  H5  UNL     1      -6.594   2.427  18.428  1.00  0.00     0.206 HD
HETATM   24  N7  UNL     1      -4.646   1.495  16.151  1.00  0.00    -0.020 N
ATOM     25  H7  UNL     1      -4.139   0.816  15.582  1.00  0.00     0.203 HD
BRANCH  22  26
HETATM   26  N6  UNL     1      -5.756  -0.015  17.564  1.00  0.00    -0.233 N
ATOM     27  H62 UNL     1      -5.615  -0.353  18.516  1.00  0.00     0.174 HD
ATOM     28  H61 UNL     1      -6.140  -0.782  17.012  1.00  0.00     0.174 HD
ENDBRANCH  22  26
ENDBRANCH  16  18
ENDBRANCH  11  16
BRANCH  10  29
HETATM   29  C15 UNL     1      -4.358   7.505  11.302  1.00  0.00     0.175 C
BRANCH  29  30
HETATM   30  O1  UNL     1      -5.371   8.484  11.436  1.00  0.00    -0.400 OA
ATOM     31  H1  UNL     1      -5.109   9.231  10.913  1.00  0.00     0.209 HD
ENDBRANCH  29  30
ENDBRANCH  10  29
ENDBRANCH   3   4
TORSDOF 6
ENDMDL