MODEL 4
REMARK VINA RESULT: -6.729426334      2.383      7.297
REMARK  4 active torsions:
REMARK  status: ('A' for Active; 'I' for Inactive)
REMARK       I    between atoms: C1_4  and  N3_6
REMARK       I    between atoms: N4_9  and  C4_10
REMARK       I    between atoms: C4_10  and  N5_12
REMARK    1  A    between atoms: N5_12  and  C5_14
REMARK    2  A    between atoms: C7_16  and  C8_17
REMARK    3  A    between atoms: C8_17  and  C9_18
REMARK    4  A    between atoms: C9_18  and  N6_19
ROOT
HETATM    1  C5  UNL     1      -2.489   2.976  11.814  1.00  0.00     0.035 C
HETATM    2  C6  UNL     1      -3.092   1.712  11.309  1.00  0.00     0.036 C
HETATM    3  C7  UNL     1      -2.446   1.359   9.987  1.00  0.00    -0.006 C
HETATM    4  C10 UNL     1      -1.394   2.306   9.550  1.00  0.00    -0.002 C
HETATM    5  C11 UNL     1      -1.794   3.757   9.604  1.00  0.00    -0.007 C
HETATM    6  C12 UNL     1      -0.350   4.048  10.044  1.00  0.00     0.010 C
HETATM    7  C13 UNL     1      -0.379   2.631  10.613  1.00  0.00    -0.007 C
HETATM    8  C14 UNL     1      -0.988   2.695  11.967  1.00  0.00     0.036 C
HETATM    9  C15 UNL     1      -2.659   4.083  10.792  1.00  0.00     0.036 C
ENDROOT
BRANCH   1  10
HETATM   10  N5  UNL     1      -3.034   3.324  13.088  1.00  0.00    -0.334 N
HETATM   11  C4  UNL     1      -4.402   3.529  13.300  1.00  0.00     0.319 C
HETATM   12  N4  UNL     1      -4.946   3.867  14.546  1.00  0.00    -0.331 N
HETATM   13  O1  UNL     1      -5.226   3.412  12.335  1.00  0.00    -0.247 OA
HETATM   14  C3  UNL     1      -4.149   4.046  15.720  1.00  0.00     0.147 C
HETATM   15  C16 UNL     1      -6.380   4.039  14.697  1.00  0.00     0.147 C
HETATM   16  C2  UNL     1      -4.417   2.825  16.608  1.00  0.00     0.145 C
HETATM   17  N3  UNL     1      -5.867   2.715  16.721  1.00  0.00    -0.353 N
HETATM   18  C1  UNL     1      -6.348   1.666  17.540  1.00  0.00     0.184 C
HETATM   19  C17 UNL     1      -6.811   3.578  16.076  1.00  0.00     0.145 C
HETATM   20  N1  UNL     1      -5.916   1.572  18.742  1.00  0.00    -0.374 N
HETATM   21  N2  UNL     1      -7.289   0.740  17.033  1.00  0.00    -0.064 NA
ATOM     22  H12 UNL     1      -6.263   0.817  19.333  1.00  0.00     0.158 HD
ATOM     23  H11 UNL     1      -5.237   2.239  19.109  1.00  0.00     0.158 HD
ATOM     24  H5  UNL     1      -2.398   3.428  13.878  1.00  0.00     0.165 HD
ENDBRANCH   1  10
BRANCH   3  25
HETATM   25  C8  UNL     1      -1.902  -0.028  10.052  1.00  0.00     0.032 C
BRANCH  25  26
HETATM   26  C9  UNL     1      -2.849  -0.987  10.777  1.00  0.00     0.230 C
BRANCH  26  27
HETATM   27  N6  UNL     1      -2.099  -2.183  11.188  1.00  0.00    -0.079 N
ATOM     28  H63 UNL     1      -1.358  -2.420  10.529  1.00  0.00     0.274 HD
ATOM     29  H62 UNL     1      -1.515  -2.012  12.006  1.00  0.00     0.274 HD
ATOM     30  H61 UNL     1      -2.753  -2.953  11.331  1.00  0.00     0.274 HD
ENDBRANCH  26  27
ENDBRANCH  25  26
ENDBRANCH   3  25
TORSDOF 4
ENDMDL