MODEL 1
REMARK VINA RESULT: -6.323269931      0.000      0.000
REMARK  7 active torsions:
REMARK  status: ('A' for Active; 'I' for Inactive)
REMARK    1  A    between atoms: C1_2  and  N1_3
REMARK    2  A    between atoms: C1_2  and  N4_18
REMARK    3  A    between atoms: N1_3  and  C2_5
REMARK    4  A    between atoms: N2_8  and  C5_9
REMARK    5  A    between atoms: C5_9  and  N3_11
REMARK    6  A    between atoms: N3_11  and  C6_13
REMARK    7  A    between atoms: N4_18  and  C11_20
ROOT
HETATM    1  C2  UNL     1      -2.762   5.296  13.463  1.00  0.00     0.087 C
HETATM    2  C3  UNL     1      -1.266   5.048  13.182  1.00  0.00     0.045 C
HETATM    3  C4  UNL     1      -1.009   4.810  11.721  1.00  0.00     0.127 C
HETATM    4  N2  UNL     1      -1.971   3.847  11.234  1.00  0.00    -0.358 N
HETATM    5  C9  UNL     1      -3.387   4.067  11.466  1.00  0.00     0.127 C
HETATM    6  C10 UNL     1      -3.470   5.453  12.109  1.00  0.00     0.045 C
ENDROOT
BRANCH   1   7
HETATM    7  N1  UNL     1      -3.272   4.073  14.052  1.00  0.00    -0.363 N
ATOM      8  H1  UNL     1      -2.938   3.166  13.728  1.00  0.00     0.162 HD
BRANCH   7   9
HETATM    9  C1  UNL     1      -4.238   4.155  15.082  1.00  0.00     0.168 C
HETATM   10  S1  UNL     1      -5.169   5.492  15.246  1.00  0.00    -0.041 SA
BRANCH   9  11
HETATM   11  N4  UNL     1      -4.362   3.058  15.983  1.00  0.00    -0.361 N
ATOM     12  H4  UNL     1      -3.742   2.974  16.788  1.00  0.00     0.162 HD
BRANCH  11  13
HETATM   13  C11 UNL     1      -5.386   2.064  15.734  1.00  0.00     0.111 C
HETATM   14  C12 UNL     1      -6.553   2.354  16.655  1.00  0.00     0.054 C
HETATM   15  C13 UNL     1      -6.752   1.061  17.418  1.00  0.00     0.234 C
HETATM   16  N5  UNL     1      -5.478   0.405  17.362  1.00  0.00    -0.073 N
HETATM   17  C14 UNL     1      -4.845   0.722  16.118  1.00  0.00     0.257 C
ATOM     18  H52 UNL     1      -4.891   0.628  18.165  1.00  0.00     0.277 HD
ATOM     19  H51 UNL     1      -5.552  -0.601  17.515  1.00  0.00     0.277 HD
ENDBRANCH  11  13
ENDBRANCH   9  11
ENDBRANCH   7   9
ENDBRANCH   1   7
BRANCH   4  20
HETATM   20  C5  UNL     1      -1.574   2.661  10.514  1.00  0.00     0.170 C
HETATM   21  S2  UNL     1      -0.686   2.931   9.183  1.00  0.00    -0.041 SA
BRANCH  20  22
HETATM   22  N3  UNL     1      -1.972   1.404  10.968  1.00  0.00    -0.362 N
ATOM     23  H3  UNL     1      -1.554   1.109  11.851  1.00  0.00     0.162 HD
BRANCH  22  24
HETATM   24  C6  UNL     1      -2.875   0.473  10.385  1.00  0.00     0.084 A
HETATM   25  C7  UNL     1      -2.810  -0.929  10.992  1.00  0.00     0.027 A
HETATM   26  C8  UNL     1      -4.072  -0.109  11.020  1.00  0.00     0.027 A
ENDBRANCH  22  24
ENDBRANCH  20  22
ENDBRANCH   4  20
TORSDOF 7
ENDMDL