MODEL 2
REMARK VINA RESULT: -6.063749128      2.859      4.913
REMARK  4 active torsions:
REMARK  status: ('A' for Active; 'I' for Inactive)
REMARK    1  A    between atoms: C2_2  and  C5_5
REMARK       I    between atoms: N1_7  and  C7_8
REMARK    2  A    between atoms: C10_15  and  N4_16
REMARK       I    between atoms: N4_16  and  C11_18
REMARK       I    between atoms: C11_18  and  N5_20
REMARK    3  A    between atoms: C15_24  and  C16_25
REMARK    4  A    between atoms: C16_25  and  N6_26
ROOT
HETATM    1  C5  UNL     1      -3.044   6.480  12.864  1.00  0.00     0.034 C
HETATM    2  C6  UNL     1      -2.446   5.577  11.807  1.00  0.00     0.132 C
HETATM    3  N1  UNL     1      -3.515   5.327  10.860  1.00  0.00    -0.355 N
HETATM    4  C7  UNL     1      -3.501   4.258   9.940  1.00  0.00     0.183 C
HETATM    5  N2  UNL     1      -4.100   3.172  10.286  1.00  0.00    -0.374 N
ATOM      6  H21 UNL     1      -4.090   2.399   9.620  1.00  0.00     0.158 HD
ATOM      7  H22 UNL     1      -4.557   3.121  11.196  1.00  0.00     0.158 HD
HETATM    8  N3  UNL     1      -2.862   4.330   8.671  1.00  0.00    -0.064 NA
HETATM    9  C8  UNL     1      -4.641   6.230  10.871  1.00  0.00     0.127 C
HETATM   10  C9  UNL     1      -5.358   6.109  12.173  1.00  0.00     0.045 C
HETATM   11  C10 UNL     1      -4.385   6.037  13.320  1.00  0.00     0.094 C
ENDROOT
BRANCH  11  12
HETATM   12  N4  UNL     1      -4.423   4.716  13.874  1.00  0.00    -0.338 N
HETATM   13  C11 UNL     1      -5.326   4.298  14.890  1.00  0.00     0.319 C
HETATM   14  O1  UNL     1      -6.136   5.203  15.295  1.00  0.00    -0.247 OA
HETATM   15  N5  UNL     1      -5.343   2.991  15.424  1.00  0.00    -0.328 N
HETATM   16  C12 UNL     1      -4.447   1.938  14.997  1.00  0.00     0.128 C
HETATM   17  C15 UNL     1      -6.213   2.505  16.433  1.00  0.00     0.114 C
HETATM   18  C13 UNL     1      -4.886   0.697  15.766  1.00  0.00     0.022 C
HETATM   19  C14 UNL     1      -5.425   1.330  17.029  1.00  0.00     0.029 C
ATOM     20  H4  UNL     1      -3.758   4.030  13.516  1.00  0.00     0.164 HD
BRANCH  17  21
HETATM   21  C16 UNL     1      -6.498   3.427  17.573  1.00  0.00     0.254 C
BRANCH  21  22
HETATM   22  N6  UNL     1      -6.230   2.825  18.853  1.00  0.00    -0.077 N
ATOM     23  H63 UNL     1      -5.231   2.830  19.057  1.00  0.00     0.274 HD
ATOM     24  H62 UNL     1      -6.556   3.420  19.614  1.00  0.00     0.274 HD
ATOM     25  H61 UNL     1      -6.616   1.884  18.932  1.00  0.00     0.274 HD
ENDBRANCH  21  22
ENDBRANCH  17  21
ENDBRANCH  11  12
BRANCH   1  26
HETATM   26  C2  UNL     1      -2.039   6.707  13.963  1.00  0.00    -0.044 C
HETATM   27  C1  UNL     1      -0.998   7.668  13.369  1.00  0.00     0.015 C
HETATM   28  C3  UNL     1      -2.659   7.456  15.120  1.00  0.00     0.015 C
HETATM   29  C4  UNL     1      -1.309   5.480  14.407  1.00  0.00     0.015 C
ENDBRANCH   1  26
TORSDOF 4
ENDMDL