MODEL 3
REMARK VINA RESULT: -6.625249008      4.184      5.532
REMARK  3 active torsions:
REMARK  status: ('A' for Active; 'I' for Inactive)
REMARK       I    between atoms: C2_4  and  N2_5
REMARK       I    between atoms: C2_4  and  N3_13
REMARK    1  A    between atoms: N2_5  and  C3_7
REMARK    2  A    between atoms: C3_7  and  C4_8
REMARK       I    between atoms: N3_13  and  C8_15
REMARK       I    between atoms: C8_15  and  N4_17
REMARK    3  A    between atoms: N4_17  and  C9_19
ROOT
HETATM    1  C1  UNL     1      -5.498   3.795  14.946  1.00  0.00     0.165 C
HETATM    2  N1  UNL     1      -4.307   4.486  14.534  1.00  0.00    -0.231 N
ATOM      3  H1  UNL     1      -4.131   5.423  14.896  1.00  0.00     0.177 HD
HETATM    4  C2  UNL     1      -3.452   3.959  13.719  1.00  0.00     0.677 C
HETATM    5  N2  UNL     1      -3.648   2.657  13.186  1.00  0.00    -0.224 N
ATOM      6  H2  UNL     1      -3.098   1.867  13.521  1.00  0.00     0.177 HD
HETATM    7  N3  UNL     1      -2.315   4.725  13.379  1.00  0.00    -0.142 N
ATOM      8  H3  UNL     1      -2.189   5.659  13.770  1.00  0.00     0.189 HD
HETATM    9  C8  UNL     1      -1.355   4.188  12.494  1.00  0.00     0.334 C
HETATM   10  O2  UNL     1      -1.516   3.044  12.018  1.00  0.00    -0.246 OA
HETATM   11  N4  UNL     1      -0.183   4.947  12.128  1.00  0.00    -0.336 N
ATOM     12  H4  UNL     1      -0.050   5.881  12.514  1.00  0.00     0.164 HD
ENDROOT
BRANCH   5  13
HETATM   13  C3  UNL     1      -4.635   2.482  12.168  1.00  0.00     0.170 C
BRANCH  13  14
HETATM   14  C4  UNL     1      -4.568   1.127  11.504  1.00  0.00     0.139 C
HETATM   15  C5  UNL     1      -3.301   0.917  10.728  1.00  0.00     0.035 C
HETATM   16  C6  UNL     1      -3.188  -0.591  10.694  1.00  0.00     0.029 C
HETATM   17  C7  UNL     1      -4.134  -1.011  11.784  1.00  0.00     0.168 C
HETATM   18  O1  UNL     1      -4.496   0.136  12.473  1.00  0.00    -0.384 OA
ENDBRANCH  13  14
ENDBRANCH   5  13
BRANCH  11  19
HETATM   19  C9  UNL     1       0.805   4.402  11.221  1.00  0.00     0.116 C
HETATM   20  C10 UNL     1       2.145   5.028  11.437  1.00  0.00     0.262 C
HETATM   21  N5  UNL     1       2.664   5.517  10.172  1.00  0.00    -0.069 N
HETATM   22  C11 UNL     1       4.040   5.946  10.366  1.00  0.00     0.272 C
HETATM   23  C12 UNL     1       1.860   6.579   9.640  1.00  0.00     0.237 C
HETATM   24  C16 UNL     1       2.695   4.416   9.231  1.00  0.00     0.237 C
HETATM   25  C13 UNL     1       0.424   6.133   9.517  1.00  0.00     0.034 C
HETATM   26  C14 UNL     1       0.341   4.655   9.807  1.00  0.00     0.013 C
HETATM   27  C15 UNL     1       1.321   3.908   8.889  1.00  0.00     0.034 C
ENDBRANCH  11  19
TORSDOF 3
ENDMDL