MODEL 1
REMARK VINA RESULT: -6.380017677      0.000      0.000
REMARK  5 active torsions:
REMARK  status: ('A' for Active; 'I' for Inactive)
REMARK    1  A    between atoms: C2_2  and  C3_3
REMARK    2  A    between atoms: C3_3  and  N1_4
REMARK    3  A    between atoms: N2_10  and  C9_11
REMARK    4  A    between atoms: C9_11  and  N3_13
REMARK    5  A    between atoms: C13_18  and  N4_19
REMARK       I    between atoms: N4_19  and  C14_21
ROOT
HETATM    1  N1  UNL     1      -3.945   6.957  12.116  1.00  0.00    -0.278 N
HETATM    2  C4  UNL     1      -4.339   6.257  13.223  1.00  0.00     0.098 C
HETATM    3  C5  UNL     1      -3.870   4.857  13.414  1.00  0.00    -0.004 C
HETATM    4  C6  UNL     1      -2.662   4.453  12.672  1.00  0.00     0.017 C
HETATM    5  C7  UNL     1      -2.713   4.735  11.185  1.00  0.00     0.023 C
HETATM    6  C8  UNL     1      -1.911   6.050  11.023  1.00  0.00     0.152 C
HETATM    7  N2  UNL     1      -2.641   7.085  11.730  1.00  0.00    -0.262 N
HETATM    8  C11 UNL     1      -3.587   4.675  14.895  1.00  0.00     0.017 C
HETATM    9  C12 UNL     1      -4.957   4.282  15.471  1.00  0.00     0.026 C
HETATM   10  C13 UNL     1      -5.391   3.261  14.446  1.00  0.00     0.085 C
HETATM   11  C15 UNL     1      -4.961   3.819  13.127  1.00  0.00     0.040 C
ENDROOT
BRANCH   1  12
HETATM   12  C3  UNL     1      -4.853   7.797  11.488  1.00  0.00     0.114 C
BRANCH  12  13
HETATM   13  C2  UNL     1      -6.298   7.420  11.640  1.00  0.00     0.009 C
HETATM   14  C1  UNL     1      -7.215   8.341  11.829  1.00  0.00     0.013 C
ENDBRANCH  12  13
ENDBRANCH   1  12
BRANCH  10  15
HETATM   15  N4  UNL     1      -4.833   1.962  14.717  1.00  0.00    -0.360 N
HETATM   16  C14 UNL     1      -4.955   1.356  15.994  1.00  0.00     0.182 C
HETATM   17  N5  UNL     1      -6.130   1.296  16.511  1.00  0.00    -0.374 N
HETATM   18  N6  UNL     1      -3.859   0.829  16.700  1.00  0.00    -0.064 NA
ATOM     19  H52 UNL     1      -6.925   1.678  15.999  1.00  0.00     0.158 HD
ATOM     20  H51 UNL     1      -6.218   0.859  17.429  1.00  0.00     0.158 HD
ATOM     21  H4  UNL     1      -4.339   1.467  13.975  1.00  0.00     0.162 HD
ENDBRANCH  10  15
BRANCH   7  22
HETATM   22  C9  UNL     1      -1.970   8.315  12.069  1.00  0.00     0.188 C
HETATM   23  S1  UNL     1      -1.377   9.215  10.777  1.00  0.00    -0.039 SA
BRANCH  22  24
HETATM   24  N3  UNL     1      -1.753   8.874  13.320  1.00  0.00    -0.370 N
HETATM   25  C10 UNL     1      -1.535   8.274  14.597  1.00  0.00     0.148 C
ATOM     26  H3  UNL     1      -1.748   9.894  13.329  1.00  0.00     0.161 HD
ENDBRANCH  22  24
ENDBRANCH   7  22
TORSDOF 5
ENDMDL