MODEL 3
REMARK VINA RESULT: -7.254232579      1.846      2.311
REMARK  4 active torsions:
REMARK  status: ('A' for Active; 'I' for Inactive)
REMARK    1  A    between atoms: C2_2  and  C3_3
REMARK    2  A    between atoms: C3_3  and  C4_4
REMARK    3  A    between atoms: C6_6  and  N1_7
REMARK    4  A    between atoms: C8_14  and  C9_15
ROOT
HETATM    1  C4  UNL     1      41.076  -1.501  92.218  1.00  0.00    -0.042 A
HETATM    2  C5  UNL     1      41.907  -2.508  91.774  1.00  0.00     0.056 A
HETATM    3  C6  UNL     1      43.270  -2.380  91.623  1.00  0.00     0.100 A
HETATM    4  N2  UNL     1      43.774  -1.174  91.942  1.00  0.00    -0.336 N
ATOM      5  H2  UNL     1      44.777  -1.011  91.853  1.00  0.00     0.168 HD
HETATM    6  C7  UNL     1      42.972  -0.168  92.380  1.00  0.00     0.086 A
HETATM    7  S1  UNL     1      43.310   1.460  92.856  1.00  0.00    -0.076 SA
HETATM    8  C8  UNL     1      41.723   1.957  93.241  1.00  0.00    -0.015 A
HETATM    9  C11 UNL     1      40.982   0.844  92.987  1.00  0.00     0.029 A
HETATM   10  C12 UNL     1      41.630  -0.247  92.544  1.00  0.00     0.005 A
ENDROOT
BRANCH   1  11
HETATM   11  C3  UNL     1      39.636  -1.794  92.333  1.00  0.00     0.039 C
BRANCH  11  12
HETATM   12  C2  UNL     1      38.826  -0.785  91.541  1.00  0.00     0.000 C
HETATM   13  C1  UNL     1      39.302  -0.732  90.099  1.00  0.00     0.005 C
ENDBRANCH  11  12
ENDBRANCH   1  11
BRANCH   3  14
HETATM   14  N1  UNL     1      44.014  -3.358  91.201  1.00  0.00    -0.385 N
ATOM     15  H12 UNL     1      44.000  -4.283  91.631  1.00  0.00     0.157 HD
ATOM     16  H11 UNL     1      44.655  -3.253  90.415  1.00  0.00     0.157 HD
ENDBRANCH   3  14
BRANCH   8  17
HETATM   17  C9  UNL     1      41.293   3.293  93.731  1.00  0.00     0.042 C
HETATM   18  C10 UNL     1      39.947   3.263  94.420  1.00  0.00     0.010 C
ENDBRANCH   8  17
TORSDOF 4
ENDMDL