MODEL 1
REMARK VINA RESULT: -7.440046876      0.000      0.000
REMARK  3 active torsions:
REMARK  status: ('A' for Active; 'I' for Inactive)
REMARK    1  A    between atoms: C4_9  and  C5_10
REMARK    2  A    between atoms: C5_10  and  C9_15
REMARK    3  A    between atoms: C6_11  and  C7_12
ROOT
HETATM    1  C7  UNL     1      41.548  -2.863  92.502  1.00  0.00     0.151 C
HETATM    2  C8  UNL     1      42.843  -3.453  92.058  1.00  0.00     0.062 C
HETATM    3  N3  UNL     1      43.839  -3.914  91.694  1.00  0.00    -0.197 NA
ENDROOT
BRANCH   1   4
HETATM    4  C6  UNL     1      41.783  -1.420  92.596  1.00  0.00    -0.003 C
HETATM    5  C5  UNL     1      41.192  -0.369  92.204  1.00  0.00    -0.029 C
BRANCH   5   6
HETATM    6  C4  UNL     1      41.764   0.967  92.520  1.00  0.00     0.063 A
HETATM    7  C2  UNL     1      42.885   1.599  92.131  1.00  0.00     0.035 A
HETATM    8  C1  UNL     1      44.024   1.068  91.369  1.00  0.00     0.070 C
HETATM    9  N1  UNL     1      42.888   2.881  92.627  1.00  0.00    -0.335 N
HETATM   10  C3  UNL     1      41.769   3.047  93.328  1.00  0.00     0.176 A
ATOM     11  H1  UNL     1      43.618   3.579  92.484  1.00  0.00     0.168 HD
HETATM   12  S1  UNL     1      41.270   4.398  94.138  1.00  0.00    -0.041 SA
HETATM   13  N2  UNL     1      41.086   1.899  93.270  1.00  0.00    -0.331 N
ATOM     14  H2  UNL     1      40.185   1.737  93.720  1.00  0.00     0.168 HD
ENDBRANCH   5   6
BRANCH   5  15
HETATM   15  C9  UNL     1      39.944  -0.308  91.450  1.00  0.00     0.012 C
HETATM   16  C10 UNL     1      38.844  -1.140  92.161  1.00  0.00     0.015 C
HETATM   17  C11 UNL     1      39.887  -0.675  90.034  1.00  0.00     0.015 C
ENDBRANCH   5  15
ENDBRANCH   1   4
TORSDOF 3
ENDMDL