MODEL 5
REMARK VINA RESULT: -7.466689279      2.798      5.871
REMARK  4 active torsions:
REMARK  status: ('A' for Active; 'I' for Inactive)
REMARK    1  A    between atoms: C3_3  and  C4_4
REMARK    2  A    between atoms: C4_4  and  C5_5
REMARK    3  A    between atoms: C6_6  and  C7_7
REMARK    4  A    between atoms: C10_10  and  O1_11
ROOT
HETATM    1  C1  UNL     1      38.432  -0.379  91.260  1.00  0.00     0.049 C
HETATM    2  C2  UNL     1      39.546   0.251  91.969  1.00  0.00    -0.041 A
HETATM    3  C3  UNL     1      40.626  -0.492  92.427  1.00  0.00     0.010 A
HETATM    4  C10 UNL     1      41.628   0.218  93.090  1.00  0.00     0.192 A
HETATM    5  O2  UNL     1      41.573   1.512  93.280  1.00  0.00    -0.270 OA
HETATM    6  C11 UNL     1      40.555   2.249  92.856  1.00  0.00     0.150 A
HETATM    7  N1  UNL     1      40.570   3.520  93.078  1.00  0.00    -0.379 N
ATOM      8  H11 UNL     1      39.788   4.087  92.752  1.00  0.00     0.158 HD
ATOM      9  H12 UNL     1      41.326   3.998  93.569  1.00  0.00     0.158 HD
HETATM   10  C12 UNL     1      39.539   1.607  92.196  1.00  0.00    -0.004 A
HETATM   11  C13 UNL     1      38.397   2.415  91.720  1.00  0.00     0.053 C
ENDROOT
BRANCH   3  12
HETATM   12  C4  UNL     1      40.715  -1.952  92.227  1.00  0.00     0.071 C
BRANCH  12  13
HETATM   13  C5  UNL     1      41.923  -2.332  91.436  1.00  0.00    -0.026 C
HETATM   14  C6  UNL     1      42.666  -3.374  91.770  1.00  0.00    -0.026 C
BRANCH  14  15
HETATM   15  C7  UNL     1      43.854  -3.747  90.993  1.00  0.00    -0.001 C
HETATM   16  C8  UNL     1      45.089  -3.534  91.802  1.00  0.00     0.013 C
HETATM   17  C9  UNL     1      43.800  -5.200  90.562  1.00  0.00     0.013 C
ENDBRANCH  14  15
ENDBRANCH  12  13
ENDBRANCH   3  12
BRANCH   4  18
HETATM   18  O1  UNL     1      42.717  -0.524  93.553  1.00  0.00    -0.340 OA
ATOM     19  H1  UNL     1      43.233  -0.132  94.248  1.00  0.00     0.220 HD
ENDBRANCH   4  18
TORSDOF 4
ENDMDL