MODEL 5
REMARK VINA RESULT: -6.732493055      0.948      1.075
REMARK  3 active torsions:
REMARK  status: ('A' for Active; 'I' for Inactive)
REMARK    1  A    between atoms: C3_3  and  C4_4
REMARK    2  A    between atoms: C4_4  and  C5_5
REMARK    3  A    between atoms: C5_5  and  C6_6
ROOT
HETATM    1  C1  UNL     1      39.208   1.462  92.265  1.00  0.00     0.049 C
HETATM    2  C2  UNL     1      40.481   0.785  92.562  1.00  0.00    -0.045 A
HETATM    3  C3  UNL     1      41.592   1.492  92.971  1.00  0.00    -0.036 A
HETATM    4  C7  UNL     1      42.743   0.782  93.229  1.00  0.00     0.096 A
HETATM    5  N1  UNL     1      42.790  -0.572  93.089  1.00  0.00    -0.356 N
ATOM      6  H1  UNL     1      43.659  -1.067  93.288  1.00  0.00     0.166 HD
HETATM    7  C8  UNL     1      41.706  -1.271  92.689  1.00  0.00     0.106 A
HETATM    8  S2  UNL     1      41.761  -2.899  92.521  1.00  0.00    -0.060 SA
HETATM    9  C9  UNL     1      40.532  -0.586  92.421  1.00  0.00    -0.018 A
HETATM   10  C10 UNL     1      39.357  -1.344  91.989  1.00  0.00     0.052 C
ENDROOT
BRANCH   3  11
HETATM   11  C4  UNL     1      41.613   2.954  93.147  1.00  0.00     0.041 C
BRANCH  11  12
HETATM   12  C5  UNL     1      42.677   3.643  92.348  1.00  0.00     0.015 C
BRANCH  12  13
HETATM   13  C6  UNL     1      43.317   4.808  93.020  1.00  0.00     0.086 C
HETATM   14  S1  UNL     1      42.706   5.151  94.669  1.00  0.00    -0.098 SA
ENDBRANCH  12  13
ENDBRANCH  11  12
ENDBRANCH   3  11
TORSDOF 3
ENDMDL