MODEL 5
REMARK VINA RESULT: -6.477597442      2.118      6.392
REMARK  3 active torsions:
REMARK  status: ('A' for Active; 'I' for Inactive)
REMARK    1  A    between atoms: C5_7  and  C6_8
REMARK    2  A    between atoms: C6_8  and  N2_9
REMARK    3  A    between atoms: N2_9  and  C7_11
ROOT
HETATM    1  C1  UNL     1      41.209   4.711  93.826  1.00  0.00     0.068 C
HETATM    2  C2  UNL     1      41.162   3.285  93.390  1.00  0.00     0.013 A
HETATM    3  N1  UNL     1      42.104   2.334  93.634  1.00  0.00    -0.358 N
ATOM      4  H1  UNL     1      42.989   2.502  94.114  1.00  0.00     0.166 HD
HETATM    5  C3  UNL     1      41.698   1.117  93.144  1.00  0.00     0.051 A
HETATM    6  C4  UNL     1      42.154  -0.162  93.117  1.00  0.00     0.051 A
HETATM    7  C5  UNL     1      41.379  -1.123  92.536  1.00  0.00     0.023 A
HETATM    8  S1  UNL     1      40.000  -0.174  92.034  1.00  0.00    -0.086 SA
HETATM    9  C10 UNL     1      40.487   1.349  92.593  1.00  0.00     0.040 A
HETATM   10  C11 UNL     1      40.122   2.682  92.726  1.00  0.00    -0.020 A
HETATM   11  C12 UNL     1      38.874   3.313  92.267  1.00  0.00     0.052 C
ENDROOT
BRANCH   7  12
HETATM   12  C6  UNL     1      41.429  -2.577  92.404  1.00  0.00     0.102 C
BRANCH  12  13
HETATM   13  N2  UNL     1      42.666  -3.238  92.326  1.00  0.00    -0.394 N
ATOM     14  H2  UNL     1      43.175  -3.619  93.124  1.00  0.00     0.159 HD
BRANCH  13  15
HETATM   15  C7  UNL     1      43.118  -3.302  90.934  1.00  0.00     0.072 C
HETATM   16  C8  UNL     1      44.013  -2.192  90.511  1.00  0.00     0.031 C
HETATM   17  C9  UNL     1      43.997  -4.582  90.851  1.00  0.00     0.031 C
ENDBRANCH  13  15
ENDBRANCH  12  13
ENDBRANCH   7  12
TORSDOF 3
ENDMDL