MODEL 2
REMARK VINA RESULT: -7.457609608      2.299      4.109
REMARK  3 active torsions:
REMARK  status: ('A' for Active; 'I' for Inactive)
REMARK    1  A    between atoms: C2_2  and  C3_3
REMARK    2  A    between atoms: C3_3  and  S1_4
REMARK    3  A    between atoms: S1_4  and  C4_5
ROOT
HETATM    1  C4  UNL     1      42.452  -0.177  91.338  1.00  0.00     0.092 A
HETATM    2  N1  UNL     1      42.104   0.847  92.137  1.00  0.00    -0.347 N
ATOM      3  H1  UNL     1      41.327   0.830  92.798  1.00  0.00     0.167 HD
HETATM    4  C5  UNL     1      42.921   1.898  91.945  1.00  0.00     0.068 A
HETATM    5  C6  UNL     1      43.234   3.193  92.307  1.00  0.00     0.033 A
HETATM    6  C7  UNL     1      42.521   4.020  93.323  1.00  0.00     0.070 C
HETATM    7  N2  UNL     1      44.289   3.622  91.609  1.00  0.00    -0.367 N
ATOM      8  H2  UNL     1      44.715   4.545  91.692  1.00  0.00     0.165 HD
HETATM    9  C8  UNL     1      44.701   2.646  90.779  1.00  0.00     0.103 A
HETATM   10  C9  UNL     1      43.847   1.557  90.984  1.00  0.00     0.032 A
HETATM   11  C10 UNL     1      43.541   0.263  90.617  1.00  0.00     0.092 A
HETATM   12  C11 UNL     1      44.238  -0.507  89.642  1.00  0.00     0.103 C
HETATM   13  N3  UNL     1      44.807  -1.153  88.858  1.00  0.00    -0.191 NA
ENDROOT
BRANCH   1  14
HETATM   14  S1  UNL     1      41.687  -1.805  91.201  1.00  0.00    -0.107 SA
BRANCH  14  15
HETATM   15  C3  UNL     1      40.353  -2.020  92.354  1.00  0.00     0.107 C
BRANCH  15  16
HETATM   16  C2  UNL     1      39.177  -1.220  91.963  1.00  0.00    -0.026 C
HETATM   17  C1  UNL     1      39.014  -0.736  90.742  1.00  0.00     0.007 C
ENDBRANCH  15  16
ENDBRANCH  14  15
ENDBRANCH   1  14
TORSDOF 3
ENDMDL