MODEL 4
REMARK VINA RESULT: -6.995778515      2.840      5.238
REMARK  3 active torsions:
REMARK  status: ('A' for Active; 'I' for Inactive)
REMARK    1  A    between atoms: C2_2  and  C3_3
REMARK    2  A    between atoms: N1_4  and  C4_6
REMARK    3  A    between atoms: C7_11  and  C8_12
ROOT
HETATM    1  C4  UNL     1      42.835  -1.295  92.067  1.00  0.00     0.063 A
HETATM    2  C5  UNL     1      43.789  -0.274  92.014  1.00  0.00     0.080 A
HETATM    3  N2  UNL     1      45.180  -0.646  91.913  1.00  0.00    -0.100 NA
HETATM    4  C6  UNL     1      43.547   1.063  92.049  1.00  0.00     0.079 A
HETATM    5  S1  UNL     1      41.911   1.495  92.169  1.00  0.00    -0.103 SA
HETATM    6  C7  UNL     1      40.871   0.153  92.223  1.00  0.00    -0.006 A
HETATM    7  C11 UNL     1      41.479  -1.089  92.165  1.00  0.00    -0.020 A
HETATM    8  C12 UNL     1      40.549  -2.285  92.238  1.00  0.00     0.052 C
ENDROOT
BRANCH   1   9
HETATM    9  N1  UNL     1      43.314  -2.441  92.012  1.00  0.00    -0.368 N
HETATM   10  C3  UNL     1      43.235  -3.751  91.697  1.00  0.00     0.061 C
ATOM     11  H1  UNL     1      44.248  -2.338  92.409  1.00  0.00     0.165 HD
BRANCH  10  12
HETATM   12  C2  UNL     1      43.951  -4.180  90.414  1.00  0.00     0.040 C
HETATM   13  C1  UNL     1      43.970  -5.686  90.352  1.00  0.00     0.010 C
ENDBRANCH  10  12
ENDBRANCH   1   9
BRANCH   6  14
HETATM   14  C8  UNL     1      39.407   0.368  92.306  1.00  0.00     0.018 C
HETATM   15  C9  UNL     1      39.196   1.874  92.527  1.00  0.00     0.015 C
HETATM   16  C10 UNL     1      38.696   0.078  91.000  1.00  0.00     0.015 C
ENDBRANCH   6  14
TORSDOF 3
ENDMDL