MODEL 3
REMARK VINA RESULT: -6.995147401      2.264      3.191
REMARK  3 active torsions:
REMARK  status: ('A' for Active; 'I' for Inactive)
REMARK    1  A    between atoms: C2_2  and  C3_3
REMARK    2  A    between atoms: C3_3  and  C4_4
REMARK    3  A    between atoms: C4_4  and  N1_5
ROOT
HETATM    1  N1  UNL     1      42.716  -1.151  91.945  1.00  0.00    -0.308 N
HETATM    2  C5  UNL     1      43.542  -1.791  91.099  1.00  0.00     0.180 A
HETATM    3  S1  UNL     1      43.580  -3.403  90.864  1.00  0.00    -0.040 SA
HETATM    4  N2  UNL     1      44.336  -0.894  90.476  1.00  0.00    -0.329 N
ATOM      5  H2  UNL     1      45.051  -1.119  89.784  1.00  0.00     0.168 HD
HETATM    6  C6  UNL     1      44.034   0.343  90.911  1.00  0.00     0.087 A
HETATM    7  C7  UNL     1      44.341   1.684  90.793  1.00  0.00    -0.009 A
HETATM    8  C8  UNL     1      45.362   2.332  89.929  1.00  0.00     0.052 C
HETATM    9  C9  UNL     1      43.481   2.312  91.670  1.00  0.00     0.015 A
HETATM   10  C10 UNL     1      43.409   3.775  91.919  1.00  0.00     0.069 C
HETATM   11  N3  UNL     1      42.701   1.384  92.276  1.00  0.00    -0.344 N
ATOM     12  H3  UNL     1      41.981   1.586  92.970  1.00  0.00     0.167 HD
HETATM   13  C11 UNL     1      43.020   0.154  91.827  1.00  0.00     0.138 A
ENDROOT
BRANCH   1  14
HETATM   14  C4  UNL     1      41.704  -1.748  92.809  1.00  0.00     0.133 C
BRANCH  14  15
HETATM   15  C3  UNL     1      40.503  -2.185  92.032  1.00  0.00     0.020 C
BRANCH  15  16
HETATM   16  C2  UNL     1      39.483  -1.058  92.094  1.00  0.00    -0.003 C
HETATM   17  C1  UNL     1      39.211  -0.498  90.715  1.00  0.00     0.005 C
ENDBRANCH  15  16
ENDBRANCH  14  15
ENDBRANCH   1  14
TORSDOF 3
ENDMDL