MODEL 4
REMARK VINA RESULT: -7.784401538      2.383      5.039
REMARK  3 active torsions:
REMARK  status: ('A' for Active; 'I' for Inactive)
REMARK    1  A    between atoms: C2_2  and  C3_3
REMARK    2  A    between atoms: C3_3  and  C4_4
REMARK    3  A    between atoms: C3_3  and  C6_7
ROOT
HETATM    1  C4  UNL     1      41.728  -2.425  92.644  1.00  0.00     0.134 C
HETATM    2  C5  UNL     1      42.691  -3.348  92.115  1.00  0.00     0.059 C
HETATM    3  N1  UNL     1      43.462  -4.111  91.705  1.00  0.00    -0.197 NA
ENDROOT
BRANCH   1   4
HETATM    4  C3  UNL     1      41.105  -1.486  91.590  1.00  0.00     0.049 C
BRANCH   4   5
HETATM    5  C2  UNL     1      39.598  -1.484  91.867  1.00  0.00     0.007 C
HETATM    6  C1  UNL     1      38.839  -0.716  90.799  1.00  0.00     0.006 C
ENDBRANCH   4   5
BRANCH   4   7
HETATM    7  C6  UNL     1      41.617  -0.128  91.851  1.00  0.00     0.022 A
HETATM    8  N2  UNL     1      41.036   0.642  92.769  1.00  0.00    -0.345 N
HETATM    9  C7  UNL     1      41.490   1.861  93.120  1.00  0.00     0.105 A
ATOM     10  H2  UNL     1      40.200   0.289  93.233  1.00  0.00     0.167 HD
HETATM   11  N3  UNL     1      40.904   2.572  94.066  1.00  0.00    -0.385 N
HETATM   12  C8  UNL     1      42.611   2.327  92.491  1.00  0.00    -0.012 A
ATOM     13  H32 UNL     1      40.067   2.224  94.536  1.00  0.00     0.157 HD
ATOM     14  H31 UNL     1      41.247   3.494  94.332  1.00  0.00     0.157 HD
HETATM   15  C9  UNL     1      43.092   3.707  92.858  1.00  0.00     0.052 C
HETATM   16  C10 UNL     1      43.246   1.571  91.539  1.00  0.00    -0.045 A
HETATM   17  C11 UNL     1      44.443   2.210  90.914  1.00  0.00     0.049 C
HETATM   18  C12 UNL     1      42.757   0.339  91.209  1.00  0.00    -0.032 A
HETATM   19  C13 UNL     1      43.455  -0.397  90.130  1.00  0.00     0.050 C
ENDBRANCH   4   7
ENDBRANCH   1   4
TORSDOF 3
ENDMDL