MODEL 1
REMARK VINA RESULT: -7.480159930      0.000      0.000
REMARK  10 active torsions:
REMARK  status: ('A' for Active; 'I' for Inactive)
REMARK    1  A    between atoms: C2_3  and  N2_4
REMARK    2  A    between atoms: N2_4  and  C3_6
REMARK    3  A    between atoms: C3_6  and  C4_7
REMARK    4  A    between atoms: C4_7  and  C5_8
REMARK    5  A    between atoms: C4_7  and  C6_17
REMARK    6  A    between atoms: C5_8  and  N3_9
REMARK    7  A    between atoms: C5_8  and  N4_13
REMARK    8  A    between atoms: C6_17  and  N5_18
REMARK    9  A    between atoms: C6_17  and  C7_22
REMARK   10  A    between atoms: C8_27  and  N8_28
ROOT
HETATM    1  C3  UNL     1       9.399  -6.628 -14.153  1.00  0.00     0.149 C
ENDROOT
BRANCH   1   2
HETATM    2  N2  UNL     1      10.782  -6.704 -14.224  1.00  0.00    -0.225 N
ATOM      3  H2  UNL     1      11.066  -7.182 -15.079  1.00  0.00     0.177 HD
BRANCH   2   4
HETATM    4  C2  UNL     1      11.777  -6.370 -13.569  1.00  0.00     0.683 A
HETATM    5  N1  UNL     1      12.599  -7.151 -12.858  1.00  0.00    -0.170 N
HETATM    6  C1  UNL     1      12.383  -8.582 -12.786  1.00  0.00     0.177 C
HETATM    7  C11 UNL     1      13.671  -6.660 -12.170  1.00  0.00     0.154 A
HETATM    8  C9  UNL     1      13.924  -5.321 -12.202  1.00  0.00     0.123 A
HETATM    9  N10 UNL     1      14.618  -7.212 -11.405  1.00  0.00    -0.336 N
HETATM   10  C8  UNL     1      13.100  -4.493 -12.922  1.00  0.00     0.145 A
HETATM   11  N9  UNL     1      15.033  -5.050 -11.452  1.00  0.00    -0.346 N
HETATM   12  N7  UNL     1      12.082  -5.027 -13.564  1.00  0.00    -0.175 N
ATOM     13  H7  UNL     1      11.475  -4.402 -14.095  1.00  0.00     0.186 HD
HETATM   14  C10 UNL     1      15.443  -6.233 -10.971  1.00  0.00     0.182 A
ATOM     15  H9  UNL     1      15.461  -4.138 -11.291  1.00  0.00     0.167 HD
ATOM     16  H10 UNL     1      14.704  -8.204 -11.185  1.00  0.00     0.168 HD
BRANCH  10  17
HETATM   17  N8  UNL     1      13.317  -3.219 -12.969  1.00  0.00    -0.383 N
ATOM     18  H82 UNL     1      13.984  -2.825 -13.633  1.00  0.00     0.157 HD
ATOM     19  H81 UNL     1      12.824  -2.583 -12.341  1.00  0.00     0.157 HD
ENDBRANCH  10  17
ENDBRANCH   2   4
ENDBRANCH   1   2
BRANCH   1  20
HETATM   20  C4  UNL     1       8.822  -7.235 -12.869  1.00  0.00     0.101 C
BRANCH  20  21
HETATM   21  C5  UNL     1       8.081  -6.155 -12.134  1.00  0.00     0.386 C
BRANCH  21  22
HETATM   22  N3  UNL     1       7.217  -5.414 -13.005  1.00  0.00    -0.050 N
ATOM     23  H33 UNL     1       7.444  -5.584 -13.985  1.00  0.00     0.276 HD
ATOM     24  H32 UNL     1       6.268  -5.787 -12.993  1.00  0.00     0.276 HD
ATOM     25  H31 UNL     1       7.226  -4.417 -12.790  1.00  0.00     0.276 HD
ENDBRANCH  21  22
BRANCH  21  26
HETATM   26  N4  UNL     1       7.373  -6.733 -10.999  1.00  0.00    -0.050 N
ATOM     27  H43 UNL     1       6.387  -6.473 -10.987  1.00  0.00     0.276 HD
ATOM     28  H42 UNL     1       7.258  -7.742 -11.091  1.00  0.00     0.276 HD
ATOM     29  H41 UNL     1       7.848  -6.478 -10.133  1.00  0.00     0.276 HD
ENDBRANCH  21  26
ENDBRANCH  20  21
BRANCH  20  30
HETATM   30  C6  UNL     1       7.932  -8.406 -13.147  1.00  0.00     0.281 C
BRANCH  30  31
HETATM   31  N5  UNL     1       7.959  -8.674 -14.564  1.00  0.00    -0.066 N
ATOM     32  H53 UNL     1       7.206  -9.295 -14.861  1.00  0.00     0.275 HD
ATOM     33  H52 UNL     1       7.696  -7.861 -15.122  1.00  0.00     0.275 HD
ATOM     34  H51 UNL     1       8.881  -9.034 -14.808  1.00  0.00     0.275 HD
ENDBRANCH  30  31
BRANCH  30  35
HETATM   35  C7  UNL     1       8.220  -9.592 -12.330  1.00  0.00     0.262 C
HETATM   36  N6  UNL     1       7.308  -9.983 -11.325  1.00  0.00    -0.060 NA
HETATM   37  O1  UNL     1       9.265 -10.249 -12.523  1.00  0.00    -0.275 OA
ENDBRANCH  30  35
ENDBRANCH  20  30
ENDBRANCH   1  20
TORSDOF 10
ENDMDL