MODEL 2
REMARK VINA RESULT: -8.428491780      3.236      5.690
REMARK  10 active torsions:
REMARK  status: ('A' for Active; 'I' for Inactive)
REMARK    1  A    between atoms: N1_1  and  C1_4
REMARK    2  A    between atoms: C2_7  and  N3_8
REMARK    3  A    between atoms: N3_8  and  C3_10
REMARK    4  A    between atoms: C3_10  and  C4_11
REMARK    5  A    between atoms: C4_11  and  O1_12
REMARK    6  A    between atoms: O1_12  and  C5_13
REMARK    7  A    between atoms: C5_13  and  C6_14
REMARK    8  A    between atoms: C9_17  and  O2_18
REMARK    9  A    between atoms: N6_26  and  N7_27
REMARK   10  A    between atoms: C11_30  and  N8_31
ROOT
HETATM    1  C1  UNL     1       7.907  -6.190 -13.028  1.00  0.00     0.705 C
HETATM    2  N2  UNL     1       8.090  -7.445 -12.582  1.00  0.00    -0.021 N
ATOM      3  H2  UNL     1       7.875  -7.579 -11.594  1.00  0.00     0.203 HD
HETATM    4  C2  UNL     1       8.508  -8.553 -13.216  1.00  0.00     0.709 C
HETATM    5  N5  UNL     1       8.492  -8.758 -14.542  1.00  0.00    -0.096 N
ATOM      6  H5  UNL     1       8.828  -9.672 -14.846  1.00  0.00     0.208 HD
HETATM    7  N6  UNL     1       8.101  -7.939 -15.520  1.00  0.00    -0.012 N
HETATM    8  C11 UNL     1       8.059  -6.597 -15.434  1.00  0.00     0.727 C
HETATM    9  N9  UNL     1       7.959  -5.812 -14.321  1.00  0.00    -0.019 N
ATOM     10  H9  UNL     1       7.919  -4.806 -14.491  1.00  0.00     0.203 HD
ENDROOT
BRANCH   4  11
HETATM   11  N3  UNL     1       8.952  -9.467 -12.449  1.00  0.00    -0.222 N
ATOM     12  H3  UNL     1       8.443 -10.345 -12.345  1.00  0.00     0.177 HD
BRANCH  11  13
HETATM   13  C3  UNL     1      10.207  -9.243 -11.715  1.00  0.00     0.164 C
BRANCH  13  14
HETATM   14  C4  UNL     1      11.299  -9.852 -12.541  1.00  0.00     0.188 C
BRANCH  14  15
HETATM   15  O1  UNL     1      12.396  -9.047 -12.722  1.00  0.00    -0.384 OA
BRANCH  15  16
HETATM   16  C5  UNL     1      12.179  -8.040 -13.641  1.00  0.00     0.224 C
BRANCH  16  17
HETATM   17  C6  UNL     1      12.760  -6.767 -13.145  1.00  0.00     0.036 A
HETATM   18  C7  UNL     1      12.421  -5.567 -13.736  1.00  0.00     0.030 A
HETATM   19  C8  UNL     1      12.952  -4.374 -13.287  1.00  0.00     0.044 A
HETATM   20  C9  UNL     1      13.832  -4.376 -12.236  1.00  0.00     0.134 A
HETATM   21  C10 UNL     1      14.166  -5.579 -11.651  1.00  0.00     0.279 A
HETATM   22  O3  UNL     1      14.980  -5.568 -10.680  1.00  0.00    -0.265 OA
HETATM   23  N4  UNL     1      13.627  -6.720 -12.117  1.00  0.00    -0.323 N
ATOM     24  H4  UNL     1      13.888  -7.596 -11.666  1.00  0.00     0.169 HD
BRANCH  20  25
HETATM   25  O2  UNL     1      14.404  -3.194 -11.737  1.00  0.00    -0.356 OA
ATOM     26  H2  UNL     1      14.803  -2.546 -12.305  1.00  0.00     0.218 HD
ENDBRANCH  20  25
ENDBRANCH  16  17
ENDBRANCH  15  16
ENDBRANCH  14  15
ENDBRANCH  13  14
ENDBRANCH  11  13
ENDBRANCH   4  11
BRANCH   1  27
HETATM   27  N1  UNL     1       7.661  -5.282 -12.147  1.00  0.00    -0.234 N
ATOM     28  H12 UNL     1       6.759  -4.809 -12.193  1.00  0.00     0.174 HD
ATOM     29  H11 UNL     1       8.387  -5.095 -11.456  1.00  0.00     0.174 HD
ENDBRANCH   1  27
BRANCH   7  30
HETATM   30  N7  UNL     1       7.702  -8.510 -16.734  1.00  0.00    -0.309 N
ATOM     31  H72 UNL     1       8.105  -9.415 -16.974  1.00  0.00     0.179 HD
ATOM     32  H71 UNL     1       7.036  -7.994 -17.309  1.00  0.00     0.179 HD
ENDBRANCH   7  30
BRANCH   8  33
HETATM   33  N8  UNL     1       8.123  -5.990 -16.568  1.00  0.00    -0.231 N
ATOM     34  H82 UNL     1       7.837  -6.522 -17.391  1.00  0.00     0.174 HD
ATOM     35  H81 UNL     1       8.458  -5.029 -16.511  1.00  0.00     0.174 HD
ENDBRANCH   8  33
TORSDOF 10
ENDMDL