MODEL 3
REMARK VINA RESULT: -8.216190205      0.805      1.330
REMARK  9 active torsions:
REMARK  status: ('A' for Active; 'I' for Inactive)
REMARK    1  A    between atoms: C4_10  and  N3_11
REMARK    2  A    between atoms: N3_11  and  O3_13
REMARK    3  A    between atoms: O3_13  and  C5_14
REMARK    4  A    between atoms: C5_14  and  C6_15
REMARK    5  A    between atoms: C6_15  and  O4_16
REMARK    6  A    between atoms: C6_15  and  C7_18
REMARK    7  A    between atoms: C6_15  and  C8_21
REMARK    8  A    between atoms: C7_18  and  O5_19
REMARK    9  A    between atoms: C8_21  and  O6_22
ROOT
HETATM    1  O1  UNL     1       6.860  -8.131 -20.127  1.00  0.00    -0.262 OA
HETATM    2  C1  UNL     1       6.933  -7.780 -18.921  1.00  0.00     0.316 C
HETATM    3  N1  UNL     1       6.953  -8.796 -18.039  1.00  0.00    -0.284 N
ATOM      4  H1  UNL     1       6.634  -9.700 -18.385  1.00  0.00     0.172 HD
HETATM    5  C2  UNL     1       7.343  -8.756 -16.765  1.00  0.00     0.279 C
HETATM    6  O2  UNL     1       7.340  -9.855 -16.169  1.00  0.00    -0.265 OA
HETATM    7  C3  UNL     1       7.749  -7.660 -16.017  1.00  0.00     0.161 A
HETATM    8  N2  UNL     1       8.319  -7.714 -14.800  1.00  0.00    -0.181 N
ATOM      9  H2  UNL     1       8.527  -8.559 -14.269  1.00  0.00     0.184 HD
HETATM   10  C4  UNL     1       8.565  -6.452 -14.413  1.00  0.00     0.704 A
HETATM   11  N4  UNL     1       8.154  -5.617 -15.374  1.00  0.00    -0.172 N
ATOM     12  H4  UNL     1       8.216  -4.600 -15.349  1.00  0.00     0.186 HD
HETATM   13  C9  UNL     1       7.649  -6.345 -16.371  1.00  0.00     0.157 A
HETATM   14  N5  UNL     1       7.153  -5.799 -17.483  1.00  0.00    -0.302 N
ATOM     15  H5  UNL     1       6.879  -4.818 -17.436  1.00  0.00     0.171 HD
HETATM   16  C10 UNL     1       6.982  -6.430 -18.662  1.00  0.00     0.315 C
HETATM   17  O7  UNL     1       6.846  -5.707 -19.686  1.00  0.00    -0.262 OA
ENDROOT
BRANCH  10  18
HETATM   18  N3  UNL     1       9.112  -6.169 -13.278  1.00  0.00    -0.096 N
ATOM     19  H3  UNL     1       8.536  -6.051 -12.445  1.00  0.00     0.213 HD
BRANCH  18  20
HETATM   20  O3  UNL     1      10.468  -6.030 -13.199  1.00  0.00    -0.263 OA
BRANCH  20  21
HETATM   21  C5  UNL     1      11.264  -6.904 -12.461  1.00  0.00     0.244 C
BRANCH  21  22
HETATM   22  C6  UNL     1      11.952  -7.842 -13.460  1.00  0.00     0.123 C
BRANCH  22  23
HETATM   23  O4  UNL     1      10.977  -8.657 -13.987  1.00  0.00    -0.383 OA
ATOM     24  H4  UNL     1      11.391  -9.192 -14.654  1.00  0.00     0.210 HD
ENDBRANCH  22  23
BRANCH  22  25
HETATM   25  C7  UNL     1      12.598  -6.955 -14.500  1.00  0.00     0.206 C
BRANCH  25  26
HETATM   26  O5  UNL     1      13.374  -5.956 -13.967  1.00  0.00    -0.398 OA
ATOM     27  H5  UNL     1      13.858  -5.462 -14.618  1.00  0.00     0.209 HD
ENDBRANCH  25  26
ENDBRANCH  22  25
BRANCH  22  28
HETATM   28  C8  UNL     1      12.950  -8.702 -12.731  1.00  0.00     0.206 C
BRANCH  28  29
HETATM   29  O6  UNL     1      14.188  -8.507 -13.349  1.00  0.00    -0.398 OA
ATOM     30  H6  UNL     1      14.030  -7.997 -14.135  1.00  0.00     0.209 HD
ENDBRANCH  28  29
ENDBRANCH  22  28
ENDBRANCH  21  22
ENDBRANCH  20  21
ENDBRANCH  18  20
ENDBRANCH  10  18
TORSDOF 9
ENDMDL