MODEL 3
REMARK VINA RESULT: -7.931476865      1.704      3.159
REMARK  9 active torsions:
REMARK  status: ('A' for Active; 'I' for Inactive)
REMARK    1  A    between atoms: N1_1  and  C1_4
REMARK    2  A    between atoms: C2_7  and  C3_8
REMARK    3  A    between atoms: C3_8  and  O1_9
REMARK    4  A    between atoms: O1_9  and  N3_10
REMARK    5  A    between atoms: C5_15  and  N6_16
REMARK    6  A    between atoms: N6_16  and  N7_18
REMARK    7  A    between atoms: C6_21  and  N8_22
REMARK    8  A    between atoms: N8_22  and  S1_24
REMARK    9  A    between atoms: S1_24  and  C7_27
ROOT
HETATM    1  C1  UNL     1      12.413  -8.766 -12.776  1.00  0.00     0.677 A
HETATM    2  N2  UNL     1      12.930  -7.826 -13.599  1.00  0.00    -0.191 N
ATOM      3  H2  UNL     1      13.940  -7.796 -13.740  1.00  0.00     0.184 HD
HETATM    4  C2  UNL     1      12.162  -6.930 -14.237  1.00  0.00     0.084 A
HETATM    5  C5  UNL     1      10.773  -6.971 -14.046  1.00  0.00     0.118 A
HETATM    6  C6  UNL     1      10.247  -7.925 -13.211  1.00  0.00     0.161 A
HETATM    7  N9  UNL     1      11.084  -8.785 -12.609  1.00  0.00    -0.174 N
ATOM      8  H9  UNL     1      10.686  -9.491 -11.990  1.00  0.00     0.186 HD
ENDROOT
BRANCH   4   9
HETATM    9  C3  UNL     1      12.636  -5.879 -15.157  1.00  0.00     0.261 C
BRANCH   9  10
HETATM   10  O1  UNL     1      13.584  -5.039 -14.606  1.00  0.00    -0.272 OA
BRANCH  10  11
HETATM   11  N3  UNL     1      13.393  -4.069 -13.672  1.00  0.00    -0.240 N
HETATM   12  C4  UNL     1      13.782  -4.199 -12.456  1.00  0.00     0.221 C
HETATM   13  N4  UNL     1      13.524  -3.107 -11.571  1.00  0.00    -0.065 NA
HETATM   14  N5  UNL     1      14.448  -5.362 -11.968  1.00  0.00    -0.065 NA
ATOM     15  H3  UNL     1      12.924  -3.206 -13.948  1.00  0.00     0.196 HD
ENDBRANCH  10  11
ENDBRANCH   9  10
ENDBRANCH   4   9
BRANCH   5  16
HETATM   16  N6  UNL     1       9.931  -6.054 -14.701  1.00  0.00    -0.302 N
ATOM     17  H6  UNL     1       9.905  -5.078 -14.404  1.00  0.00     0.186 HD
BRANCH  16  18
HETATM   18  N7  UNL     1       9.132  -6.489 -15.756  1.00  0.00    -0.345 N
ATOM     19  H72 UNL     1       9.077  -7.487 -15.961  1.00  0.00     0.176 HD
ATOM     20  H71 UNL     1       8.615  -5.806 -16.308  1.00  0.00     0.176 HD
ENDBRANCH  16  18
ENDBRANCH   5  16
BRANCH   1  21
HETATM   21  N1  UNL     1      13.178  -9.625 -12.166  1.00  0.00    -0.234 N
ATOM     22  H12 UNL     1      14.190  -9.498 -12.132  1.00  0.00     0.174 HD
ATOM     23  H11 UNL     1      12.789 -10.448 -11.705  1.00  0.00     0.174 HD
ENDBRANCH   1  21
BRANCH   6  24
HETATM   24  N8  UNL     1       8.968  -7.937 -13.055  1.00  0.00    -0.262 N
ATOM     25  H8  UNL     1       8.387  -8.405 -13.752  1.00  0.00     0.180 HD
BRANCH  24  26
HETATM   26  S1  UNL     1       8.210  -7.184 -11.700  1.00  0.00     0.289 S
HETATM   27  O2  UNL     1       9.246  -6.702 -10.708  1.00  0.00    -0.198 OA
HETATM   28  O3  UNL     1       7.347  -8.164 -10.953  1.00  0.00    -0.198 OA
BRANCH  26  29
HETATM   29  C7  UNL     1       7.279  -5.806 -12.233  1.00  0.00     0.389 C
HETATM   30  O4  UNL     1       7.262  -5.515 -13.405  1.00  0.00    -0.288 OA
ENDBRANCH  26  29
ENDBRANCH  24  26
ENDBRANCH   6  24
TORSDOF 9
ENDMDL