MODEL 4
REMARK VINA RESULT: -7.764791789      2.379      3.273
REMARK  9 active torsions:
REMARK  status: ('A' for Active; 'I' for Inactive)
REMARK    1  A    between atoms: O1_2  and  C2_3
REMARK    2  A    between atoms: C3_6  and  N2_7
REMARK    3  A    between atoms: C4_12  and  N4_13
REMARK       I    between atoms: N4_13  and  C5_15
REMARK       I    between atoms: C5_15  and  N7_20
REMARK    4  A    between atoms: N7_20  and  C7_22
REMARK    5  A    between atoms: C7_22  and  N8_23
REMARK    6  A    between atoms: C7_22  and  C8_27
REMARK    7  A    between atoms: C7_22  and  C9_30
REMARK    8  A    between atoms: C8_27  and  O2_28
REMARK    9  A    between atoms: C9_30  and  O3_31
ROOT
HETATM    1  N4  UNL     1      10.044  -6.867 -12.088  1.00  0.00    -0.174 N
ATOM      2  H4  UNL     1      10.368  -6.000 -12.516  1.00  0.00     0.186 HD
HETATM    3  C5  UNL     1       8.699  -6.783 -11.968  1.00  0.00     0.691 C
HETATM    4  N5  UNL     1       8.133  -6.282 -10.932  1.00  0.00    -0.126 N
ATOM      5  H5  UNL     1       8.737  -5.942 -10.184  1.00  0.00     0.197 HD
HETATM    6  C6  UNL     1       6.777  -6.168 -10.749  1.00  0.00     0.196 C
HETATM    7  N6  UNL     1       5.640  -6.083 -10.604  1.00  0.00    -0.171 NA
HETATM    8  N7  UNL     1       7.838  -7.224 -13.008  1.00  0.00    -0.186 N
ATOM      9  H7  UNL     1       7.033  -7.802 -12.767  1.00  0.00     0.180 HD
ENDROOT
BRANCH   1  10
HETATM   10  C4  UNL     1      11.031  -7.570 -11.886  1.00  0.00     0.161 A
HETATM   11  N3  UNL     1      12.252  -6.959 -11.692  1.00  0.00    -0.175 N
HETATM   12  C3  UNL     1      13.372  -7.613 -11.468  1.00  0.00     0.679 A
ATOM     13  H3  UNL     1      12.289  -5.940 -11.724  1.00  0.00     0.186 HD
HETATM   14  N1  UNL     1      13.361  -8.935 -11.422  1.00  0.00    -0.169 N
HETATM   15  C2  UNL     1      12.178  -9.633 -11.607  1.00  0.00     0.181 A
ATOM     16  H1  UNL     1      14.229  -9.443 -11.248  1.00  0.00     0.186 HD
HETATM   17  C10 UNL     1      10.999  -8.943 -11.842  1.00  0.00     0.141 A
HETATM   18  C11 UNL     1       9.746  -9.662 -12.046  1.00  0.00     0.108 C
HETATM   19  N9  UNL     1       8.729 -10.218 -12.217  1.00  0.00    -0.191 NA
BRANCH  12  20
HETATM   20  N2  UNL     1      14.522  -7.010 -11.287  1.00  0.00    -0.234 N
ATOM     21  H22 UNL     1      15.387  -7.330 -11.721  1.00  0.00     0.174 HD
ATOM     22  H21 UNL     1      14.532  -6.188 -10.683  1.00  0.00     0.174 HD
ENDBRANCH  12  20
BRANCH  15  23
HETATM   23  O1  UNL     1      12.248 -10.977 -11.544  1.00  0.00    -0.339 OA
HETATM   24  C1  UNL     1      12.991 -11.959 -12.085  1.00  0.00     0.211 C
ENDBRANCH  15  23
ENDBRANCH   1  10
BRANCH   8  25
HETATM   25  C7  UNL     1       8.061  -6.886 -14.397  1.00  0.00     0.251 C
BRANCH  25  26
HETATM   26  N8  UNL     1       9.117  -5.922 -14.563  1.00  0.00    -0.048 N
ATOM     27  H83 UNL     1       8.768  -4.970 -14.452  1.00  0.00     0.277 HD
ATOM     28  H82 UNL     1       9.768  -5.950 -13.777  1.00  0.00     0.277 HD
ATOM     29  H81 UNL     1       9.608  -6.033 -15.451  1.00  0.00     0.277 HD
ENDBRANCH  25  26
BRANCH  25  30
HETATM   30  C8  UNL     1       6.801  -6.452 -15.089  1.00  0.00     0.228 C
BRANCH  30  31
HETATM   31  O2  UNL     1       6.938  -6.602 -16.454  1.00  0.00    -0.397 OA
ATOM     32  H2  UNL     1       7.856  -6.691 -16.681  1.00  0.00     0.209 HD
ENDBRANCH  30  31
ENDBRANCH  25  30
BRANCH  25  33
HETATM   33  C9  UNL     1       8.526  -8.170 -15.091  1.00  0.00     0.228 C
BRANCH  33  34
HETATM   34  O3  UNL     1       7.605  -9.191 -14.901  1.00  0.00    -0.397 OA
ATOM     35  H3  UNL     1       6.877  -8.892 -14.370  1.00  0.00     0.209 HD
ENDBRANCH  33  34
ENDBRANCH  25  33
ENDBRANCH   8  25
TORSDOF 9
ENDMDL