MODEL 4
REMARK VINA RESULT: -8.024783302      1.401      2.053
REMARK  10 active torsions:
REMARK  status: ('A' for Active; 'I' for Inactive)
REMARK    1  A    between atoms: C2_2  and  N1_3
REMARK    2  A    between atoms: N1_3  and  C3_5
REMARK    3  A    between atoms: C4_8  and  N3_9
REMARK    4  A    between atoms: N3_9  and  C5_11
REMARK    5  A    between atoms: C7_18  and  N8_19
REMARK    6  A    between atoms: N8_19  and  C8_21
REMARK    7  A    between atoms: C8_21  and  C10_23
REMARK    8  A    between atoms: C8_21  and  C11_26
REMARK    9  A    between atoms: C10_23  and  O1_24
REMARK   10  A    between atoms: C11_26  and  O2_27
ROOT
HETATM    1  C3  UNL     1       8.432  -6.566 -15.166  1.00  0.00     0.707 A
HETATM    2  N2  UNL     1       7.480  -6.129 -14.351  1.00  0.00    -0.021 N
ATOM      3  H2  UNL     1       6.539  -6.000 -14.724  1.00  0.00     0.203 HD
HETATM    4  C4  UNL     1       7.700  -5.853 -13.071  1.00  0.00     0.708 A
HETATM    5  N7  UNL     1       8.937  -6.027 -12.597  1.00  0.00    -0.021 N
ATOM      6  H7  UNL     1       9.111  -5.817 -11.614  1.00  0.00     0.203 HD
HETATM    7  C7  UNL     1       9.986  -6.474 -13.364  1.00  0.00     0.708 A
HETATM    8  N9  UNL     1       9.681  -6.729 -14.640  1.00  0.00    -0.021 N
ATOM      9  H9  UNL     1      10.422  -7.065 -15.255  1.00  0.00     0.203 HD
ENDROOT
BRANCH   7  10
HETATM   10  N8  UNL     1      11.107  -6.617 -12.877  1.00  0.00    -0.212 N
ATOM     11  H8  UNL     1      11.011  -6.521 -11.867  1.00  0.00     0.178 HD
BRANCH  10  12
HETATM   12  C8  UNL     1      12.431  -6.852 -13.138  1.00  0.00     0.086 C
HETATM   13  C9  UNL     1      12.942  -5.687 -14.030  1.00  0.00     0.043 C
BRANCH  12  14
HETATM   14  C10 UNL     1      12.838  -8.094 -13.870  1.00  0.00     0.197 C
BRANCH  14  15
HETATM   15  O1  UNL     1      14.086  -8.505 -13.340  1.00  0.00    -0.398 OA
ATOM     16  H1  UNL     1      14.752  -8.281 -13.980  1.00  0.00     0.209 HD
ENDBRANCH  14  15
ENDBRANCH  12  14
BRANCH  12  17
HETATM   17  C11 UNL     1      13.332  -6.812 -11.894  1.00  0.00     0.197 C
BRANCH  17  18
HETATM   18  O2  UNL     1      14.371  -5.932 -12.037  1.00  0.00    -0.398 OA
ATOM     19  H2  UNL     1      15.208  -6.329 -11.825  1.00  0.00     0.209 HD
ENDBRANCH  17  18
ENDBRANCH  12  17
ENDBRANCH  10  12
ENDBRANCH   7  10
BRANCH   4  20
HETATM   20  N3  UNL     1       6.811  -5.428 -12.245  1.00  0.00    -0.204 N
ATOM     21  H3  UNL     1       6.059  -4.857 -12.630  1.00  0.00     0.179 HD
BRANCH  20  22
HETATM   22  C5  UNL     1       6.779  -5.680 -10.850  1.00  0.00     0.227 C
HETATM   23  C6  UNL     1       6.667  -4.328 -10.135  1.00  0.00     0.176 C
HETATM   24  N4  UNL     1       5.291  -3.999 -10.390  1.00  0.00    -0.127 NA
HETATM   25  N5  UNL     1       4.637  -5.149 -10.770  1.00  0.00    -0.038 NA
HETATM   26  N6  UNL     1       5.462  -6.235 -10.501  1.00  0.00    -0.103 NA
ENDBRANCH  20  22
ENDBRANCH   4  20
BRANCH   1  27
HETATM   27  N1  UNL     1       8.150  -6.813 -16.392  1.00  0.00    -0.225 N
ATOM     28  H1  UNL     1       8.687  -6.342 -17.121  1.00  0.00     0.177 HD
BRANCH  27  29
HETATM   29  C2  UNL     1       7.100  -7.736 -16.789  1.00  0.00     0.133 C
HETATM   30  C1  UNL     1       7.446  -9.159 -16.443  1.00  0.00     0.027 C
ENDBRANCH  27  29
ENDBRANCH   1  27
TORSDOF 10
ENDMDL