MODEL 5
REMARK VINA RESULT: -7.168917111      2.120      3.498
REMARK  10 active torsions:
REMARK  status: ('A' for Active; 'I' for Inactive)
REMARK    1  A    between atoms: S1_3  and  N1_5
REMARK    2  A    between atoms: S1_3  and  N3_13
REMARK    3  A    between atoms: N1_5  and  C3_7
REMARK    4  A    between atoms: C3_7  and  C4_8
REMARK    5  A    between atoms: C4_8  and  N2_9
REMARK    6  A    between atoms: C5_14  and  C6_15
REMARK    7  A    between atoms: C6_15  and  O2_16
REMARK    8  A    between atoms: C7_18  and  O3_19
REMARK    9  A    between atoms: C9_25  and  N5_26
REMARK   10  A    between atoms: N5_26  and  N6_28
ROOT
HETATM    1  C1  UNL     1       7.850  -6.668 -11.306  1.00  0.00     0.115 C
HETATM    2  C2  UNL     1       9.030  -6.743 -11.677  1.00  0.00    -0.056 C
HETATM    3  S1  UNL     1      10.964  -6.824 -12.364  1.00  0.00     0.176 S
HETATM    4  O1  UNL     1      11.663  -6.156 -11.896  1.00  0.00    -0.215 OA
ENDROOT
BRANCH   3   5
HETATM    5  N1  UNL     1      10.814  -6.109 -14.152  1.00  0.00    -0.325 N
ATOM      6  H1  UNL     1       9.969  -5.815 -14.643  1.00  0.00     0.171 HD
BRANCH   5   7
HETATM    7  C3  UNL     1      12.156  -6.087 -14.625  1.00  0.00     0.158 C
BRANCH   7   8
HETATM    8  C4  UNL     1      12.590  -4.633 -14.900  1.00  0.00     0.249 C
BRANCH   8   9
HETATM    9  N2  UNL     1      13.342  -4.250 -13.729  1.00  0.00    -0.078 N
ATOM     10  H23 UNL     1      13.362  -3.244 -13.557  1.00  0.00     0.274 HD
ATOM     11  H22 UNL     1      12.898  -4.507 -12.847  1.00  0.00     0.274 HD
ATOM     12  H21 UNL     1      14.263  -4.666 -13.867  1.00  0.00     0.274 HD
ENDBRANCH   8   9
ENDBRANCH   7   8
ENDBRANCH   5   7
ENDBRANCH   3   5
BRANCH   3  13
HETATM   13  N3  UNL     1      11.652  -8.584 -12.170  1.00  0.00    -0.223 N
HETATM   14  C5  UNL     1      12.396  -8.973 -11.177  1.00  0.00     0.103 A
HETATM   15  C7  UNL     1      12.861 -10.281 -11.121  1.00  0.00     0.169 A
HETATM   16  N4  UNL     1      12.584 -11.196 -12.067  1.00  0.00    -0.299 N
HETATM   17  C8  UNL     1      11.841 -10.812 -13.091  1.00  0.00     0.294 A
ATOM     18  H4  UNL     1      12.934 -12.151 -11.996  1.00  0.00     0.171 HD
HETATM   19  O4  UNL     1      11.608 -11.684 -13.949  1.00  0.00    -0.264 OA
HETATM   20  C9  UNL     1      11.384  -9.519 -13.139  1.00  0.00     0.216 A
BRANCH  14  21
HETATM   21  C6  UNL     1      13.227  -8.073 -10.300  1.00  0.00     0.227 C
BRANCH  21  22
HETATM   22  O2  UNL     1      14.305  -7.540 -10.846  1.00  0.00    -0.395 OA
ATOM     23  H2  UNL     1      14.473  -6.625 -10.657  1.00  0.00     0.209 HD
ENDBRANCH  21  22
ENDBRANCH  14  21
BRANCH  15  24
HETATM   24  O3  UNL     1      13.650 -10.657 -10.010  1.00  0.00    -0.344 OA
ATOM     25  H3  UNL     1      13.823 -11.582  -9.879  1.00  0.00     0.219 HD
ENDBRANCH  15  24
BRANCH  20  26
HETATM   26  N5  UNL     1      10.748  -9.095 -14.207  1.00  0.00    -0.214 N
ATOM     27  H5  UNL     1      11.310  -8.782 -14.999  1.00  0.00     0.203 HD
BRANCH  26  28
HETATM   28  N6  UNL     1       9.442  -9.045 -14.330  1.00  0.00    -0.348 NA
HETATM   29  C10 UNL     1       8.301  -8.747 -14.491  1.00  0.00     0.258 C
ENDBRANCH  26  28
ENDBRANCH  20  26
ENDBRANCH   3  13
TORSDOF 10
ENDMDL