MODEL 2
REMARK VINA RESULT: -7.209425156      2.901      5.782
REMARK  11 active torsions:
REMARK  status: ('A' for Active; 'I' for Inactive)
REMARK    1  A    between atoms: N1_1  and  C1_4
REMARK    2  A    between atoms: C2_7  and  N3_8
REMARK    3  A    between atoms: N3_8  and  C3_10
REMARK    4  A    between atoms: C3_10  and  C4_11
REMARK    5  A    between atoms: C6_16  and  N5_17
REMARK    6  A    between atoms: N5_17  and  O2_19
REMARK    7  A    between atoms: O2_19  and  N6_20
REMARK    8  A    between atoms: C7_25  and  N8_26
REMARK    9  A    between atoms: N8_26  and  C8_28
REMARK   10  A    between atoms: C8_28  and  C9_29
REMARK   11  A    between atoms: C9_29  and  O3_30
ROOT
HETATM    1  C1  UNL     1       9.579  -8.837 -11.811  1.00  0.00     0.144 A
HETATM    2  N2  UNL     1      10.665  -9.399 -11.203  1.00  0.00    -0.175 N
ATOM      3  H2  UNL     1      10.500 -10.041 -10.428  1.00  0.00     0.186 HD
HETATM    4  C2  UNL     1      11.914  -9.160 -11.556  1.00  0.00     0.680 A
HETATM    5  N4  UNL     1      12.171  -8.321 -12.571  1.00  0.00    -0.186 N
ATOM      6  H4  UNL     1      13.133  -8.129 -12.853  1.00  0.00     0.184 HD
HETATM    7  C5  UNL     1      11.127  -7.727 -13.221  1.00  0.00     0.126 A
HETATM    8  C6  UNL     1      11.424  -6.860 -14.271  1.00  0.00     0.172 A
HETATM    9  N7  UNL     1      10.412  -6.267 -14.922  1.00  0.00    -0.173 N
ATOM     10  H7  UNL     1      10.601  -5.627 -15.694  1.00  0.00     0.186 HD
HETATM   11  C7  UNL     1       9.158  -6.519 -14.552  1.00  0.00     0.680 A
HETATM   12  N9  UNL     1       8.838  -7.358 -13.535  1.00  0.00    -0.186 N
ATOM     13  H9  UNL     1       7.861  -7.520 -13.289  1.00  0.00     0.184 HD
HETATM   14  C10 UNL     1       9.821  -7.972 -12.856  1.00  0.00     0.124 A
ENDROOT
BRANCH   8  15
HETATM   15  N5  UNL     1      12.645  -6.667 -14.569  1.00  0.00    -0.223 N
ATOM     16  H5  UNL     1      13.011  -7.176 -15.373  1.00  0.00     0.198 HD
BRANCH  15  17
HETATM   17  O2  UNL     1      13.504  -5.850 -13.918  1.00  0.00    -0.162 OA
BRANCH  17  18
HETATM   18  N6  UNL     1      13.502  -4.485 -13.990  1.00  0.00    -0.286 N
ATOM     19  H62 UNL     1      13.756  -4.080 -14.892  1.00  0.00     0.186 HD
ATOM     20  H61 UNL     1      13.269  -3.855 -13.222  1.00  0.00     0.186 HD
ENDBRANCH  17  18
ENDBRANCH  15  17
ENDBRANCH   8  15
BRANCH  11  21
HETATM   21  N8  UNL     1       8.183  -5.961 -15.162  1.00  0.00    -0.224 N
ATOM     22  H8  UNL     1       7.665  -5.247 -14.650  1.00  0.00     0.177 HD
BRANCH  21  23
HETATM   23  C8  UNL     1       7.753  -6.243 -16.493  1.00  0.00     0.164 C
BRANCH  23  24
HETATM   24  C9  UNL     1       7.053  -7.605 -16.470  1.00  0.00     0.184 C
BRANCH  24  25
HETATM   25  O3  UNL     1       7.014  -8.045 -17.800  1.00  0.00    -0.399 OA
ATOM     26  H3  UNL     1       7.395  -8.915 -17.801  1.00  0.00     0.209 HD
ENDBRANCH  24  25
ENDBRANCH  23  24
ENDBRANCH  21  23
ENDBRANCH  11  21
BRANCH   4  27
HETATM   27  N3  UNL     1      12.905  -9.705 -10.963  1.00  0.00    -0.220 N
ATOM     28  H3  UNL     1      13.641  -9.107 -10.588  1.00  0.00     0.178 HD
BRANCH  27  29
HETATM   29  C3  UNL     1      13.024 -11.140 -10.801  1.00  0.00     0.207 C
BRANCH  29  30
HETATM   30  C4  UNL     1      13.115 -11.819 -12.128  1.00  0.00     0.251 C
HETATM   31  O1  UNL     1      14.054 -12.513 -12.399  1.00  0.00    -0.305 OA
ENDBRANCH  29  30
ENDBRANCH  27  29
ENDBRANCH   4  27
BRANCH   1  32
HETATM   32  N1  UNL     1       8.392  -9.116 -11.414  1.00  0.00    -0.383 N
ATOM     33  H12 UNL     1       7.738  -8.397 -11.105  1.00  0.00     0.157 HD
ATOM     34  H11 UNL     1       8.064 -10.082 -11.397  1.00  0.00     0.157 HD
ENDBRANCH   1  32
TORSDOF 11
ENDMDL