MODEL 3
REMARK VINA RESULT: -7.964717783      2.650      4.083
REMARK  8 active torsions:
REMARK  status: ('A' for Active; 'I' for Inactive)
REMARK    1  A    between atoms: N1_1  and  C1_4
REMARK    2  A    between atoms: C4_10  and  N3_11
REMARK    3  A    between atoms: N5_17  and  C6_19
REMARK    4  A    between atoms: C6_19  and  C7_20
REMARK    5  A    between atoms: C7_20  and  O2_21
REMARK    6  A    between atoms: O2_21  and  C8_22
REMARK    7  A    between atoms: C8_22  and  C9_23
REMARK    8  A    between atoms: C9_23  and  O3_24
ROOT
HETATM    1  C1  UNL     1      13.692 -10.251 -10.051  1.00  0.00     0.679 A
HETATM    2  N2  UNL     1      13.213 -11.126 -10.952  1.00  0.00    -0.155 N
ATOM      3  H2  UNL     1      13.262 -12.123 -10.741  1.00  0.00     0.187 HD
HETATM    4  C2  UNL     1      12.673 -10.742 -12.118  1.00  0.00     0.276 A
HETATM    5  O1  UNL     1      12.222 -11.543 -12.970  1.00  0.00    -0.267 OA
HETATM    6  C3  UNL     1      12.600  -9.401 -12.416  1.00  0.00     0.109 A
HETATM    7  C4  UNL     1      12.027  -9.127 -13.637  1.00  0.00     0.133 C
HETATM    8  N4  UNL     1      11.814  -7.906 -14.182  1.00  0.00    -0.176 N
ATOM      9  H4  UNL     1      11.690  -7.870 -15.194  1.00  0.00     0.186 HD
HETATM   10  C5  UNL     1      11.751  -6.736 -13.522  1.00  0.00     0.682 C
HETATM   11  N5  UNL     1      10.959  -5.862 -13.974  1.00  0.00    -0.224 N
ATOM     12  H5  UNL     1      10.924  -4.980 -13.463  1.00  0.00     0.177 HD
HETATM   13  N6  UNL     1      12.429  -6.336 -12.403  1.00  0.00    -0.154 N
ATOM     14  H6  UNL     1      12.407  -5.341 -12.176  1.00  0.00     0.187 HD
HETATM   15  C10 UNL     1      13.121  -7.140 -11.578  1.00  0.00     0.288 C
HETATM   16  O4  UNL     1      13.930  -6.596 -10.763  1.00  0.00    -0.265 OA
HETATM   17  C11 UNL     1      13.108  -8.523 -11.453  1.00  0.00     0.137 A
HETATM   18  N7  UNL     1      13.645  -8.929 -10.294  1.00  0.00    -0.185 N
ATOM     19  H7  UNL     1      14.006  -8.257  -9.618  1.00  0.00     0.184 HD
ENDROOT
BRANCH  11  20
HETATM   20  C6  UNL     1      10.110  -5.961 -15.115  1.00  0.00     0.164 C
BRANCH  20  21
HETATM   21  C7  UNL     1       8.756  -6.543 -14.705  1.00  0.00     0.188 C
BRANCH  21  22
HETATM   22  O2  UNL     1       8.774  -7.874 -14.721  1.00  0.00    -0.387 OA
BRANCH  22  23
HETATM   23  C8  UNL     1       7.996  -8.581 -13.897  1.00  0.00     0.193 C
BRANCH  23  24
HETATM   24  C9  UNL     1       8.588  -8.940 -12.573  1.00  0.00     0.190 C
BRANCH  24  25
HETATM   25  O3  UNL     1       9.014 -10.225 -12.496  1.00  0.00    -0.399 OA
ATOM     26  H3  UNL     1       8.441 -10.788 -11.989  1.00  0.00     0.209 HD
ENDBRANCH  24  25
ENDBRANCH  23  24
ENDBRANCH  22  23
ENDBRANCH  21  22
ENDBRANCH  20  21
ENDBRANCH  11  20
BRANCH   7  27
HETATM   27  N3  UNL     1      11.667 -10.145 -14.311  1.00  0.00    -0.384 N
ATOM     28  H32 UNL     1      12.034 -11.053 -14.028  1.00  0.00     0.157 HD
ATOM     29  H31 UNL     1      11.031  -9.954 -15.086  1.00  0.00     0.157 HD
ENDBRANCH   7  27
BRANCH   1  30
HETATM   30  N1  UNL     1      14.206 -10.703  -8.933  1.00  0.00    -0.234 N
ATOM     31  H12 UNL     1      14.948 -10.188  -8.460  1.00  0.00     0.174 HD
ATOM     32  H11 UNL     1      13.855 -11.578  -8.543  1.00  0.00     0.174 HD
ENDBRANCH   1  30
TORSDOF 8
ENDMDL