MODEL 4
REMARK VINA RESULT: -9.123679631      2.004      2.775
REMARK  8 active torsions:
REMARK  status: ('A' for Active; 'I' for Inactive)
REMARK    1  A    between atoms: N1_1  and  C1_4
REMARK    2  A    between atoms: C3_11  and  N5_12
REMARK    3  A    between atoms: N5_12  and  C4_14
REMARK    4  A    between atoms: C4_14  and  C5_15
REMARK    5  A    between atoms: C4_14  and  C9_25
REMARK    6  A    between atoms: C5_15  and  C6_16
REMARK    7  A    between atoms: C6_16  and  C7_17
REMARK       I    between atoms: C9_25  and  N9_27
REMARK    8  A    between atoms: N9_27  and  N10_29
ROOT
HETATM    1  C4  UNL     1       8.913  -7.258 -14.321  1.00  0.00     0.177 C
ENDROOT
BRANCH   1   2
HETATM    2  N5  UNL     1      10.259  -6.864 -14.352  1.00  0.00    -0.358 N
ATOM      3  H5  UNL     1      10.421  -6.051 -14.944  1.00  0.00     0.162 HD
BRANCH   2   4
HETATM    4  C3  UNL     1      11.313  -7.294 -13.807  1.00  0.00     0.174 C
HETATM    5  N4  UNL     1      11.847  -8.464 -14.315  1.00  0.00    -0.312 N
HETATM    6  C2  UNL     1      12.509  -9.443 -13.648  1.00  0.00     0.208 C
ATOM      7  H4  UNL     1      11.729  -8.609 -15.318  1.00  0.00     0.170 HD
HETATM    8  N2  UNL     1      13.076  -9.312 -12.444  1.00  0.00    -0.163 N
HETATM    9  N3  UNL     1      12.608 -10.715 -14.278  1.00  0.00    -0.063 NA
HETATM   10  C1  UNL     1      12.964  -8.345 -11.510  1.00  0.00     0.681 C
ATOM     11  H2  UNL     1      13.703 -10.076 -12.187  1.00  0.00     0.187 HD
HETATM   12  N11 UNL     1      12.422  -7.101 -11.641  1.00  0.00    -0.153 N
HETATM   13  C10 UNL     1      11.850  -6.571 -12.760  1.00  0.00     0.303 C
ATOM     14  H11 UNL     1      12.447  -6.503 -10.815  1.00  0.00     0.187 HD
HETATM   15  O2  UNL     1      11.807  -5.325 -12.847  1.00  0.00    -0.263 OA
BRANCH  10  16
HETATM   16  N1  UNL     1      13.410  -8.589 -10.340  1.00  0.00    -0.234 N
ATOM     17  H12 UNL     1      14.058  -9.378 -10.304  1.00  0.00     0.174 HD
ATOM     18  H11 UNL     1      13.093  -7.996  -9.574  1.00  0.00     0.174 HD
ENDBRANCH  10  16
ENDBRANCH   2   4
ENDBRANCH   1   2
BRANCH   1  19
HETATM   19  C5  UNL     1       8.110  -6.655 -15.493  1.00  0.00     0.042 C
BRANCH  19  20
HETATM   20  C6  UNL     1       7.249  -7.712 -16.150  1.00  0.00     0.080 C
BRANCH  20  21
HETATM   21  C7  UNL     1       7.075  -7.315 -17.562  1.00  0.00     0.096 A
HETATM   22  N6  UNL     1       6.769  -8.160 -18.556  1.00  0.00    -0.288 N
HETATM   23  N7  UNL     1       6.678  -7.525 -19.713  1.00  0.00    -0.295 N
ATOM     24  H6  UNL     1       6.625  -9.163 -18.436  1.00  0.00     0.188 HD
HETATM   25  C8  UNL     1       6.937  -6.237 -19.426  1.00  0.00     0.198 A
ATOM     26  H7  UNL     1       6.459  -7.926 -20.625  1.00  0.00     0.187 HD
HETATM   27  N8  UNL     1       7.181  -6.105 -18.108  1.00  0.00    -0.340 N
ATOM     28  H8  UNL     1       7.405  -5.239 -17.619  1.00  0.00     0.168 HD
ENDBRANCH  20  21
ENDBRANCH  19  20
ENDBRANCH   1  19
BRANCH   1  29
HETATM   29  C9  UNL     1       8.177  -6.817 -13.112  1.00  0.00     0.258 C
HETATM   30  O1  UNL     1       7.776  -7.653 -12.278  1.00  0.00    -0.269 OA
HETATM   31  N9  UNL     1       7.932  -5.448 -12.906  1.00  0.00    -0.275 N
ATOM     32  H9  UNL     1       8.258  -4.760 -13.585  1.00  0.00     0.189 HD
BRANCH  31  33
HETATM   33  N10 UNL     1       7.238  -5.036 -11.764  1.00  0.00    -0.343 N
ATOM     34 2H10 UNL     1       6.780  -4.124 -11.762  1.00  0.00     0.176 HD
ATOM     35 1H10 UNL     1       7.198  -5.650 -10.950  1.00  0.00     0.176 HD
ENDBRANCH  31  33
ENDBRANCH   1  29
TORSDOF 8
ENDMDL