MODEL 2
REMARK VINA RESULT: -7.309384164      5.363     10.287
REMARK  14 active torsions:
REMARK  status: ('A' for Active; 'I' for Inactive)
REMARK    1  A    between atoms: O1_2  and  C2_3
REMARK    2  A    between atoms: C2_3  and  C3_5
REMARK    3  A    between atoms: N1_7  and  C5_8
REMARK    4  A    between atoms: C5_8  and  C6_9
REMARK    5  A    between atoms: C5_8  and  C12_33
REMARK       I    between atoms: C6_9  and  N2_11
REMARK    6  A    between atoms: N2_11  and  C7_13
REMARK    7  A    between atoms: C7_13  and  C8_17
REMARK    8  A    between atoms: C9_22  and  C10_23
REMARK       I    between atoms: N11_36  and  C15_37
REMARK    9  A    between atoms: C15_37  and  O5_39
REMARK   10  A    between atoms: O5_39  and  C16_40
REMARK   11  A    between atoms: C21_46  and  N12_47
REMARK       I    between atoms: N12_47  and  C22_49
REMARK   12  A    between atoms: C24_52  and  C25_53
REMARK   13  A    between atoms: C25_53  and  O8_54
REMARK   14  A    between atoms: C25_53  and  O9_56
ROOT
HETATM    1  C5  UNL     1      26.944   5.497  32.853  1.00  0.00     0.122 C
ENDROOT
BRANCH   1   2
HETATM    2  N1  UNL     1      25.931   5.379  31.848  1.00  0.00    -0.281 N
HETATM    3  C4  UNL     1      26.233   5.000  30.604  1.00  0.00     0.119 A
HETATM    4  C3  UNL     1      25.218   4.888  29.610  1.00  0.00     0.073 A
HETATM    5  C24 UNL     1      23.915   5.160  29.890  1.00  0.00     0.072 A
HETATM    6  C21 UNL     1      23.644   5.553  31.214  1.00  0.00     0.120 A
HETATM    7  C20 UNL     1      24.634   5.654  32.144  1.00  0.00     0.280 A
HETATM    8  O6  UNL     1      24.356   6.015  33.341  1.00  0.00    -0.265 OA
BRANCH   4   9
HETATM    9  C2  UNL     1      25.660   4.452  28.302  1.00  0.00     0.295 C
HETATM   10  O2  UNL     1      25.920   5.182  27.357  1.00  0.00    -0.259 OA
BRANCH   9  11
HETATM   11  O1  UNL     1      25.815   3.059  28.062  1.00  0.00    -0.322 OA
HETATM   12  C1  UNL     1      24.954   2.172  28.743  1.00  0.00     0.213 C
ENDBRANCH   9  11
ENDBRANCH   4   9
BRANCH   5  13
HETATM   13  C25 UNL     1      22.806   5.138  28.977  1.00  0.00     0.191 C
BRANCH  13  14
HETATM   14  O8  UNL     1      22.244   6.289  28.714  1.00  0.00    -0.340 OA
ATOM     15  H8  UNL     1      21.741   6.341  27.909  1.00  0.00     0.220 HD
ENDBRANCH  13  14
BRANCH  13  16
HETATM   16  O9  UNL     1      22.185   4.135  28.296  1.00  0.00    -0.335 OA
HETATM   17  C26 UNL     1      21.363   3.151  28.942  1.00  0.00     0.212 C
ENDBRANCH  13  16
ENDBRANCH   5  13
BRANCH   6  18
HETATM   18  N12 UNL     1      22.329   5.864  31.666  1.00  0.00    -0.322 N
HETATM   19  C22 UNL     1      21.536   4.830  32.242  1.00  0.00     0.218 C
HETATM   20  C23 UNL     1      20.167   5.083  32.730  1.00  0.00     0.117 C
HETATM   21  O7  UNL     1      21.988   3.646  32.353  1.00  0.00    -0.274 OA
ATOM     22  H12 UNL     1      21.961   6.811  31.579  1.00  0.00     0.169 HD
ENDBRANCH   6  18
ENDBRANCH   1   2
BRANCH   1  23
HETATM   23  C6  UNL     1      27.637   4.222  33.182  1.00  0.00     0.275 C
HETATM   24  O3  UNL     1      28.281   3.619  32.254  1.00  0.00    -0.266 OA
HETATM   25  N2  UNL     1      27.588   3.691  34.475  1.00  0.00    -0.305 N
ATOM     26  H2  UNL     1      27.046   4.241  35.140  1.00  0.00     0.171 HD
BRANCH  25  27
HETATM   27  C7  UNL     1      28.152   2.542  35.002  1.00  0.00     0.148 C
HETATM   28  N3  UNL     1      27.438   1.960  35.982  1.00  0.00    -0.382 N
ATOM     29  H32 UNL     1      26.573   2.455  36.197  1.00  0.00     0.157 HD
ATOM     30  H31 UNL     1      27.854   1.114  36.370  1.00  0.00     0.157 HD
BRANCH  27  31
HETATM   31  C8  UNL     1      29.376   1.842  34.697  1.00  0.00     0.166 A
HETATM   32  N4  UNL     1      29.992   1.615  33.548  1.00  0.00    -0.281 N
HETATM   33  N5  UNL     1      31.110   0.920  33.708  1.00  0.00    -0.281 N
ATOM     34  H4  UNL     1      29.646   1.937  32.643  1.00  0.00     0.188 HD
HETATM   35  C9  UNL     1      31.244   0.674  35.021  1.00  0.00     0.169 A
ATOM     36  H5  UNL     1      31.750   0.627  32.970  1.00  0.00     0.188 HD
HETATM   37  N10 UNL     1      30.202   1.227  35.615  1.00  0.00    -0.320 N
ATOM     38  H10 UNL     1      30.031   1.202  36.620  1.00  0.00     0.169 HD
BRANCH  35  39
HETATM   39  C10 UNL     1      32.328  -0.060  35.656  1.00  0.00     0.180 A
HETATM   40  N6  UNL     1      32.298  -0.582  36.909  1.00  0.00    -0.264 N
HETATM   41  N7  UNL     1      33.465  -1.169  37.117  1.00  0.00    -0.003 NA
ATOM     42  H6  UNL     1      31.520  -0.530  37.567  1.00  0.00     0.186 HD
HETATM   43  N8  UNL     1      34.247  -1.050  36.056  1.00  0.00    -0.221 N
HETATM   44  C11 UNL     1      35.614  -1.566  35.894  1.00  0.00     0.197 C
HETATM   45  N9  UNL     1      33.542  -0.370  35.168  1.00  0.00    -0.267 N
ATOM     46  H9  UNL     1      33.874  -0.115  34.238  1.00  0.00     0.190 HD
ENDBRANCH  35  39
ENDBRANCH  27  31
ENDBRANCH  25  27
ENDBRANCH   1  23
BRANCH   1  47
HETATM   47  C12 UNL     1      27.826   6.656  32.727  1.00  0.00     0.014 A
HETATM   48  C13 UNL     1      29.070   6.843  33.310  1.00  0.00     0.033 A
HETATM   49  C14 UNL     1      29.543   8.068  32.937  1.00  0.00     0.102 A
HETATM   50  N11 UNL     1      28.629   8.635  32.145  1.00  0.00    -0.279 N
HETATM   51  C15 UNL     1      28.727   9.923  31.535  1.00  0.00     0.371 C
HETATM   52  C19 UNL     1      27.600   7.825  32.001  1.00  0.00     0.115 A
HETATM   53  O4  UNL     1      29.754  10.618  31.737  1.00  0.00    -0.238 OA
BRANCH  51  54
HETATM   54  O5  UNL     1      27.718  10.425  30.724  1.00  0.00    -0.299 OA
BRANCH  54  55
HETATM   55  C16 UNL     1      27.837  10.312  29.307  1.00  0.00     0.125 C
HETATM   56  C17 UNL     1      27.905  11.746  28.779  1.00  0.00     0.040 C
HETATM   57  C18 UNL     1      26.681   9.561  28.708  1.00  0.00     0.040 C
ENDBRANCH  54  55
ENDBRANCH  51  54
ENDBRANCH   1  47
TORSDOF 14
ENDMDL