MODEL 3
REMARK VINA RESULT: -6.428827984      2.739      5.030
REMARK  17 active torsions:
REMARK  status: ('A' for Active; 'I' for Inactive)
REMARK    1  A    between atoms: C2_2  and  O2_4
REMARK    2  A    between atoms: O2_4  and  C3_5
REMARK    3  A    between atoms: C4_6  and  N1_7
REMARK    4  A    between atoms: C5_11  and  O3_12
REMARK    5  A    between atoms: O3_12  and  C6_13
REMARK    6  A    between atoms: C8_16  and  O5_17
REMARK    7  A    between atoms: O5_17  and  C9_18
REMARK    8  A    between atoms: C9_18  and  C10_20
REMARK    9  A    between atoms: C10_20  and  O7_21
REMARK   10  A    between atoms: C10_20  and  C21_37
REMARK   11  A    between atoms: O7_21  and  C11_22
REMARK   12  A    between atoms: C11_22  and  C12_24
REMARK   13  A    between atoms: C21_37  and  O9_39
REMARK   14  A    between atoms: C23_41  and  O10_42
REMARK   15  A    between atoms: O10_42  and  C24_43
REMARK   16  A    between atoms: C26_46  and  O12_47
REMARK   17  A    between atoms: O12_47  and  C27_48
ROOT
HETATM    1  C12 UNL     1      26.441   5.833  29.809  1.00  0.00     0.072 A
HETATM    2  C13 UNL     1      26.873   4.945  30.743  1.00  0.00    -0.021 A
HETATM    3  C14 UNL     1      26.478   3.515  30.689  1.00  0.00     0.051 C
HETATM    4  C15 UNL     1      27.696   5.337  31.779  1.00  0.00     0.077 A
HETATM    5  C16 UNL     1      28.142   4.382  32.756  1.00  0.00     0.102 C
HETATM    6  N2  UNL     1      28.491   3.604  33.535  1.00  0.00    -0.191 NA
HETATM    7  C17 UNL     1      28.124   6.639  31.925  1.00  0.00     0.090 A
HETATM    8  N3  UNL     1      28.972   7.047  32.990  1.00  0.00    -0.099 NA
HETATM    9  C18 UNL     1      27.682   7.550  30.969  1.00  0.00     0.095 A
HETATM   10  C19 UNL     1      28.113   8.910  31.100  1.00  0.00     0.103 C
HETATM   11  N4  UNL     1      28.452  10.010  31.223  1.00  0.00    -0.191 NA
HETATM   12  C20 UNL     1      26.868   7.154  29.949  1.00  0.00     0.086 A
HETATM   13  N5  UNL     1      26.418   8.087  28.973  1.00  0.00    -0.100 NA
ENDROOT
BRANCH   1  14
HETATM   14  C11 UNL     1      25.570   5.442  28.707  1.00  0.00     0.296 C
HETATM   15  O8  UNL     1      25.984   5.094  27.577  1.00  0.00    -0.259 OA
BRANCH  14  16
HETATM   16  O7  UNL     1      24.190   5.441  28.870  1.00  0.00    -0.299 OA
BRANCH  16  17
HETATM   17  C10 UNL     1      23.329   4.594  28.137  1.00  0.00     0.259 C
BRANCH  17  18
HETATM   18  C9  UNL     1      22.117   5.317  27.668  1.00  0.00     0.291 C
HETATM   19  O6  UNL     1      21.619   6.152  28.446  1.00  0.00    -0.262 OA
BRANCH  18  20
HETATM   20  O5  UNL     1      21.534   5.120  26.454  1.00  0.00    -0.308 OA
BRANCH  20  21
HETATM   21  C8  UNL     1      20.177   5.379  26.148  1.00  0.00     0.195 C
HETATM   22  C5  UNL     1      19.555   4.181  25.543  1.00  0.00     0.197 C
HETATM   23  C4  UNL     1      19.604   4.112  24.051  1.00  0.00     0.247 C
HETATM   24  C3  UNL     1      19.348   5.403  23.351  1.00  0.00     0.197 C
HETATM   25  C26 UNL     1      20.143   6.538  23.907  1.00  0.00     0.195 C
HETATM   26  C23 UNL     1      19.971   6.661  25.399  1.00  0.00     0.196 C
BRANCH  22  27
HETATM   27  O3  UNL     1      18.246   4.012  26.059  1.00  0.00    -0.311 OA
BRANCH  27  28
HETATM   28  C6  UNL     1      17.956   3.511  27.295  1.00  0.00     0.255 C
HETATM   29  C7  UNL     1      16.595   3.273  27.828  1.00  0.00     0.126 C
HETATM   30  O4  UNL     1      18.912   3.222  28.061  1.00  0.00    -0.266 OA
ENDBRANCH  27  28
ENDBRANCH  22  27
BRANCH  23  31
HETATM   31  N1  UNL     1      20.905   3.612  23.579  1.00  0.00    -0.070 N
ATOM     32  H13 UNL     1      21.166   3.978  22.664  1.00  0.00     0.274 HD
ATOM     33  H12 UNL     1      21.693   3.994  24.102  1.00  0.00     0.274 HD
ATOM     34  H11 UNL     1      20.864   2.593  23.607  1.00  0.00     0.274 HD
ENDBRANCH  23  31
BRANCH  24  35
HETATM   35  O2  UNL     1      17.985   5.782  23.359  1.00  0.00    -0.311 OA
BRANCH  35  36
HETATM   36  C2  UNL     1      17.441   6.700  22.495  1.00  0.00     0.255 C
HETATM   37  C1  UNL     1      16.795   7.912  23.087  1.00  0.00     0.126 C
HETATM   38  O1  UNL     1      17.504   6.494  21.265  1.00  0.00    -0.266 OA
ENDBRANCH  35  36
ENDBRANCH  24  35
BRANCH  25  39
HETATM   39  O12 UNL     1      21.509   6.497  23.581  1.00  0.00    -0.311 OA
BRANCH  39  40
HETATM   40  C27 UNL     1      21.932   6.578  22.265  1.00  0.00     0.255 C
HETATM   41  C28 UNL     1      21.682   7.751  21.395  1.00  0.00     0.126 C
HETATM   42  O13 UNL     1      22.567   5.568  21.809  1.00  0.00    -0.266 OA
ENDBRANCH  39  40
ENDBRANCH  25  39
BRANCH  26  43
HETATM   43  O10 UNL     1      18.673   7.157  25.680  1.00  0.00    -0.311 OA
BRANCH  43  44
HETATM   44  C24 UNL     1      18.252   7.527  26.949  1.00  0.00     0.255 C
HETATM   45  C25 UNL     1      18.984   8.504  27.799  1.00  0.00     0.126 C
HETATM   46  O11 UNL     1      17.189   6.983  27.366  1.00  0.00    -0.266 OA
ENDBRANCH  43  44
ENDBRANCH  26  43
ENDBRANCH  20  21
ENDBRANCH  18  20
ENDBRANCH  17  18
BRANCH  17  47
HETATM   47  C21 UNL     1      22.959   3.370  28.951  1.00  0.00     0.153 C
HETATM   48  C22 UNL     1      23.917   2.261  28.555  1.00  0.00     0.042 C
BRANCH  47  49
HETATM   49  O9  UNL     1      21.650   2.992  28.766  1.00  0.00    -0.393 OA
ATOM     50  H9  UNL     1      21.148   3.020  29.572  1.00  0.00     0.210 HD
ENDBRANCH  47  49
ENDBRANCH  17  47
ENDBRANCH  16  17
ENDBRANCH  14  16
ENDBRANCH   1  14
TORSDOF 17
ENDMDL