MODEL 5
REMARK VINA RESULT: -5.376822656      1.456      1.645
REMARK  17 active torsions:
REMARK  status: ('A' for Active; 'I' for Inactive)
REMARK    1  A    between atoms: O1_2  and  C2_3
REMARK    2  A    between atoms: C2_3  and  O2_4
REMARK    3  A    between atoms: O2_4  and  C3_5
REMARK    4  A    between atoms: C5_8  and  O4_9
REMARK    5  A    between atoms: O4_9  and  C6_10
REMARK    6  A    between atoms: C11_17  and  O7_18
REMARK    7  A    between atoms: C12_20  and  O8_21
REMARK    8  A    between atoms: O8_21  and  C13_22
REMARK    9  A    between atoms: C16_26  and  O10_27
REMARK   10  A    between atoms: O10_27  and  C17_28
REMARK   11  A    between atoms: C17_28  and  C18_30
REMARK   12  A    between atoms: C22_34  and  O12_35
REMARK   13  A    between atoms: O12_35  and  C23_36
REMARK   14  A    between atoms: C23_36  and  O14_38
REMARK   15  A    between atoms: O14_38  and  N1_39
REMARK   16  A    between atoms: N1_39  and  C24_41
REMARK   17  A    between atoms: C27_48  and  O16_49
ROOT
HETATM    1  C2  UNL     1      19.370   4.802  27.189  1.00  0.00     0.232 C
HETATM    2  C5  UNL     1      18.698   6.156  27.165  1.00  0.00     0.204 C
HETATM    3  C8  UNL     1      18.346   6.612  25.757  1.00  0.00     0.051 C
HETATM    4  C9  UNL     1      17.339   7.731  25.881  1.00  0.00     0.015 C
HETATM    5  C10 UNL     1      19.469   6.970  24.899  1.00  0.00     0.196 A
HETATM    6  O6  UNL     1      19.680   8.235  24.332  1.00  0.00    -0.339 OA
HETATM    7  C11 UNL     1      20.528   7.835  25.366  1.00  0.00     0.217 A
HETATM    8  C12 UNL     1      21.851   7.193  25.028  1.00  0.00     0.199 C
HETATM    9  C15 UNL     1      22.803   7.056  26.123  1.00  0.00     0.071 C
HETATM   10  C16 UNL     1      22.344   6.552  27.460  1.00  0.00     0.144 C
HETATM   11  C21 UNL     1      21.928   5.112  27.511  1.00  0.00     0.093 C
HETATM   12  C22 UNL     1      22.768   4.513  28.672  1.00  0.00     0.213 C
HETATM   13  C25 UNL     1      21.934   4.948  29.809  1.00  0.00     0.160 C
HETATM   14  O15 UNL     1      22.238   4.915  30.975  1.00  0.00    -0.295 OA
HETATM   15  C26 UNL     1      20.591   5.466  29.341  1.00  0.00     0.125 C
HETATM   16  C27 UNL     1      20.598   4.765  28.028  1.00  0.00     0.132 C
ENDROOT
BRANCH  12  17
HETATM   17  O12 UNL     1      22.958   3.153  28.541  1.00  0.00    -0.283 OA
BRANCH  17  18
HETATM   18  C23 UNL     1      24.116   2.535  28.885  1.00  0.00     0.429 C
HETATM   19  O13 UNL     1      24.413   1.454  28.305  1.00  0.00    -0.227 OA
BRANCH  18  20
HETATM   20  O14 UNL     1      25.021   2.994  29.839  1.00  0.00    -0.174 OA
BRANCH  20  21
HETATM   21  N1  UNL     1      26.159   3.680  29.438  1.00  0.00    -0.252 N
ATOM     22  H1  UNL     1      26.876   3.177  28.915  1.00  0.00     0.195 HD
BRANCH  21  23
HETATM   23  C24 UNL     1      26.365   5.053  29.726  1.00  0.00     0.198 C
HETATM   24  N2  UNL     1      26.592   5.948  28.819  1.00  0.00    -0.394 N
ATOM     25  H22 UNL     1      26.621   5.632  27.850  1.00  0.00     0.156 HD
ATOM     26  H21 UNL     1      26.740   6.936  29.027  1.00  0.00     0.156 HD
ENDBRANCH  21  23
ENDBRANCH  20  21
ENDBRANCH  18  20
ENDBRANCH  17  18
ENDBRANCH  12  17
BRANCH  10  27
HETATM   27  O10 UNL     1      23.524   6.820  28.258  1.00  0.00    -0.315 OA
BRANCH  27  28
HETATM   28  C17 UNL     1      23.845   8.037  28.740  1.00  0.00     0.262 C
HETATM   29  O11 UNL     1      25.015   8.467  28.594  1.00  0.00    -0.265 OA
BRANCH  28  30
HETATM   30  C18 UNL     1      22.777   8.830  29.439  1.00  0.00     0.077 C
HETATM   31  C19 UNL     1      22.735   8.511  30.909  1.00  0.00     0.020 C
HETATM   32  C20 UNL     1      23.054  10.287  29.172  1.00  0.00     0.020 C
ENDBRANCH  28  30
ENDBRANCH  27  28
ENDBRANCH  10  27
BRANCH  16  33
HETATM   33  O16 UNL     1      20.671   3.438  28.561  1.00  0.00    -0.383 OA
ATOM     34  H16 UNL     1      21.572   3.158  28.443  1.00  0.00     0.210 HD
ENDBRANCH  16  33
BRANCH   1  35
HETATM   35  O1  UNL     1      18.520   3.868  27.709  1.00  0.00    -0.355 OA
HETATM   36  C1  UNL     1      17.399   3.442  27.202  1.00  0.00     0.205 C
ENDBRANCH   1  35
BRANCH   1  37
HETATM   37  O2  UNL     1      19.615   4.488  25.845  1.00  0.00    -0.277 OA
BRANCH  37  38
HETATM   38  C3  UNL     1      20.233   3.436  25.277  1.00  0.00     0.257 C
HETATM   39  C4  UNL     1      20.595   3.329  23.833  1.00  0.00     0.126 C
HETATM   40  O3  UNL     1      20.523   2.488  25.999  1.00  0.00    -0.266 OA
ENDBRANCH  37  38
ENDBRANCH   1  37
BRANCH   8  41
HETATM   41  O8  UNL     1      22.506   7.871  23.960  1.00  0.00    -0.311 OA
BRANCH  41  42
HETATM   42  C13 UNL     1      22.785   7.299  22.739  1.00  0.00     0.255 C
HETATM   43  C14 UNL     1      23.685   7.988  21.783  1.00  0.00     0.126 C
HETATM   44  O9  UNL     1      22.241   6.193  22.508  1.00  0.00    -0.266 OA
ENDBRANCH  41  42
ENDBRANCH   8  41
BRANCH   2  45
HETATM   45  O4  UNL     1      17.520   6.277  27.907  1.00  0.00    -0.310 OA
BRANCH  45  46
HETATM   46  C6  UNL     1      17.356   6.762  29.172  1.00  0.00     0.255 C
HETATM   47  C7  UNL     1      17.888   8.079  29.626  1.00  0.00     0.126 C
HETATM   48  O5  UNL     1      16.725   6.065  29.998  1.00  0.00    -0.266 OA
ENDBRANCH  45  46
ENDBRANCH   2  45
BRANCH   7  49
HETATM   49  O7  UNL     1      20.432   8.758  26.372  1.00  0.00    -0.361 OA
ATOM     50  H7  UNL     1      20.957   9.545  26.462  1.00  0.00     0.213 HD
ENDBRANCH   7  49
TORSDOF 17
ENDMDL