MODEL 3
REMARK VINA RESULT: -6.749540955      1.226      1.665
REMARK  13 active torsions:
REMARK  status: ('A' for Active; 'I' for Inactive)
REMARK    1  A    between atoms: C2_2  and  C3_3
REMARK    2  A    between atoms: C3_3  and  N1_4
REMARK    3  A    between atoms: C5_7  and  C6_8
REMARK    4  A    between atoms: N2_9  and  N3_11
REMARK    5  A    between atoms: N3_11  and  C7_13
REMARK    6  A    between atoms: N6_22  and  C12_23
REMARK    7  A    between atoms: C12_23  and  C13_24
REMARK    8  A    between atoms: C13_24  and  O4_25
REMARK    9  A    between atoms: C13_24  and  C14_27
REMARK   10  A    between atoms: C14_27  and  O5_28
REMARK   11  A    between atoms: C14_27  and  C15_30
REMARK   12  A    between atoms: C17_33  and  C18_34
REMARK   13  A    between atoms: N9_46  and  N10_47
ROOT
HETATM    1  N1  UNL     1      28.554   7.429  33.121  1.00  0.00    -0.285 N
HETATM    2  C4  UNL     1      28.368   6.164  33.528  1.00  0.00     0.264 A
HETATM    3  O1  UNL     1      28.887   5.860  34.644  1.00  0.00    -0.267 OA
HETATM    4  C5  UNL     1      27.655   5.218  32.795  1.00  0.00     0.080 A
HETATM    5  C17 UNL     1      27.120   5.609  31.601  1.00  0.00     0.103 A
HETATM    6  N9  UNL     1      27.308   6.879  31.195  1.00  0.00    -0.233 N
HETATM    7  C26 UNL     1      28.013   7.764  31.947  1.00  0.00     0.203 A
HETATM    8  S2  UNL     1      28.200   9.299  31.383  1.00  0.00    -0.038 SA
ENDROOT
BRANCH   4   9
HETATM    9  C6  UNL     1      27.537   3.861  33.305  1.00  0.00     0.127 C
HETATM   10  N2  UNL     1      27.227   3.604  34.496  1.00  0.00    -0.297 N
ATOM     11  H2  UNL     1      27.084   4.481  34.997  1.00  0.00     0.186 HD
BRANCH  10  12
HETATM   12  N3  UNL     1      27.025   2.621  35.304  1.00  0.00    -0.132 N
ATOM     13  H3  UNL     1      27.827   2.020  35.116  1.00  0.00     0.205 HD
BRANCH  12  14
HETATM   14  C7  UNL     1      26.426   1.991  36.168  1.00  0.00     0.709 A
HETATM   15  N4  UNL     1      25.191   2.336  36.592  1.00  0.00    -0.135 N
HETATM   16  C8  UNL     1      24.449   3.473  36.026  1.00  0.00     0.180 C
HETATM   17  C9  UNL     1      24.560   1.635  37.554  1.00  0.00     0.346 A
HETATM   18  O2  UNL     1      23.393   1.981  37.940  1.00  0.00    -0.246 OA
HETATM   19  N5  UNL     1      25.138   0.585  38.108  1.00  0.00    -0.255 N
HETATM   20  C10 UNL     1      24.490  -0.194  39.143  1.00  0.00     0.166 C
HETATM   21  C11 UNL     1      26.376   0.232  37.687  1.00  0.00     0.346 A
HETATM   22  O3  UNL     1      26.889  -0.769  38.237  1.00  0.00    -0.246 OA
HETATM   23  N6  UNL     1      27.035   0.883  36.753  1.00  0.00    -0.128 N
BRANCH  23  24
HETATM   24  C12 UNL     1      28.335   0.520  36.309  1.00  0.00     0.187 C
BRANCH  24  25
HETATM   25  C13 UNL     1      29.445   1.151  37.099  1.00  0.00     0.173 C
BRANCH  25  26
HETATM   26  O4  UNL     1      30.181   0.065  37.655  1.00  0.00    -0.391 OA
ATOM     27  H4  UNL     1      30.189  -0.606  36.983  1.00  0.00     0.210 HD
ENDBRANCH  25  26
BRANCH  25  28
HETATM   28  C14 UNL     1      30.462   1.844  36.205  1.00  0.00     0.217 C
BRANCH  28  29
HETATM   29  O5  UNL     1      29.882   3.027  35.725  1.00  0.00    -0.385 OA
ATOM     30  H5  UNL     1      30.579   3.654  35.574  1.00  0.00     0.210 HD
ENDBRANCH  28  29
BRANCH  28  31
HETATM   31  C15 UNL     1      30.953   1.022  35.091  1.00  0.00     0.154 C
HETATM   32  C16 UNL     1      30.412   1.332  33.714  1.00  0.00     0.093 C
HETATM   33  O6  UNL     1      31.758   0.116  35.192  1.00  0.00    -0.295 OA
ENDBRANCH  28  31
ENDBRANCH  25  28
ENDBRANCH  24  25
ENDBRANCH  23  24
ENDBRANCH  12  14
ENDBRANCH  10  12
ENDBRANCH   4   9
BRANCH   5  34
HETATM   34  C18 UNL     1      26.307   4.651  30.779  1.00  0.00     0.080 A
HETATM   35  N7  UNL     1      26.917   3.971  29.809  1.00  0.00    -0.323 N
HETATM   36  S1  UNL     1      25.702   3.052  29.118  1.00  0.00    -0.014 SA
ATOM     37  H7  UNL     1      27.901   4.004  29.546  1.00  0.00     0.174 HD
HETATM   38  C19 UNL     1      24.390   3.548  30.088  1.00  0.00     0.035 A
HETATM   39  C20 UNL     1      23.015   3.244  30.137  1.00  0.00     0.029 A
HETATM   40  C25 UNL     1      24.973   4.444  30.943  1.00  0.00     0.014 A
HETATM   41  C21 UNL     1      22.191   3.842  31.055  1.00  0.00    -0.036 A
HETATM   42  C22 UNL     1      20.764   3.518  31.095  1.00  0.00     0.050 C
HETATM   43  C23 UNL     1      22.775   4.738  31.907  1.00  0.00     0.053 A
HETATM   44  N8  UNL     1      21.952   5.380  32.884  1.00  0.00    -0.102 NA
HETATM   45  C24 UNL     1      24.115   5.056  31.886  1.00  0.00     0.042 A
ENDBRANCH   5  34
BRANCH   1  46
HETATM   46  C3  UNL     1      29.303   8.386  33.928  1.00  0.00     0.161 C
BRANCH  46  47
HETATM   47  C2  UNL     1      30.751   7.992  33.859  1.00  0.00    -0.017 C
HETATM   48  C1  UNL     1      31.531   8.584  32.964  1.00  0.00     0.008 C
ENDBRANCH  46  47
ENDBRANCH   1  46
BRANCH   6  49
HETATM   49  N10 UNL     1      26.747   7.330  29.981  1.00  0.00    -0.336 N
ATOM     50 2H10 UNL     1      25.730   7.339  29.892  1.00  0.00     0.177 HD
ATOM     51 1H10 UNL     1      27.349   7.620  29.210  1.00  0.00     0.177 HD
ENDBRANCH   6  49
TORSDOF 13
ENDMDL