MODEL 2
REMARK VINA RESULT: -6.461818885      1.472      1.692
REMARK  17 active torsions:
REMARK  status: ('A' for Active; 'I' for Inactive)
REMARK    1  A    between atoms: C2_2  and  C3_3
REMARK    2  A    between atoms: N1_4  and  N2_6
REMARK       I    between atoms: N2_6  and  C4_8
REMARK    3  A    between atoms: C4_8  and  O2_10
REMARK    4  A    between atoms: O2_10  and  C5_11
REMARK    5  A    between atoms: C7_16  and  C8_17
REMARK    6  A    between atoms: C8_17  and  O4_19
REMARK    7  A    between atoms: O4_19  and  C9_20
REMARK    8  A    between atoms: C11_24  and  N4_25
REMARK    9  A    between atoms: C12_28  and  C13_29
REMARK   10  A    between atoms: N5_31  and  N6_33
REMARK       I    between atoms: N6_33  and  C15_35
REMARK   11  A    between atoms: C15_35  and  O8_37
REMARK   12  A    between atoms: C18_40  and  O9_41
REMARK   13  A    between atoms: O9_41  and  C19_42
REMARK   14  A    between atoms: C19_42  and  O11_44
REMARK   15  A    between atoms: O11_44  and  C20_45
REMARK   16  A    between atoms: C22_47  and  O12_48
REMARK   17  A    between atoms: O12_48  and  C23_49
ROOT
HETATM    1  C5  UNL     1      21.837   5.421  28.132  1.00  0.00     0.362 C
HETATM    2  N3  UNL     1      22.713   4.289  28.214  1.00  0.00    -0.038 N
ATOM      3  H31 UNL     1      23.640   4.522  28.571  1.00  0.00     0.281 HD
ATOM      4  H32 UNL     1      23.011   3.943  27.301  1.00  0.00     0.281 HD
HETATM    5  C6  UNL     1      22.054   3.329  28.979  1.00  0.00     0.239 C
HETATM    6  C7  UNL     1      22.856   2.285  29.665  1.00  0.00     0.262 C
HETATM    7  O6  UNL     1      21.861   1.354  30.131  1.00  0.00    -0.318 OA
HETATM    8  C11 UNL     1      20.597   1.847  30.433  1.00  0.00     0.145 C
HETATM    9  C12 UNL     1      20.586   3.283  30.905  1.00  0.00     0.025 C
HETATM   10  C17 UNL     1      21.260   4.203  29.983  1.00  0.00     0.093 C
HETATM   11  C18 UNL     1      20.565   5.015  29.000  1.00  0.00     0.202 C
ENDROOT
BRANCH  11  12
HETATM   12  O9  UNL     1      19.970   6.226  29.398  1.00  0.00    -0.287 OA
BRANCH  12  13
HETATM   13  C19 UNL     1      19.074   6.835  28.538  1.00  0.00     0.409 C
HETATM   14  O10 UNL     1      19.040   8.106  28.526  1.00  0.00    -0.229 OA
BRANCH  13  15
HETATM   15  O11 UNL     1      18.220   6.172  27.700  1.00  0.00    -0.266 OA
BRANCH  15  16
HETATM   16  C20 UNL     1      18.601   5.946  26.356  1.00  0.00     0.274 C
HETATM   17  C21 UNL     1      18.666   4.481  25.997  1.00  0.00     0.096 C
HETATM   18  C22 UNL     1      18.049   4.427  24.632  1.00  0.00     0.160 C
HETATM   19  C25 UNL     1      17.671   5.834  24.336  1.00  0.00     0.203 C
HETATM   20  O14 UNL     1      17.589   6.490  25.558  1.00  0.00    -0.358 OA
BRANCH  18  21
HETATM   21  O12 UNL     1      18.890   3.852  23.657  1.00  0.00    -0.314 OA
BRANCH  21  22
HETATM   22  C23 UNL     1      20.239   3.703  23.786  1.00  0.00     0.255 C
HETATM   23  C24 UNL     1      20.924   2.442  24.203  1.00  0.00     0.126 C
HETATM   24  O13 UNL     1      20.969   4.708  23.530  1.00  0.00    -0.266 OA
ENDBRANCH  21  22
ENDBRANCH  18  21
ENDBRANCH  15  16
ENDBRANCH  13  15
ENDBRANCH  12  13
ENDBRANCH  11  12
BRANCH   1  25
HETATM   25  O2  UNL     1      22.443   6.515  28.801  1.00  0.00    -0.266 OA
BRANCH  25  26
HETATM   26  C4  UNL     1      23.748   6.915  28.649  1.00  0.00     0.381 C
HETATM   27  N2  UNL     1      24.811   6.462  29.479  1.00  0.00    -0.246 N
ATOM     28  H2  UNL     1      24.551   5.799  30.210  1.00  0.00     0.192 HD
HETATM   29  O1  UNL     1      24.024   7.724  27.733  1.00  0.00    -0.237 OA
BRANCH  27  30
HETATM   30  N1  UNL     1      26.104   6.792  29.427  1.00  0.00    -0.311 N
HETATM   31  C3  UNL     1      27.082   6.853  30.195  1.00  0.00     0.080 C
ATOM     32  H1  UNL     1      26.366   7.076  28.484  1.00  0.00     0.185 HD
BRANCH  31  33
HETATM   33  C2  UNL     1      27.051   6.506  31.639  1.00  0.00     0.041 C
HETATM   34  C1  UNL     1      28.251   5.691  32.041  1.00  0.00     0.010 C
ENDBRANCH  31  33
ENDBRANCH  27  30
ENDBRANCH  25  26
ENDBRANCH   1  25
BRANCH   9  35
HETATM   35  C13 UNL     1      19.337   3.669  31.518  1.00  0.00     0.033 C
HETATM   36  C14 UNL     1      17.998   3.675  30.823  1.00  0.00     0.070 C
HETATM   37  N5  UNL     1      19.301   4.040  32.743  1.00  0.00    -0.300 N
ATOM     38  H5  UNL     1      18.415   4.312  33.168  1.00  0.00     0.186 HD
BRANCH  37  39
HETATM   39  N6  UNL     1      20.475   4.073  33.496  1.00  0.00    -0.245 N
HETATM   40  C15 UNL     1      21.168   5.267  33.817  1.00  0.00     0.379 C
HETATM   41  O7  UNL     1      20.775   6.404  33.444  1.00  0.00    -0.237 OA
ATOM     42  H6  UNL     1      20.855   3.189  33.835  1.00  0.00     0.192 HD
BRANCH  40  43
HETATM   43  O8  UNL     1      22.322   5.200  34.571  1.00  0.00    -0.308 OA
HETATM   44  C16 UNL     1      23.554   4.764  33.997  1.00  0.00     0.215 C
ENDBRANCH  40  43
ENDBRANCH  37  39
ENDBRANCH   9  35
BRANCH   6  45
HETATM   45  C8  UNL     1      23.646   1.564  28.634  1.00  0.00     0.298 C
HETATM   46  O3  UNL     1      23.133   0.683  27.891  1.00  0.00    -0.262 OA
BRANCH  45  47
HETATM   47  O4  UNL     1      24.994   1.821  28.431  1.00  0.00    -0.243 OA
BRANCH  47  48
HETATM   48  C9  UNL     1      25.648   2.959  28.877  1.00  0.00     0.262 C
HETATM   49  C10 UNL     1      26.258   3.082  30.227  1.00  0.00     0.126 C
HETATM   50  O5  UNL     1      25.692   3.914  28.029  1.00  0.00    -0.265 OA
ENDBRANCH  47  48
ENDBRANCH  45  47
ENDBRANCH   6  45
BRANCH   8  51
HETATM   51  N4  UNL     1      19.518   1.147  30.323  1.00  0.00    -0.380 N
ATOM     52  H42 UNL     1      19.396   0.443  29.595  1.00  0.00     0.158 HD
ATOM     53  H41 UNL     1      18.718   1.247  30.948  1.00  0.00     0.158 HD
ENDBRANCH   8  51
TORSDOF 17
ENDMDL