MODEL 5
REMARK VINA RESULT: -7.689424108      1.410      2.270
REMARK  12 active torsions:
REMARK  status: ('A' for Active; 'I' for Inactive)
REMARK    1  A    between atoms: C2_2  and  O1_3
REMARK    2  A    between atoms: C2_2  and  N2_6
REMARK    3  A    between atoms: C5_12  and  N5_13
REMARK    4  A    between atoms: N5_13  and  C6_15
REMARK    5  A    between atoms: C6_15  and  C7_16
REMARK    6  A    between atoms: C7_16  and  O2_17
REMARK    7  A    between atoms: C7_16  and  C8_19
REMARK    8  A    between atoms: C8_19  and  N6_20
REMARK    9  A    between atoms: C11_25  and  C12_26
REMARK   10  A    between atoms: C13_29  and  N9_30
REMARK   11  A    between atoms: C18_38  and  N11_39
REMARK   12  A    between atoms: C27_57  and  N16_58
ROOT
HETATM    1  O1  UNL     1      19.764   3.324  25.457  1.00  0.00    -0.256 OA
HETATM    2  C3  UNL     1      20.363   3.884  24.377  1.00  0.00     0.230 C
HETATM    3  N1  UNL     1      20.876   4.343  23.463  1.00  0.00    -0.164 NA
ENDROOT
BRANCH   1   4
HETATM    4  C2  UNL     1      19.854   3.905  26.745  1.00  0.00     0.261 C
HETATM    5  C1  UNL     1      18.575   3.586  27.515  1.00  0.00     0.066 C
BRANCH   4   6
HETATM    6  N2  UNL     1      21.016   3.353  27.411  1.00  0.00    -0.242 N
HETATM    7  N3  UNL     1      21.140   2.021  27.338  1.00  0.00    -0.290 N
HETATM    8  C4  UNL     1      22.162   1.367  27.902  1.00  0.00     0.199 A
ATOM      9  H3  UNL     1      20.431   1.487  26.835  1.00  0.00     0.188 HD
HETATM   10  N4  UNL     1      23.129   2.042  28.582  1.00  0.00    -0.335 N
HETATM   11  C5  UNL     1      23.011   3.373  28.658  1.00  0.00     0.148 A
ATOM     12  H4  UNL     1      23.912   1.553  29.015  1.00  0.00     0.168 HD
HETATM   13  C27 UNL     1      21.931   4.056  28.061  1.00  0.00     0.163 A
BRANCH  11  14
HETATM   14  N5  UNL     1      23.877   4.060  29.271  1.00  0.00    -0.371 N
ATOM     15  H5  UNL     1      23.632   4.293  30.233  1.00  0.00     0.161 HD
BRANCH  14  16
HETATM   16  C6  UNL     1      25.134   4.561  28.842  1.00  0.00     0.154 C
BRANCH  16  17
HETATM   17  C7  UNL     1      25.250   6.004  29.367  1.00  0.00     0.155 C
BRANCH  17  18
HETATM   18  O2  UNL     1      24.847   6.788  28.254  1.00  0.00    -0.392 OA
ATOM     19  H2  UNL     1      25.386   6.454  27.546  1.00  0.00     0.210 HD
ENDBRANCH  17  18
BRANCH  17  20
HETATM   20  C8  UNL     1      26.723   6.246  29.579  1.00  0.00     0.181 C
BRANCH  20  21
HETATM   21  N6  UNL     1      27.186   5.685  30.838  1.00  0.00    -0.298 N
HETATM   22  C9  UNL     1      27.425   4.396  31.137  1.00  0.00     0.142 A
HETATM   23  C10 UNL     1      27.838   4.282  32.444  1.00  0.00     0.081 A
HETATM   24  N7  UNL     1      28.201   3.278  33.258  1.00  0.00    -0.348 N
HETATM   25  C26 UNL     1      27.845   5.561  32.948  1.00  0.00     0.105 A
HETATM   26  C11 UNL     1      28.571   3.454  34.547  1.00  0.00     0.108 A
ATOM     27  H7  UNL     1      28.197   2.329  32.884  1.00  0.00     0.166 HD
HETATM   28  C23 UNL     1      28.577   4.720  35.052  1.00  0.00     0.093 A
HETATM   29  N13 UNL     1      28.896   5.204  36.284  1.00  0.00    -0.348 N
HETATM   30  C25 UNL     1      28.211   5.800  34.251  1.00  0.00     0.093 A
HETATM   31  C24 UNL     1      28.729   6.560  36.247  1.00  0.00     0.181 A
ATOM     32  H13 UNL     1      29.202   4.655  37.088  1.00  0.00     0.167 HD
HETATM   33  N14 UNL     1      28.318   6.893  35.015  1.00  0.00    -0.349 N
ATOM     34  H14 UNL     1      28.115   7.843  34.705  1.00  0.00     0.167 HD
HETATM   35  N15 UNL     1      27.443   6.365  31.936  1.00  0.00    -0.294 N
ATOM     36  H15 UNL     1      27.349   7.378  32.015  1.00  0.00     0.187 HD
BRANCH  26  37
HETATM   37  C12 UNL     1      28.983   2.304  35.351  1.00  0.00     0.165 A
HETATM   38  N8  UNL     1      30.224   1.992  35.656  1.00  0.00    -0.173 N
HETATM   39  C13 UNL     1      30.618   0.924  36.368  1.00  0.00     0.696 A
ATOM     40  H8  UNL     1      30.955   2.619  35.320  1.00  0.00     0.186 HD
HETATM   41  N10 UNL     1      29.638   0.109  36.802  1.00  0.00    -0.022 N
HETATM   42  C18 UNL     1      28.348   0.357  36.535  1.00  0.00     0.696 A
ATOM     43  H10 UNL     1      29.884  -0.719  37.346  1.00  0.00     0.203 HD
HETATM   44  N12 UNL     1      28.022   1.441  35.819  1.00  0.00    -0.173 N
ATOM     45  H12 UNL     1      27.041   1.630  35.618  1.00  0.00     0.186 HD
BRANCH  39  46
HETATM   46  N9  UNL     1      31.959   0.639  36.680  1.00  0.00    -0.213 N
HETATM   47  C14 UNL     1      32.522  -0.688  36.662  1.00  0.00     0.167 C
HETATM   48  C15 UNL     1      34.031  -0.486  36.452  1.00  0.00     0.188 C
HETATM   49  O3  UNL     1      34.583   0.110  37.563  1.00  0.00    -0.388 OA
HETATM   50  C16 UNL     1      33.771   1.062  38.152  1.00  0.00     0.188 C
HETATM   51  C17 UNL     1      32.898   1.704  37.066  1.00  0.00     0.167 C
ENDBRANCH  39  46
BRANCH  42  52
HETATM   52  N11 UNL     1      27.391  -0.551  37.025  1.00  0.00    -0.213 N
HETATM   53  C19 UNL     1      27.448  -0.954  38.410  1.00  0.00     0.167 C
HETATM   54  C20 UNL     1      26.292  -1.919  38.632  1.00  0.00     0.188 C
HETATM   55  O4  UNL     1      26.362  -2.958  37.717  1.00  0.00    -0.388 OA
HETATM   56  C21 UNL     1      26.165  -2.576  36.411  1.00  0.00     0.188 C
HETATM   57  C22 UNL     1      26.373  -1.084  36.179  1.00  0.00     0.167 C
ENDBRANCH  42  52
ENDBRANCH  26  37
ENDBRANCH  20  21
ENDBRANCH  17  20
ENDBRANCH  16  17
ENDBRANCH  14  16
ENDBRANCH  11  14
BRANCH  13  58
HETATM   58  N16 UNL     1      21.868   5.319  28.154  1.00  0.00    -0.381 N
ATOM     59 2H16 UNL     1      22.029   5.889  27.323  1.00  0.00     0.157 HD
ATOM     60 1H16 UNL     1      21.654   5.787  29.034  1.00  0.00     0.157 HD
ENDBRANCH  13  58
ENDBRANCH   4   6
ENDBRANCH   1   4
TORSDOF 12
ENDMDL