MODEL 5
REMARK VINA RESULT: -6.144573393      2.275      3.898
REMARK  17 active torsions:
REMARK  status: ('A' for Active; 'I' for Inactive)
REMARK    1  A    between atoms: O1_2  and  C2_3
REMARK    2  A    between atoms: C2_3  and  O2_5
REMARK    3  A    between atoms: C2_3  and  C4_7
REMARK    4  A    between atoms: C4_7  and  O3_8
REMARK    5  A    between atoms: C4_7  and  O4_10
REMARK    6  A    between atoms: C4_7  and  C22_40
REMARK    7  A    between atoms: O4_10  and  C5_11
REMARK    8  A    between atoms: C6_12  and  O5_13
REMARK    9  A    between atoms: O5_13  and  S1_14
REMARK   10  A    between atoms: C13_25  and  O10_26
REMARK   11  A    between atoms: O10_26  and  C14_27
REMARK   12  A    between atoms: C16_30  and  O12_31
REMARK   13  A    between atoms: O12_31  and  C17_32
REMARK   14  A    between atoms: C19_35  and  O14_36
REMARK   15  A    between atoms: O14_36  and  C20_37
REMARK   16  A    between atoms: C22_40  and  O17_42
REMARK   17  A    between atoms: O17_42  and  C23_43
ROOT
HETATM    1  C5  UNL     1      22.595   4.816  28.629  1.00  0.00     0.122 A
HETATM    2  C6  UNL     1      22.081   3.507  28.744  1.00  0.00     0.127 A
HETATM    3  C7  UNL     1      20.963   3.040  28.102  1.00  0.00     0.048 A
HETATM    4  C8  UNL     1      20.274   3.892  27.285  1.00  0.00    -0.049 A
HETATM    5  C9  UNL     1      19.071   3.399  26.584  1.00  0.00     0.049 C
HETATM    6  C10 UNL     1      20.723   5.167  27.137  1.00  0.00    -0.003 A
HETATM    7  C11 UNL     1      21.856   5.650  27.781  1.00  0.00     0.058 A
HETATM    8  C12 UNL     1      22.234   7.033  27.486  1.00  0.00     0.195 C
HETATM    9  O9  UNL     1      22.662   7.727  28.399  1.00  0.00    -0.289 OA
HETATM   10  C13 UNL     1      22.098   7.573  26.106  1.00  0.00     0.238 C
HETATM   11  C16 UNL     1      20.980   6.891  25.353  1.00  0.00     0.203 C
HETATM   12  C19 UNL     1      20.027   6.157  26.270  1.00  0.00     0.199 C
ENDROOT
BRANCH   1  13
HETATM   13  O4  UNL     1      23.668   5.236  29.231  1.00  0.00    -0.297 OA
BRANCH  13  14
HETATM   14  C4  UNL     1      24.737   5.654  29.832  1.00  0.00     0.316 C
BRANCH  14  15
HETATM   15  C2  UNL     1      25.403   4.816  30.950  1.00  0.00     0.226 C
HETATM   16  C3  UNL     1      26.197   5.625  31.911  1.00  0.00     0.085 C
BRANCH  15  17
HETATM   17  O1  UNL     1      24.250   4.427  31.726  1.00  0.00    -0.356 OA
HETATM   18  C1  UNL     1      24.442   4.794  33.048  1.00  0.00     0.205 C
ENDBRANCH  15  17
BRANCH  15  19
HETATM   19  O2  UNL     1      25.918   3.638  30.517  1.00  0.00    -0.361 OA
ATOM     20  H2  UNL     1      26.792   3.621  30.887  1.00  0.00     0.213 HD
ENDBRANCH  15  19
ENDBRANCH  14  15
BRANCH  14  21
HETATM   21  O3  UNL     1      24.554   6.891  30.595  1.00  0.00    -0.353 OA
ATOM     22  H3  UNL     1      23.907   7.297  30.029  1.00  0.00     0.213 HD
ENDBRANCH  14  21
BRANCH  14  23
HETATM   23  C22 UNL     1      25.916   5.974  28.935  1.00  0.00     0.336 C
HETATM   24  O16 UNL     1      25.936   5.347  27.836  1.00  0.00    -0.258 OA
BRANCH  23  25
HETATM   25  O17 UNL     1      26.879   6.873  29.297  1.00  0.00    -0.241 OA
BRANCH  25  26
HETATM   26  C23 UNL     1      26.635   8.230  29.169  1.00  0.00     0.262 C
HETATM   27  C24 UNL     1      27.406   9.258  29.924  1.00  0.00     0.126 C
HETATM   28  O18 UNL     1      25.738   8.638  28.396  1.00  0.00    -0.265 OA
ENDBRANCH  25  26
ENDBRANCH  23  25
ENDBRANCH  14  23
ENDBRANCH  13  14
ENDBRANCH   1  13
BRANCH   2  29
HETATM   29  O5  UNL     1      22.697   2.560  29.549  1.00  0.00    -0.211 OA
BRANCH  29  30
HETATM   30  S1  UNL     1      23.609   1.359  28.728  1.00  0.00     0.257 S
HETATM   31  O6  UNL     1      22.924   0.824  27.529  1.00  0.00    -0.572 OA
HETATM   32  O7  UNL     1      24.911   1.981  28.327  1.00  0.00    -0.572 OA
HETATM   33  O8  UNL     1      24.013   0.116  29.806  1.00  0.00    -0.572 OA
ENDBRANCH  29  30
ENDBRANCH   2  29
BRANCH  12  34
HETATM   34  O14 UNL     1      19.286   7.097  27.010  1.00  0.00    -0.309 OA
BRANCH  34  35
HETATM   35  C20 UNL     1      17.923   6.933  27.150  1.00  0.00     0.255 C
HETATM   36  C21 UNL     1      17.325   6.249  28.331  1.00  0.00     0.126 C
HETATM   37  O15 UNL     1      17.113   7.350  26.286  1.00  0.00    -0.266 OA
ENDBRANCH  34  35
ENDBRANCH  12  34
BRANCH  10  38
HETATM   38  O10 UNL     1      21.957   8.979  26.079  1.00  0.00    -0.305 OA
BRANCH  38  39
HETATM   39  C14 UNL     1      22.829   9.793  25.349  1.00  0.00     0.255 C
HETATM   40  C15 UNL     1      22.441  10.672  24.249  1.00  0.00     0.126 C
HETATM   41  O11 UNL     1      24.051   9.747  25.689  1.00  0.00    -0.266 OA
ENDBRANCH  38  39
ENDBRANCH  10  38
BRANCH  11  42
HETATM   42  O12 UNL     1      21.466   5.943  24.424  1.00  0.00    -0.310 OA
BRANCH  42  43
HETATM   43  C17 UNL     1      20.616   5.277  23.555  1.00  0.00     0.255 C
HETATM   44  C18 UNL     1      20.648   3.813  23.429  1.00  0.00     0.126 C
HETATM   45  O13 UNL     1      19.818   5.997  22.884  1.00  0.00    -0.266 OA
ENDBRANCH  42  43
ENDBRANCH  11  42
TORSDOF 17
ENDMDL