MODEL 4
REMARK VINA RESULT: -6.893768456      2.520      8.146
REMARK  13 active torsions:
REMARK  status: ('A' for Active; 'I' for Inactive)
REMARK    1  A    between atoms: N1_2  and  C2_4
REMARK    2  A    between atoms: C3_5  and  O1_6
REMARK    3  A    between atoms: C4_8  and  C5_9
REMARK    4  A    between atoms: N2_12  and  C6_13
REMARK    5  A    between atoms: C6_13  and  S1_14
REMARK    6  A    between atoms: S1_14  and  C7_15
REMARK    7  A    between atoms: C7_15  and  C8_16
REMARK    8  A    between atoms: N3_18  and  N4_20
REMARK       I    between atoms: N4_20  and  C10_21
REMARK    9  A    between atoms: C10_21  and  C11_23
REMARK   10  A    between atoms: C11_23  and  S2_24
REMARK   11  A    between atoms: S2_24  and  C12_25
REMARK   12  A    between atoms: C18_37  and  O6_38
REMARK   13  A    between atoms: N9_43  and  S4_44
ROOT
HETATM    1  C8  UNL     1      20.037   2.441  29.919  1.00  0.00     0.022 C
HETATM    2  C9  UNL     1      18.681   2.204  30.401  1.00  0.00     0.066 C
HETATM    3  N3  UNL     1      20.902   1.481  30.147  1.00  0.00    -0.240 N
ATOM      4  H3  UNL     1      20.581   0.631  30.610  1.00  0.00     0.201 HD
ENDROOT
BRANCH   1   5
HETATM    5  C7  UNL     1      20.503   3.648  29.257  1.00  0.00     0.134 C
BRANCH   5   6
HETATM    6  S1  UNL     1      20.466   3.736  27.507  1.00  0.00    -0.118 SA
BRANCH   6   7
HETATM    7  C6  UNL     1      19.816   5.082  26.624  1.00  0.00     0.145 C
BRANCH   7   8
HETATM    8  N2  UNL     1      20.539   5.772  25.624  1.00  0.00    -0.283 N
HETATM    9  C4  UNL     1      20.551   5.303  24.375  1.00  0.00     0.156 A
HETATM   10  C3  UNL     1      21.319   6.029  23.415  1.00  0.00     0.145 A
HETATM   11  C2  UNL     1      21.996   7.166  23.837  1.00  0.00     0.156 A
HETATM   12  N9  UNL     1      21.936   7.591  25.142  1.00  0.00    -0.196 N
HETATM   13  C19 UNL     1      21.213   6.889  26.004  1.00  0.00     0.201 A
HETATM   14  S3  UNL     1      21.161   7.430  27.553  1.00  0.00    -0.039 SA
BRANCH   9  15
HETATM   15  C5  UNL     1      19.828   4.138  23.908  1.00  0.00     0.230 C
HETATM   16  O2  UNL     1      18.604   3.967  23.841  1.00  0.00    -0.643 OA
HETATM   17  O3  UNL     1      20.591   3.033  23.466  1.00  0.00    -0.643 OA
ENDBRANCH   9  15
BRANCH  10  18
HETATM   18  O1  UNL     1      21.326   5.554  22.180  1.00  0.00    -0.355 OA
ATOM     19  H1  UNL     1      20.877   5.947  21.441  1.00  0.00     0.218 HD
ENDBRANCH  10  18
BRANCH  11  20
HETATM   20  N1  UNL     1      22.685   7.879  23.064  1.00  0.00    -0.377 N
HETATM   21  C1  UNL     1      22.272   8.493  21.865  1.00  0.00     0.148 C
ATOM     22  H1  UNL     1      23.656   8.030  23.337  1.00  0.00     0.160 HD
ENDBRANCH  11  20
BRANCH  12  23
HETATM   23  S4  UNL     1      22.834   9.016  25.561  1.00  0.00     0.236 S
HETATM   24  C20 UNL     1      21.770  10.432  25.690  1.00  0.00     0.186 C
HETATM   25  O7  UNL     1      23.825   9.330  24.469  1.00  0.00    -0.205 OA
HETATM   26  O8  UNL     1      23.596   8.816  26.824  1.00  0.00    -0.205 OA
ENDBRANCH  12  23
ENDBRANCH   7   8
ENDBRANCH   6   7
ENDBRANCH   5   6
ENDBRANCH   1   5
BRANCH   3  27
HETATM   27  N4  UNL     1      22.233   1.579  29.783  1.00  0.00    -0.286 NA
HETATM   28  C10 UNL     1      23.485   1.665  29.443  1.00  0.00     0.322 C
HETATM   29  O4  UNL     1      24.396   0.752  29.444  1.00  0.00    -0.254 OA
BRANCH  28  30
HETATM   30  C11 UNL     1      24.093   2.988  28.953  1.00  0.00     0.203 C
BRANCH  30  31
HETATM   31  S2  UNL     1      25.856   2.926  28.796  1.00  0.00    -0.081 SA
BRANCH  31  32
HETATM   32  C12 UNL     1      26.732   3.554  30.199  1.00  0.00     0.170 A
HETATM   33  N5  UNL     1      27.250   2.912  31.269  1.00  0.00    -0.278 N
HETATM   34  N6  UNL     1      27.784   3.798  32.069  1.00  0.00    -0.278 N
ATOM     35  H5  UNL     1      27.228   1.904  31.427  1.00  0.00     0.189 HD
HETATM   36  C13 UNL     1      27.640   5.031  31.567  1.00  0.00     0.200 A
ATOM     37  H6  UNL     1      28.246   3.581  32.953  1.00  0.00     0.189 HD
HETATM   38  C14 UNL     1      28.001   6.280  32.005  1.00  0.00     0.293 A
HETATM   39  N8  UNL     1      26.979   4.865  30.394  1.00  0.00    -0.248 N
HETATM   40  O5  UNL     1      28.613   6.414  33.092  1.00  0.00    -0.264 OA
HETATM   41  N7  UNL     1      27.696   7.362  31.265  1.00  0.00    -0.316 N
HETATM   42  C15 UNL     1      28.109   8.659  31.795  1.00  0.00     0.159 C
HETATM   43  C16 UNL     1      27.044   7.218  30.103  1.00  0.00     0.062 A
HETATM   44  C17 UNL     1      26.710   8.446  29.331  1.00  0.00     0.073 C
HETATM   45  C18 UNL     1      26.676   5.953  29.651  1.00  0.00     0.173 A
BRANCH  45  46
HETATM   46  O6  UNL     1      26.010   5.829  28.457  1.00  0.00    -0.344 OA
ATOM     47  H6  UNL     1      26.126   5.044  27.936  1.00  0.00     0.219 HD
ENDBRANCH  45  46
ENDBRANCH  31  32
ENDBRANCH  30  31
ENDBRANCH  28  30
ENDBRANCH   3  27
TORSDOF 13
ENDMDL