MODEL 4
REMARK VINA RESULT: -7.663437753      4.542     10.780
REMARK  11 active torsions:
REMARK  status: ('A' for Active; 'I' for Inactive)
REMARK    1  A    between atoms: O1_2  and  C2_3
REMARK    2  A    between atoms: C2_3  and  C3_5
REMARK    3  A    between atoms: C4_7  and  S2_8
REMARK    4  A    between atoms: S2_8  and  C5_9
REMARK    5  A    between atoms: C6_14  and  C7_15
REMARK    6  A    between atoms: C11_26  and  S3_27
REMARK    7  A    between atoms: S3_27  and  N7_30
REMARK    8  A    between atoms: N7_30  and  N8_32
REMARK    9  A    between atoms: C12_34  and  C13_35
REMARK   10  A    between atoms: C12_34  and  C19_41
REMARK   11  A    between atoms: N10_46  and  O6_47
ROOT
HETATM    1  C3  UNL     1      26.847   6.016  32.621  1.00  0.00     0.122 A
HETATM    2  S1  UNL     1      27.596   5.807  34.177  1.00  0.00    -0.056 SA
HETATM    3  C4  UNL     1      27.883   4.128  34.097  1.00  0.00     0.121 A
HETATM    4  N6  UNL     1      27.405   3.828  32.925  1.00  0.00    -0.333 N
ATOM      5  H6  UNL     1      27.443   2.861  32.605  1.00  0.00     0.168 HD
HETATM    6  C11 UNL     1      26.878   4.736  32.150  1.00  0.00     0.175 A
ENDROOT
BRANCH   6   7
HETATM    7  S3  UNL     1      26.186   4.301  30.562  1.00  0.00     0.293 S
HETATM    8  O3  UNL     1      26.192   2.832  30.343  1.00  0.00    -0.197 OA
HETATM    9  O4  UNL     1      27.059   4.881  29.458  1.00  0.00    -0.197 OA
BRANCH   7  10
HETATM   10  N7  UNL     1      24.632   5.013  30.365  1.00  0.00    -0.221 N
ATOM     11  H7  UNL     1      24.415   5.520  29.506  1.00  0.00     0.200 HD
BRANCH  10  12
HETATM   12  N8  UNL     1      23.678   4.909  31.351  1.00  0.00    -0.287 N
HETATM   13  C12 UNL     1      22.646   4.047  31.256  1.00  0.00     0.103 C
ATOM     14  H8  UNL     1      23.754   5.500  32.177  1.00  0.00     0.188 HD
BRANCH  13  15
HETATM   15  C13 UNL     1      21.771   4.110  32.406  1.00  0.00    -0.004 A
HETATM   16  C14 UNL     1      20.401   4.039  32.348  1.00  0.00     0.014 A
HETATM   17  C15 UNL     1      19.611   4.048  33.476  1.00  0.00     0.001 A
HETATM   18  C16 UNL     1      20.175   4.131  34.737  1.00  0.00     0.000 A
HETATM   19  C17 UNL     1      21.551   4.204  34.815  1.00  0.00     0.001 A
HETATM   20  C18 UNL     1      22.337   4.196  33.697  1.00  0.00     0.014 A
ENDBRANCH  13  15
BRANCH  13  21
HETATM   21  C19 UNL     1      22.524   3.287  30.048  1.00  0.00     0.144 A
HETATM   22  N9  UNL     1      23.238   2.098  29.964  1.00  0.00    -0.290 N
HETATM   23  C20 UNL     1      23.142   1.266  28.942  1.00  0.00     0.356 A
ATOM     24  H9  UNL     1      23.868   1.856  30.729  1.00  0.00     0.172 HD
HETATM   25  O5  UNL     1      23.797   0.176  28.867  1.00  0.00    -0.244 OA
HETATM   26  N10 UNL     1      22.330   1.530  27.905  1.00  0.00    -0.118 N
HETATM   27  C21 UNL     1      21.631   2.664  27.960  1.00  0.00     0.358 A
HETATM   28  O7  UNL     1      20.857   2.944  27.002  1.00  0.00    -0.244 OA
HETATM   29  N11 UNL     1      21.726   3.536  29.027  1.00  0.00    -0.286 N
HETATM   30  C22 UNL     1      20.798   4.656  29.005  1.00  0.00     0.163 C
BRANCH  26  31
HETATM   31  O6  UNL     1      22.225   0.670  26.834  1.00  0.00    -0.275 OA
ATOM     32  H6  UNL     1      21.382   0.361  26.525  1.00  0.00     0.245 HD
ENDBRANCH  26  31
ENDBRANCH  13  21
ENDBRANCH  10  12
ENDBRANCH   7  10
ENDBRANCH   6   7
BRANCH   1  33
HETATM   33  C2  UNL     1      26.374   7.275  32.076  1.00  0.00     0.303 C
HETATM   34  O2  UNL     1      25.128   7.539  32.215  1.00  0.00    -0.259 OA
BRANCH  33  35
HETATM   35  O1  UNL     1      27.139   8.189  31.439  1.00  0.00    -0.322 OA
HETATM   36  C1  UNL     1      27.078   8.547  30.091  1.00  0.00     0.213 C
ENDBRANCH  33  35
ENDBRANCH   1  33
BRANCH   3  37
HETATM   37  S2  UNL     1      28.657   3.057  35.341  1.00  0.00    -0.027 SA
BRANCH  37  38
HETATM   38  C5  UNL     1      27.361   1.920  35.879  1.00  0.00     0.167 A
HETATM   39  N1  UNL     1      26.053   2.160  36.033  1.00  0.00    -0.278 N
HETATM   40  N2  UNL     1      25.405   1.063  36.452  1.00  0.00    -0.281 N
ATOM     41  H1  UNL     1      25.607   3.060  35.855  1.00  0.00     0.189 HD
HETATM   42  C6  UNL     1      26.302   0.094  36.571  1.00  0.00     0.150 A
ATOM     43  H2  UNL     1      24.406   0.987  36.642  1.00  0.00     0.188 HD
HETATM   44  N5  UNL     1      27.510   0.634  36.216  1.00  0.00    -0.319 N
ATOM     45  H5  UNL     1      28.396   0.129  36.208  1.00  0.00     0.169 HD
BRANCH  42  46
HETATM   46  C7  UNL     1      26.072  -1.272  36.996  1.00  0.00     0.096 A
HETATM   47  C8  UNL     1      25.792  -2.283  36.066  1.00  0.00     0.122 A
HETATM   48  N3  UNL     1      25.638  -3.396  36.800  1.00  0.00    -0.360 N
HETATM   49  C9  UNL     1      25.808  -3.105  38.095  1.00  0.00     0.182 A
ATOM     50  H3  UNL     1      25.425  -4.321  36.428  1.00  0.00     0.166 HD
HETATM   51  N4  UNL     1      26.081  -1.770  38.230  1.00  0.00    -0.343 N
HETATM   52  C10 UNL     1      26.324  -1.099  39.495  1.00  0.00     0.157 C
ENDBRANCH  42  46
ENDBRANCH  37  38
ENDBRANCH   3  37
TORSDOF 11
ENDMDL