MODEL 4
REMARK VINA RESULT: -7.045300525      2.790      9.374
REMARK  10 active torsions:
REMARK  status: ('A' for Active; 'I' for Inactive)
REMARK       I    between atoms: N2_3  and  C2_5
REMARK    1  A    between atoms: C2_5  and  C3_7
REMARK    2  A    between atoms: C4_8  and  N3_9
REMARK    3  A    between atoms: C6_11  and  C7_12
REMARK    4  A    between atoms: N6_17  and  C8_18
REMARK    5  A    between atoms: C8_18  and  C9_19
REMARK    6  A    between atoms: C9_19  and  O2_20
REMARK    7  A    between atoms: O2_20  and  C10_21
REMARK    8  A    between atoms: C10_21  and  C11_23
REMARK    9  A    between atoms: C13_26  and  N9_29
REMARK   10  A    between atoms: C24_45  and  C25_46
ROOT
HETATM    1  N1  UNL     1      23.317   8.982  25.075  1.00  0.00    -0.172 NA
HETATM    2  C1  UNL     1      22.506   8.540  24.370  1.00  0.00     0.184 C
HETATM    3  N2  UNL     1      21.528   7.987  23.518  1.00  0.00    -0.259 N
ATOM      4  H2  UNL     1      21.808   7.411  22.724  1.00  0.00     0.181 HD
HETATM    5  C2  UNL     1      20.157   8.234  23.769  1.00  0.00     0.274 C
HETATM    6  O1  UNL     1      19.871   8.954  24.767  1.00  0.00    -0.266 OA
ENDROOT
BRANCH   5   7
HETATM    7  C3  UNL     1      19.078   7.710  22.951  1.00  0.00     0.149 A
HETATM    8  C4  UNL     1      18.692   6.363  22.933  1.00  0.00     0.164 A
HETATM    9  N15 UNL     1      17.673   6.307  22.059  1.00  0.00    -0.280 N
HETATM   10  N16 UNL     1      17.422   7.503  21.559  1.00  0.00    -0.264 N
ATOM     11  H15 UNL     1      17.164   5.457  21.815  1.00  0.00     0.188 HD
HETATM   12  C26 UNL     1      18.270   8.413  22.082  1.00  0.00     0.279 A
ATOM     13  H16 UNL     1      16.693   7.710  20.876  1.00  0.00     0.190 HD
HETATM   14  O6  UNL     1      18.264   9.635  21.789  1.00  0.00    -0.266 OA
BRANCH   8  15
HETATM   15  N3  UNL     1      19.280   5.319  23.693  1.00  0.00    -0.232 N
HETATM   16  C5  UNL     1      19.137   5.148  25.051  1.00  0.00     0.153 A
HETATM   17  C6  UNL     1      19.814   4.063  25.495  1.00  0.00     0.097 A
HETATM   18  N13 UNL     1      20.386   3.573  24.324  1.00  0.00    -0.282 N
HETATM   19  N14 UNL     1      20.045   4.331  23.328  1.00  0.00    -0.234 N
ATOM     20  H13 UNL     1      20.981   2.746  24.260  1.00  0.00     0.188 HD
ATOM     21  H14 UNL     1      20.344   4.171  22.367  1.00  0.00     0.209 HD
BRANCH  17  22
HETATM   22  C7  UNL     1      20.046   3.385  26.755  1.00  0.00     0.114 A
HETATM   23  N4  UNL     1      20.999   2.369  26.858  1.00  0.00    -0.281 N
HETATM   24  N5  UNL     1      21.026   1.925  28.051  1.00  0.00    -0.239 N
ATOM     25  H4  UNL     1      21.586   2.035  26.094  1.00  0.00     0.188 HD
HETATM   26  N6  UNL     1      20.161   2.538  28.837  1.00  0.00    -0.267 N
ATOM     27  H5  UNL     1      21.646   1.179  28.364  1.00  0.00     0.208 HD
HETATM   28  C24 UNL     1      19.536   3.469  28.012  1.00  0.00     0.159 A
BRANCH  26  29
HETATM   29  C8  UNL     1      19.924   2.293  30.231  1.00  0.00     0.178 C
BRANCH  29  30
HETATM   30  C9  UNL     1      20.913   2.952  31.156  1.00  0.00     0.201 C
BRANCH  30  31
HETATM   31  O2  UNL     1      22.201   2.815  30.572  1.00  0.00    -0.315 OA
BRANCH  31  32
HETATM   32  C10 UNL     1      22.996   3.913  30.253  1.00  0.00     0.307 C
HETATM   33  O3  UNL     1      22.663   4.587  29.264  1.00  0.00    -0.258 OA
BRANCH  32  34
HETATM   34  C11 UNL     1      24.159   4.268  31.030  1.00  0.00     0.159 C
HETATM   35  C12 UNL     1      23.999   4.888  32.352  1.00  0.00     0.109 C
HETATM   36  N7  UNL     1      23.891   5.378  33.387  1.00  0.00    -0.191 NA
HETATM   37  C13 UNL     1      25.381   4.064  30.618  1.00  0.00     0.165 C
HETATM   38  C14 UNL     1      25.654   3.471  29.357  1.00  0.00     0.121 C
HETATM   39  N8  UNL     1      25.909   2.981  28.315  1.00  0.00    -0.190 NA
BRANCH  37  40
HETATM   40  N9  UNL     1      26.509   4.440  31.442  1.00  0.00    -0.226 N
HETATM   41  N10 UNL     1      27.182   3.707  32.285  1.00  0.00    -0.300 N
HETATM   42  C15 UNL     1      28.164   4.394  32.871  1.00  0.00     0.141 A
ATOM     43  H10 UNL     1      26.982   2.725  32.474  1.00  0.00     0.186 HD
HETATM   44  C16 UNL     1      28.109   5.675  32.353  1.00  0.00     0.096 A
HETATM   45  N11 UNL     1      28.799   6.803  32.527  1.00  0.00    -0.350 N
HETATM   46  C23 UNL     1      27.050   5.664  31.454  1.00  0.00     0.157 A
HETATM   47  C17 UNL     1      28.485   7.921  31.850  1.00  0.00     0.059 A
ATOM     48  H11 UNL     1      29.578   6.818  33.186  1.00  0.00     0.166 HD
HETATM   49  C18 UNL     1      29.214   9.082  32.046  1.00  0.00     0.032 A
HETATM   50  C22 UNL     1      27.429   7.886  30.963  1.00  0.00     0.060 A
HETATM   51  C19 UNL     1      28.899  10.230  31.356  1.00  0.00     0.002 A
HETATM   52  C20 UNL     1      27.830  10.186  30.459  1.00  0.00     0.002 A
HETATM   53  C21 UNL     1      27.104   9.036  30.264  1.00  0.00     0.032 A
HETATM   54  N12 UNL     1      26.711   6.772  30.758  1.00  0.00    -0.337 N
ATOM     55  H12 UNL     1      25.933   6.761  30.099  1.00  0.00     0.167 HD
ENDBRANCH  37  40
ENDBRANCH  32  34
ENDBRANCH  31  32
ENDBRANCH  30  31
ENDBRANCH  29  30
ENDBRANCH  26  29
BRANCH  28  56
HETATM   56  C25 UNL     1      18.505   4.361  28.491  1.00  0.00     0.231 C
HETATM   57  O4  UNL     1      17.299   4.131  28.091  1.00  0.00    -0.643 OA
HETATM   58  O5  UNL     1      18.603   5.430  29.315  1.00  0.00    -0.643 OA
ENDBRANCH  28  56
ENDBRANCH  17  22
ENDBRANCH   8  15
ENDBRANCH   5   7
TORSDOF 10
ENDMDL