MODEL 4
REMARK VINA RESULT: -8.729760450      2.007      7.355
REMARK  5 active torsions:
REMARK  status: ('A' for Active; 'I' for Inactive)
REMARK    1  A    between atoms: C5_8  and  C6_9
REMARK    2  A    between atoms: C6_9  and  C7_10
REMARK    3  A    between atoms: C7_10  and  N3_11
REMARK    4  A    between atoms: N3_11  and  C8_13
REMARK    5  A    between atoms: C17_26  and  C18_27
ROOT
HETATM    1  N1  UNL     1      28.790  -2.493   8.782  1.00  0.00    -0.087 NA
HETATM    2  C1  UNL     1      29.274  -1.182   8.430  1.00  0.00     0.096 C
HETATM    3  N2  UNL     1      28.982  -0.495   7.394  1.00  0.00    -0.350 N
ATOM      4  H2  UNL     1      28.343  -0.811   6.664  1.00  0.00     0.163 HD
HETATM    5  C2  UNL     1      29.667   0.793   7.375  1.00  0.00     0.139 C
HETATM    6  C3  UNL     1      30.997   0.711   6.663  1.00  0.00     0.062 C
HETATM    7  C4  UNL     1      30.787   0.442   5.208  1.00  0.00     0.011 C
HETATM    8  C5  UNL     1      29.641   1.279   4.663  1.00  0.00     0.011 C
HETATM    9  C14 UNL     1      28.463   1.346   5.589  1.00  0.00     0.175 C
HETATM   10  O1  UNL     1      28.855   1.765   6.844  1.00  0.00    -0.360 OA
HETATM   11  C15 UNL     1      29.966   1.006   8.851  1.00  0.00     0.053 C
HETATM   12  C16 UNL     1      28.736   1.342   9.644  1.00  0.00     0.020 C
HETATM   13  C17 UNL     1      28.674   0.420  10.819  1.00  0.00     0.052 C
HETATM   14  C19 UNL     1      29.892  -0.493  10.729  1.00  0.00     0.022 C
HETATM   15  C20 UNL     1      30.233  -0.423   9.259  1.00  0.00     0.059 C
ENDROOT
BRANCH   8  16
HETATM   16  C6  UNL     1      29.233   0.659   3.336  1.00  0.00     0.026 C
BRANCH  16  17
HETATM   17  C7  UNL     1      27.743   0.544   3.278  1.00  0.00     0.120 C
BRANCH  17  18
HETATM   18  N3  UNL     1      27.073   1.471   2.415  1.00  0.00    -0.385 N
ATOM     19  H3  UNL     1      27.118   1.316   1.408  1.00  0.00     0.159 HD
BRANCH  18  20
HETATM   20  C8  UNL     1      26.355   2.589   2.892  1.00  0.00     0.106 A
HETATM   21  C9  UNL     1      25.001   2.375   3.195  1.00  0.00     0.148 A
HETATM   22  F1  UNL     1      24.503   1.128   3.015  1.00  0.00    -0.203 F
HETATM   23  C10 UNL     1      24.190   3.379   3.656  1.00  0.00     0.087 A
HETATM   24  C11 UNL     1      24.719   4.632   3.828  1.00  0.00     0.122 A
HETATM   25  F2  UNL     1      23.960   5.644   4.279  1.00  0.00    -0.206 F
HETATM   26  C12 UNL     1      26.042   4.858   3.538  1.00  0.00     0.087 A
HETATM   27  C13 UNL     1      26.870   3.833   3.066  1.00  0.00     0.148 A
HETATM   28  F3  UNL     1      28.156   4.131   2.791  1.00  0.00    -0.203 F
ENDBRANCH  18  20
ENDBRANCH  17  18
ENDBRANCH  16  17
ENDBRANCH   8  16
BRANCH  13  29
HETATM   29  C18 UNL     1      28.800   1.167  12.141  1.00  0.00     0.357 C
HETATM   30  F4  UNL     1      29.552   0.415  13.008  1.00  0.00    -0.214 F
HETATM   31  F5  UNL     1      27.591   1.453  12.701  1.00  0.00    -0.214 F
ENDBRANCH  13  29
TORSDOF 5
ENDMDL