MODEL 2
REMARK VINA RESULT: -5.219921084      2.975      4.867
REMARK  6 active torsions:
REMARK  status: ('A' for Active; 'I' for Inactive)
REMARK    1  A    between atoms: C2_2  and  C3_4
REMARK    2  A    between atoms: C3_4  and  C4_6
REMARK    3  A    between atoms: C4_6  and  C5_7
REMARK    4  A    between atoms: C12_22  and  C14_24
REMARK    5  A    between atoms: C14_24  and  C15_25
REMARK    6  A    between atoms: C15_25  and  C16_26
ROOT
HETATM    1  C4  UNL     1      28.167   2.568   3.794  1.00  0.00     0.137 C
HETATM    2  N2  UNL     1      28.603   1.847   2.597  1.00  0.00    -0.386 N
ATOM      3  H2  UNL     1      28.624   2.318   1.693  1.00  0.00     0.155 HD
HETATM    4  C8  UNL     1      28.989   0.516   2.703  1.00  0.00     0.108 A
HETATM    5  C9  UNL     1      30.097  -0.064   1.840  1.00  0.00     0.043 A
HETATM    6  C10 UNL     1      28.728  -0.327   1.416  1.00  0.00     0.043 A
HETATM    7  C11 UNL     1      28.555  -0.218   3.909  1.00  0.00     0.246 C
HETATM    8  O1  UNL     1      28.590  -1.483   4.009  1.00  0.00    -0.271 OA
HETATM    9  N3  UNL     1      28.082   0.558   4.991  1.00  0.00    -0.344 N
ATOM     10  H3  UNL     1      27.385   0.238   5.664  1.00  0.00     0.163 HD
HETATM   11  C12 UNL     1      28.730   1.905   5.029  1.00  0.00     0.081 C
HETATM   12  C13 UNL     1      30.241   1.780   4.918  1.00  0.00     0.046 C
ENDROOT
BRANCH   1  13
HETATM   13  C3  UNL     1      28.589   3.990   3.718  1.00  0.00     0.225 C
HETATM   14  F1  UNL     1      28.749   4.489   5.064  1.00  0.00    -0.245 F
BRANCH  13  15
HETATM   15  C2  UNL     1      27.573   4.979   3.200  1.00  0.00     0.115 C
HETATM   16  C1  UNL     1      27.963   5.206   1.741  1.00  0.00     0.030 C
HETATM   17 CL1  UNL     1      27.461   6.510   3.992  1.00  0.00    -0.122 Cl
ENDBRANCH  13  15
ENDBRANCH   1  13
BRANCH   1  18
HETATM   18  C5  UNL     1      26.683   2.441   3.751  1.00  0.00     0.084 A
HETATM   19  N1  UNL     1      25.774   2.877   4.601  1.00  0.00    -0.361 N
HETATM   20  C6  UNL     1      24.507   2.663   4.412  1.00  0.00     0.096 A
ATOM     21  H1  UNL     1      26.074   3.394   5.427  1.00  0.00     0.165 HD
HETATM   22  C7  UNL     1      24.153   1.962   3.287  1.00  0.00     0.068 A
HETATM   23  S1  UNL     1      25.673   1.662   2.582  1.00  0.00    -0.085 SA
ENDBRANCH   1  18
BRANCH  11  24
HETATM   24  C14 UNL     1      28.426   2.504   6.319  1.00  0.00     0.011 C
BRANCH  24  25
HETATM   25  C15 UNL     1      29.363   2.483   7.451  1.00  0.00     0.087 C
BRANCH  25  26
HETATM   26  C16 UNL     1      29.591   1.353   8.359  1.00  0.00     0.407 C
HETATM   27  F2  UNL     1      29.489   0.089   7.891  1.00  0.00    -0.167 F
HETATM   28  F3  UNL     1      30.958   1.462   8.754  1.00  0.00    -0.167 F
HETATM   29  F4  UNL     1      28.913   1.515   9.572  1.00  0.00    -0.167 F
ENDBRANCH  25  26
ENDBRANCH  24  25
ENDBRANCH  11  24
TORSDOF 6
ENDMDL