MODEL 1
REMARK VINA RESULT: -9.803072752      0.000      0.000
REMARK  9 active torsions:
REMARK  status: ('A' for Active; 'I' for Inactive)
REMARK    1  A    between atoms: N1_1  and  C1_5
REMARK    2  A    between atoms: C1_5  and  C2_6
REMARK    3  A    between atoms: C1_5  and  C13_27
REMARK    4  A    between atoms: C7_13  and  N3_14
REMARK    5  A    between atoms: N3_14  and  C8_16
REMARK    6  A    between atoms: C8_16  and  C9_17
REMARK    7  A    between atoms: C9_17  and  C10_18
REMARK    8  A    between atoms: C10_18  and  C11_19
REMARK    9  A    between atoms: C16_30  and  C17_31
ROOT
HETATM    1  C2  UNL     1      27.920   1.498   4.622  1.00  0.00     0.057 A
HETATM    2  C3  UNL     1      27.234   0.476   4.019  1.00  0.00     0.115 A
HETATM    3  N2  UNL     1      25.960   0.658   3.566  1.00  0.00    -0.361 N
ATOM      4  H2  UNL     1      25.470  -0.117   3.120  1.00  0.00     0.165 HD
HETATM    5  C4  UNL     1      25.340   1.844   3.699  1.00  0.00     0.076 A
HETATM    6  C5  UNL     1      24.057   2.060   3.252  1.00  0.00     0.037 A
HETATM    7  C6  UNL     1      23.457   3.304   3.412  1.00  0.00     0.050 A
HETATM    8  C7  UNL     1      24.154   4.323   4.021  1.00  0.00     0.102 A
HETATM    9  N4  UNL     1      25.406   4.096   4.450  1.00  0.00    -0.327 N
ATOM     10  H4  UNL     1      25.919   4.854   4.899  1.00  0.00     0.169 HD
HETATM   11  C12 UNL     1      26.015   2.883   4.304  1.00  0.00     0.134 A
HETATM   12  N5  UNL     1      27.270   2.678   4.741  1.00  0.00    -0.341 N
ATOM     13  H5  UNL     1      27.758   3.455   5.187  1.00  0.00     0.167 HD
ENDROOT
BRANCH   1  14
HETATM   14  C1  UNL     1      29.331   1.378   5.130  1.00  0.00     0.238 C
BRANCH  14  15
HETATM   15  N1  UNL     1      29.872   2.740   4.939  1.00  0.00    -0.069 N
ATOM     16  H13 UNL     1      29.570   3.419   5.637  1.00  0.00     0.275 HD
ATOM     17  H12 UNL     1      30.870   2.832   5.131  1.00  0.00     0.275 HD
ATOM     18  H11 UNL     1      29.601   2.964   3.982  1.00  0.00     0.275 HD
ENDBRANCH  14  15
BRANCH  14  19
HETATM   19  C13 UNL     1      29.434   1.011   6.550  1.00  0.00     0.022 C
HETATM   20  C14 UNL     1      30.520   0.052   6.890  1.00  0.00     0.008 C
HETATM   21  C15 UNL     1      30.357  -0.403   8.325  1.00  0.00     0.014 C
HETATM   22  C16 UNL     1      30.264   0.773   9.274  1.00  0.00     0.093 C
HETATM   23  C18 UNL     1      29.378   1.876   8.804  1.00  0.00     0.014 C
HETATM   24  C19 UNL     1      29.719   2.280   7.367  1.00  0.00     0.008 C
BRANCH  22  25
HETATM   25  C17 UNL     1      29.690   0.232  10.578  1.00  0.00     0.391 C
HETATM   26  F3  UNL     1      29.267  -1.068  10.300  1.00  0.00    -0.171 F
HETATM   27  F4  UNL     1      30.692   0.117  11.521  1.00  0.00    -0.171 F
HETATM   28  F5  UNL     1      28.662   1.016  11.038  1.00  0.00    -0.171 F
ENDBRANCH  22  25
ENDBRANCH  14  19
ENDBRANCH   1  14
BRANCH   8  29
HETATM   29  N3  UNL     1      23.665   5.494   4.201  1.00  0.00    -0.376 N
ATOM     30  H3  UNL     1      22.652   5.573   4.284  1.00  0.00     0.161 HD
BRANCH  29  31
HETATM   31  C8  UNL     1      24.434   6.704   4.296  1.00  0.00     0.121 C
BRANCH  31  32
HETATM   32  C9  UNL     1      24.590   7.278   2.927  1.00  0.00     0.025 C
BRANCH  32  33
HETATM   33  C10 UNL     1      26.000   7.193   2.438  1.00  0.00     0.073 C
BRANCH  33  34
HETATM   34  C11 UNL     1      26.942   6.423   3.286  1.00  0.00     0.353 C
HETATM   35  F1  UNL     1      27.627   5.427   2.600  1.00  0.00    -0.214 F
HETATM   36  F2  UNL     1      27.814   7.146   4.042  1.00  0.00    -0.214 F
ENDBRANCH  33  34
ENDBRANCH  32  33
ENDBRANCH  31  32
ENDBRANCH  29  31
ENDBRANCH   8  29
TORSDOF 9
ENDMDL