MODEL 5
REMARK VINA RESULT: -9.334924506      0.962      1.171
REMARK  5 active torsions:
REMARK  status: ('A' for Active; 'I' for Inactive)
REMARK    1  A    between atoms: C1_4  and  C2_6
REMARK    2  A    between atoms: C6_11  and  C7_12
REMARK    3  A    between atoms: C7_12  and  N3_13
REMARK    4  A    between atoms: C10_16  and  C11_17
REMARK    5  A    between atoms: C13_20  and  C14_21
ROOT
HETATM    1  N3  UNL     1      27.624   1.829   2.427  1.00  0.00    -0.386 N
HETATM    2  C8  UNL     1      28.059   0.497   2.560  1.00  0.00     0.059 C
HETATM    3  C9  UNL     1      28.355   0.055   3.970  1.00  0.00     0.058 C
HETATM    4  C10 UNL     1      29.444   1.006   4.482  1.00  0.00     0.078 C
HETATM    5  C18 UNL     1      28.779   2.364   4.542  1.00  0.00     0.198 C
HETATM    6  F4  UNL     1      29.747   3.259   4.985  1.00  0.00    -0.247 F
HETATM    7  C19 UNL     1      28.196   2.813   3.260  1.00  0.00     0.160 C
ENDROOT
BRANCH   1   8
HETATM    8  C7  UNL     1      26.262   2.016   2.075  1.00  0.00     0.160 C
BRANCH   8   9
HETATM    9  C6  UNL     1      25.565   2.967   2.974  1.00  0.00    -0.036 A
HETATM   10  C5  UNL     1      24.628   2.508   3.894  1.00  0.00     0.051 A
HETATM   11  C4  UNL     1      23.986   3.386   4.732  1.00  0.00     0.117 A
HETATM   12  C3  UNL     1      24.236   4.746   4.699  1.00  0.00     0.057 A
HETATM   13  F1  UNL     1      23.080   2.916   5.617  1.00  0.00    -0.206 F
HETATM   14  C2  UNL     1      25.160   5.228   3.797  1.00  0.00     0.008 A
HETATM   15  C20 UNL     1      25.807   4.322   2.950  1.00  0.00     0.023 A
BRANCH  14  16
HETATM   16  C1  UNL     1      25.457   6.646   3.726  1.00  0.00     0.120 C
HETATM   17  N1  UNL     1      26.637   7.090   3.548  1.00  0.00    -0.387 N
ATOM     18  H12 UNL     1      26.845   8.087   3.498  1.00  0.00     0.157 HD
ATOM     19  H11 UNL     1      27.405   6.427   3.450  1.00  0.00     0.157 HD
HETATM   20  N2  UNL     1      24.385   7.572   3.862  1.00  0.00    -0.082 NA
ENDBRANCH  14  16
ENDBRANCH   8   9
ENDBRANCH   1   8
BRANCH   4  21
HETATM   21  C11 UNL     1      29.926   0.621   5.803  1.00  0.00     0.040 A
HETATM   22  C12 UNL     1      30.975  -0.238   6.049  1.00  0.00     0.169 A
HETATM   23  O1  UNL     1      31.112  -0.342   7.329  1.00  0.00    -0.307 OA
HETATM   24  C13 UNL     1      30.226   0.390   7.961  1.00  0.00     0.128 A
HETATM   25  N4  UNL     1      29.490   0.987   7.035  1.00  0.00    -0.341 N
ATOM     26  H4  UNL     1      28.715   1.624   7.219  1.00  0.00     0.167 HD
BRANCH  24  27
HETATM   27  C14 UNL     1      30.151   0.462   9.442  1.00  0.00     0.072 C
HETATM   28  C15 UNL     1      29.247  -0.524  10.104  1.00  0.00     0.092 C
HETATM   29  C16 UNL     1      28.786   0.599  11.041  1.00  0.00     0.245 C
HETATM   30  F2  UNL     1      29.624   0.763  12.131  1.00  0.00    -0.206 F
HETATM   31  F3  UNL     1      27.449   0.601  11.310  1.00  0.00    -0.206 F
HETATM   32  C17 UNL     1      29.215   1.572   9.938  1.00  0.00     0.092 C
ENDBRANCH  24  27
ENDBRANCH   4  21
TORSDOF 5
ENDMDL