MODEL 1
REMARK VINA RESULT: -8.697075270      0.000      0.000
REMARK  7 active torsions:
REMARK  status: ('A' for Active; 'I' for Inactive)
REMARK    1  A    between atoms: C9_9  and  N1_10
REMARK    2  A    between atoms: N1_10  and  C10_12
REMARK    3  A    between atoms: N2_15  and  O1_17
REMARK    4  A    between atoms: O1_17  and  C13_18
REMARK    5  A    between atoms: C13_18  and  C14_19
REMARK    6  A    between atoms: C16_22  and  O2_23
REMARK    7  A    between atoms: C19_27  and  C20_28
ROOT
HETATM    1  N1  UNL     1      27.949   2.744   3.601  1.00  0.00    -0.407 N
ATOM      2  H1  UNL     1      28.314   2.585   2.662  1.00  0.00     0.154 HD
ENDROOT
BRANCH   1   3
HETATM    3  C9  UNL     1      26.660   3.106   3.550  1.00  0.00     0.034 C
HETATM    4  C2  UNL     1      25.738   2.679   2.483  1.00  0.00     0.014 C
HETATM    5  C1  UNL     1      26.075   1.392   1.780  1.00  0.00     0.012 C
HETATM    6  C3  UNL     1      24.395   2.417   3.134  1.00  0.00    -0.008 C
HETATM    7  C4  UNL     1      23.591   3.667   3.323  1.00  0.00     0.010 C
HETATM    8  C8  UNL     1      24.860   1.824   4.466  1.00  0.00     0.012 C
HETATM    9  C5  UNL     1      24.378   4.709   4.101  1.00  0.00    -0.001 C
HETATM   10  C6  UNL     1      25.075   4.088   5.259  1.00  0.00     0.012 C
HETATM   11  C19 UNL     1      25.398   5.286   3.174  1.00  0.00     0.100 C
HETATM   12  C7  UNL     1      25.914   2.893   4.825  1.00  0.00     0.014 C
HETATM   13  C18 UNL     1      26.708   4.660   3.385  1.00  0.00     0.045 C
BRANCH  11  14
HETATM   14  C20 UNL     1      25.540   6.777   3.515  1.00  0.00     0.391 C
HETATM   15  F2  UNL     1      24.532   7.197   4.338  1.00  0.00    -0.171 F
HETATM   16  F3  UNL     1      26.793   7.086   3.995  1.00  0.00    -0.171 F
HETATM   17  F4  UNL     1      25.402   7.532   2.339  1.00  0.00    -0.171 F
ENDBRANCH  11  14
ENDBRANCH   1   3
BRANCH   1  18
HETATM   18  C10 UNL     1      28.901   2.528   4.520  1.00  0.00     0.085 C
HETATM   19  C11 UNL     1      28.417   1.335   5.392  1.00  0.00     0.079 C
HETATM   20  C12 UNL     1      29.588   0.508   5.737  1.00  0.00     0.014 C
HETATM   21  N2  UNL     1      30.088   0.461   6.908  1.00  0.00    -0.275 N
HETATM   22  C15 UNL     1      30.164  -0.292   4.594  1.00  0.00     0.086 C
ATOM     23  H2  UNL     1      30.900  -0.131   7.082  1.00  0.00     0.193 HD
HETATM   24  C16 UNL     1      30.277   0.715   3.440  1.00  0.00     0.125 C
HETATM   25  C17 UNL     1      30.240   2.119   3.975  1.00  0.00     0.057 C
BRANCH  21  26
HETATM   26  O1  UNL     1      29.559   1.189   7.935  1.00  0.00    -0.278 OA
BRANCH  26  27
HETATM   27  C13 UNL     1      29.826   0.838   9.303  1.00  0.00     0.232 C
BRANCH  27  28
HETATM   28  C14 UNL     1      28.602   1.153  10.151  1.00  0.00     0.250 C
HETATM   29  F1  UNL     1      28.031   2.339   9.750  1.00  0.00    -0.253 F
ENDBRANCH  27  28
ENDBRANCH  26  27
ENDBRANCH  21  26
BRANCH  24  30
HETATM   30  O2  UNL     1      29.390   0.454   2.436  1.00  0.00    -0.395 OA
ATOM     31  H2  UNL     1      29.698   0.766   1.593  1.00  0.00     0.210 HD
ENDBRANCH  24  30
ENDBRANCH   1  18
TORSDOF 7
ENDMDL