MODEL 4
REMARK VINA RESULT: -7.499548821      1.820      4.439
REMARK  8 active torsions:
REMARK  status: ('A' for Active; 'I' for Inactive)
REMARK    1  A    between atoms: C2_2  and  N1_3
REMARK    2  A    between atoms: C2_2  and  C6_10
REMARK    3  A    between atoms: N1_3  and  C3_6
REMARK    4  A    between atoms: C6_10  and  C7_11
REMARK    5  A    between atoms: C6_10  and  C16_23
REMARK       I    between atoms: C7_11  and  N2_13
REMARK    6  A    between atoms: N2_13  and  C8_15
REMARK    7  A    between atoms: C16_23  and  S1_25
REMARK    8  A    between atoms: S1_25  and  C17_26
ROOT
HETATM    1  C6  UNL     1      29.865   1.719   5.841  1.00  0.00     0.189 C
ENDROOT
BRANCH   1   2
HETATM    2  C2  UNL     1      29.965   0.437   5.072  1.00  0.00     0.207 C
HETATM    3  C1  UNL     1      31.240  -0.323   5.229  1.00  0.00     0.041 C
BRANCH   2   4
HETATM    4  N1  UNL     1      29.759   0.704   3.657  1.00  0.00    -0.034 N
ATOM      5  H12 UNL     1      29.551   1.688   3.484  1.00  0.00     0.281 HD
ATOM      6  H11 UNL     1      30.629   0.636   3.129  1.00  0.00     0.281 HD
BRANCH   4   7
HETATM    7  C3  UNL     1      28.747  -0.154   3.124  1.00  0.00     0.258 C
HETATM    8  C4  UNL     1      29.439  -1.422   2.593  1.00  0.00     0.084 C
HETATM    9  C5  UNL     1      27.732  -0.501   4.172  1.00  0.00     0.084 C
HETATM   10  F1  UNL     1      28.147   0.443   2.005  1.00  0.00    -0.212 F
ENDBRANCH   4   7
ENDBRANCH   2   4
ENDBRANCH   1   2
BRANCH   1  11
HETATM   11  C7  UNL     1      29.022   2.738   5.178  1.00  0.00     0.232 C
HETATM   12  O1  UNL     1      29.579   3.725   4.644  1.00  0.00    -0.273 OA
HETATM   13  N2  UNL     1      27.587   2.588   5.159  1.00  0.00    -0.355 N
ATOM     14  H2  UNL     1      27.143   1.773   5.584  1.00  0.00     0.162 HD
BRANCH  13  15
HETATM   15  C8  UNL     1      26.792   3.613   4.527  1.00  0.00     0.089 C
HETATM   16  C9  UNL     1      26.661   3.424   3.031  1.00  0.00     0.031 C
HETATM   17  C10 UNL     1      25.159   3.434   2.917  1.00  0.00    -0.004 C
HETATM   18  C11 UNL     1      24.870   2.373   3.993  1.00  0.00     0.012 C
HETATM   19  C13 UNL     1      24.671   4.424   3.948  1.00  0.00    -0.038 C
HETATM   20  C12 UNL     1      25.335   3.478   4.921  1.00  0.00     0.017 C
HETATM   21  C14 UNL     1      25.219   5.818   3.868  1.00  0.00     0.015 C
HETATM   22  C15 UNL     1      23.170   4.489   4.093  1.00  0.00     0.015 C
ENDBRANCH  13  15
ENDBRANCH   1  11
BRANCH   1  23
HETATM   23  C16 UNL     1      29.584   1.576   7.284  1.00  0.00     0.209 C
HETATM   24  O2  UNL     1      29.393   2.551   8.014  1.00  0.00    -0.284 OA
BRANCH  23  25
HETATM   25  S1  UNL     1      29.534  -0.106   7.946  1.00  0.00     0.023 SA
BRANCH  25  26
HETATM   26  C17 UNL     1      30.096  -0.007   9.672  1.00  0.00     0.450 C
HETATM   27  F2  UNL     1      30.117  -1.277  10.243  1.00  0.00    -0.160 F
HETATM   28  F3  UNL     1      29.199   0.736  10.429  1.00  0.00    -0.160 F
HETATM   29  F4  UNL     1      31.346   0.575   9.668  1.00  0.00    -0.160 F
ENDBRANCH  25  26
ENDBRANCH  23  25
ENDBRANCH   1  23
TORSDOF 8
ENDMDL