MODEL 3
REMARK VINA RESULT: -4.590025197      2.790      6.604
REMARK  7 active torsions:
REMARK  status: ('A' for Active; 'I' for Inactive)
REMARK    1  A    between atoms: O1_2  and  C2_3
REMARK    2  A    between atoms: C4_5  and  C5_6
REMARK    3  A    between atoms: C5_6  and  C6_7
REMARK    4  A    between atoms: C8_11  and  C9_12
REMARK    5  A    between atoms: C12_24  and  C13_25
REMARK    6  A    between atoms: C13_25  and  O3_28
REMARK    7  A    between atoms: C16_30  and  C17_31
ROOT
HETATM    1  C2  UNL     1      25.055   2.461   3.426  1.00  0.00     0.076 A
HETATM    2  C3  UNL     1      26.219   1.836   3.765  1.00  0.00     0.050 A
HETATM    3  C4  UNL     1      27.421   2.495   4.025  1.00  0.00     0.017 A
HETATM    4  C11 UNL     1      27.397   3.863   3.929  1.00  0.00     0.135 A
HETATM    5  F5  UNL     1      28.521   4.587   4.178  1.00  0.00    -0.205 F
HETATM    6  C12 UNL     1      26.188   4.538   3.581  1.00  0.00     0.024 A
HETATM    7  C16 UNL     1      25.052   3.875   3.327  1.00  0.00    -0.008 A
ENDROOT
BRANCH   3   8
HETATM    8  C5  UNL     1      28.649   1.728   4.350  1.00  0.00     0.125 C
HETATM    9  C7  UNL     1      29.471   1.362   3.158  1.00  0.00     0.080 C
HETATM   10  C8  UNL     1      29.192   0.065   2.506  1.00  0.00     0.199 C
HETATM   11  O2  UNL     1      28.534  -0.892   3.282  1.00  0.00    -0.311 OA
HETATM   12  C10 UNL     1      27.840  -0.600   4.439  1.00  0.00     0.214 C
HETATM   13  N1  UNL     1      26.857  -1.336   4.900  1.00  0.00    -0.365 N
HETATM   14  N2  UNL     1      28.247   0.575   5.143  1.00  0.00    -0.338 N
ATOM     15  H12 UNL     1      26.567  -2.175   4.398  1.00  0.00     0.159 HD
ATOM     16  H11 UNL     1      26.344  -1.120   5.756  1.00  0.00     0.159 HD
ATOM     17  H2  UNL     1      28.255   0.605   6.162  1.00  0.00     0.164 HD
BRANCH   8  18
HETATM   18  C6  UNL     1      29.550   2.556   5.280  1.00  0.00     0.385 C
HETATM   19  F1  UNL     1      30.798   2.761   4.708  1.00  0.00    -0.211 F
HETATM   20  F2  UNL     1      29.831   1.787   6.425  1.00  0.00    -0.211 F
ENDBRANCH   8  18
BRANCH  10  21
HETATM   21  C9  UNL     1      30.476  -0.611   1.991  1.00  0.00     0.382 C
HETATM   22  F3  UNL     1      31.405   0.304   1.554  1.00  0.00    -0.212 F
HETATM   23  F4  UNL     1      30.930  -1.459   2.948  1.00  0.00    -0.212 F
ENDBRANCH  10  21
ENDBRANCH   3   8
BRANCH   1  24
HETATM   24  O1  UNL     1      23.889   1.743   3.178  1.00  0.00    -0.355 OA
HETATM   25  C1  UNL     1      23.708   0.885   2.104  1.00  0.00     0.210 C
ENDBRANCH   1  24
BRANCH   6  26
HETATM   26  C13 UNL     1      26.350   6.007   3.722  1.00  0.00     0.081 C
HETATM   27  C14 UNL     1      25.768   6.732   2.498  1.00  0.00     0.051 C
HETATM   28  C15 UNL     1      27.844   6.363   3.725  1.00  0.00     0.051 C
BRANCH  26  29
HETATM   29  O3  UNL     1      25.820   6.636   4.789  1.00  0.00    -0.386 OA
ATOM     30  H3  UNL     1      25.476   7.516   4.692  1.00  0.00     0.211 HD
ENDBRANCH  26  29
ENDBRANCH   6  26
BRANCH   7  31
HETATM   31  C17 UNL     1      23.750   4.410   2.959  1.00  0.00     0.022 A
HETATM   32  C18 UNL     1      23.110   5.159   4.177  1.00  0.00     0.010 A
HETATM   33  C19 UNL     1      22.419   4.102   3.468  1.00  0.00     0.010 A
ENDBRANCH   7  31
TORSDOF 7
ENDMDL