MODEL 5
REMARK VINA RESULT: -6.135115395      1.637      2.158
REMARK  5 active torsions:
REMARK  status: ('A' for Active; 'I' for Inactive)
REMARK    1  A    between atoms: C1_2  and  C2_4
REMARK    2  A    between atoms: C2_4  and  O1_5
REMARK    3  A    between atoms: O1_5  and  C3_6
REMARK    4  A    between atoms: C6_11  and  C7_12
REMARK    5  A    between atoms: C12_20  and  C13_21
ROOT
HETATM    1  C3  UNL     1      30.729   0.694   8.762  1.00  0.00     0.225 A
HETATM    2  N1  UNL     1      29.722   1.596   8.493  1.00  0.00    -0.331 N
ATOM      3  H1  UNL     1      29.339   2.171   9.243  1.00  0.00     0.168 HD
HETATM    4  C4  UNL     1      29.247   1.717   7.250  1.00  0.00     0.107 A
HETATM    5  C5  UNL     1      29.730   0.966   6.216  1.00  0.00     0.032 A
HETATM    6  C6  UNL     1      29.412   0.884   4.867  1.00  0.00    -0.019 A
HETATM    7  C18 UNL     1      30.251  -0.085   4.366  1.00  0.00     0.098 A
HETATM    8  N3  UNL     1      31.049  -0.576   5.359  1.00  0.00    -0.351 N
ATOM      9  H3  UNL     1      31.759  -1.300   5.256  1.00  0.00     0.166 HD
HETATM   10  C19 UNL     1      30.729   0.075   6.516  1.00  0.00     0.120 A
HETATM   11  N4  UNL     1      31.203  -0.042   7.762  1.00  0.00    -0.307 N
ATOM     12  H4  UNL     1      31.947  -0.714   7.949  1.00  0.00     0.171 HD
ENDROOT
BRANCH   6  13
HETATM   13  C7  UNL     1      28.419   1.711   4.113  1.00  0.00    -0.009 C
HETATM   14  C8  UNL     1      28.965   3.108   4.020  1.00  0.00     0.042 C
HETATM   15  C9  UNL     1      28.122   4.246   4.423  1.00  0.00     0.233 C
HETATM   16  N2  UNL     1      27.627   5.022   3.268  1.00  0.00    -0.075 N
HETATM   17  C10 UNL     1      26.235   4.625   2.983  1.00  0.00     0.233 C
ATOM     18  H22 UNL     1      27.724   6.028   3.406  1.00  0.00     0.277 HD
ATOM     19  H21 UNL     1      28.232   4.931   2.451  1.00  0.00     0.277 HD
HETATM   20  C11 UNL     1      26.208   3.417   2.140  1.00  0.00     0.046 C
HETATM   21  C12 UNL     1      25.915   2.118   2.739  1.00  0.00     0.059 C
HETATM   22  C14 UNL     1      26.881   1.076   2.201  1.00  0.00     0.019 C
HETATM   23  C16 UNL     1      25.879   1.971   4.214  1.00  0.00     0.019 C
HETATM   24  C15 UNL     1      28.264   1.185   2.706  1.00  0.00     0.015 C
HETATM   25  C17 UNL     1      27.143   1.650   4.916  1.00  0.00     0.015 C
BRANCH  21  26
HETATM   26  C13 UNL     1      24.552   1.642   2.184  1.00  0.00     0.395 C
HETATM   27  F3  UNL     1      24.086   0.555   2.853  1.00  0.00    -0.170 F
HETATM   28  F4  UNL     1      24.725   1.383   0.840  1.00  0.00    -0.170 F
HETATM   29  F5  UNL     1      23.680   2.729   2.274  1.00  0.00    -0.170 F
ENDBRANCH  21  26
ENDBRANCH   6  13
BRANCH   1  30
HETATM   30  O1  UNL     1      31.210   0.579  10.032  1.00  0.00    -0.316 OA
BRANCH  30  31
HETATM   31  C2  UNL     1      30.589   0.124  11.161  1.00  0.00     0.249 C
BRANCH  31  32
HETATM   32  C1  UNL     1      29.137  -0.202  11.113  1.00  0.00     0.377 C
HETATM   33  F1  UNL     1      28.378   0.941  11.365  1.00  0.00    -0.212 F
HETATM   34  F2  UNL     1      28.683  -0.912  10.050  1.00  0.00    -0.212 F
ENDBRANCH  31  32
ENDBRANCH  30  31
ENDBRANCH   1  30
TORSDOF 5
ENDMDL