MODEL 4
REMARK VINA RESULT: -7.744812547      0.647      2.191
REMARK  5 active torsions:
REMARK  status: ('A' for Active; 'I' for Inactive)
REMARK    1  A    between atoms: C3_7  and  C4_8
REMARK    2  A    between atoms: N2_9  and  O2_11
REMARK    3  A    between atoms: O2_11  and  C5_12
REMARK    4  A    between atoms: C5_12  and  C6_13
REMARK    5  A    between atoms: C6_13  and  C7_14
ROOT
HETATM    1  O2  UNL     1      28.933   2.802   5.237  1.00  0.00    -0.280 OA
ENDROOT
BRANCH   1   2
HETATM    2  N2  UNL     1      28.723   2.084   6.403  1.00  0.00    -0.276 N
HETATM    3  C4  UNL     1      29.350   2.410   7.475  1.00  0.00     0.146 C
ATOM      4  H2  UNL     1      28.073   1.298   6.410  1.00  0.00     0.193 HD
BRANCH   3   5
HETATM    5  C3  UNL     1      29.151   1.678   8.704  1.00  0.00     0.092 A
HETATM    6  C2  UNL     1      29.744   0.488   9.034  1.00  0.00     0.136 A
HETATM    7  N1  UNL     1      29.296   0.130  10.259  1.00  0.00    -0.297 N
HETATM    8 CL1  UNL     1      30.875  -0.391   8.034  1.00  0.00    -0.062 Cl
HETATM    9  C1  UNL     1      28.436   1.057  10.714  1.00  0.00     0.326 A
ATOM     10  H1  UNL     1      29.569  -0.715  10.761  1.00  0.00     0.171 HD
HETATM   11  O1  UNL     1      27.804   1.113  11.785  1.00  0.00    -0.247 OA
HETATM   12  N3  UNL     1      28.366   2.001   9.732  1.00  0.00    -0.305 N
ATOM     13  H3  UNL     1      27.792   2.843   9.779  1.00  0.00     0.171 HD
ENDBRANCH   3   5
ENDBRANCH   1   2
BRANCH   1  14
HETATM   14  C5  UNL     1      29.327   2.040   4.123  1.00  0.00     0.206 C
BRANCH  14  15
HETATM   15  C6  UNL     1      28.398   2.194   2.965  1.00  0.00     0.071 C
BRANCH  15  16
HETATM   16  C7  UNL     1      27.238   3.061   3.189  1.00  0.00    -0.011 A
HETATM   17  C8  UNL     1      27.179   4.416   3.034  1.00  0.00     0.043 A
HETATM   18 CL2  UNL     1      28.596   5.263   2.433  1.00  0.00    -0.084 Cl
HETATM   19  C9  UNL     1      26.068   5.177   3.291  1.00  0.00     0.050 A
HETATM   20  C10 UNL     1      24.918   4.543   3.739  1.00  0.00     0.059 A
HETATM   21 CL3  UNL     1      23.499   5.512   4.068  1.00  0.00    -0.082 Cl
HETATM   22  C11 UNL     1      24.911   3.174   3.918  1.00  0.00     0.078 A
HETATM   23 CL4  UNL     1      23.441   2.429   4.483  1.00  0.00    -0.081 Cl
HETATM   24  C12 UNL     1      26.059   2.462   3.642  1.00  0.00     0.065 A
HETATM   25 CL5  UNL     1      26.021   0.714   3.881  1.00  0.00    -0.082 Cl
ENDBRANCH  15  16
ENDBRANCH  14  15
ENDBRANCH   1  14
TORSDOF 5
ENDMDL