MODEL 4
REMARK VINA RESULT: -7.261386311      1.356      1.957
REMARK  6 active torsions:
REMARK  status: ('A' for Active; 'I' for Inactive)
REMARK    1  A    between atoms: C2_2  and  O1_3
REMARK    2  A    between atoms: C2_2  and  C8_10
REMARK    3  A    between atoms: O1_3  and  C3_4
REMARK    4  A    between atoms: C3_4  and  C4_5
REMARK    5  A    between atoms: C11_13  and  N1_14
REMARK    6  A    between atoms: N1_14  and  C12_16
ROOT
HETATM    1  C8  UNL     1      28.472   2.520   3.418  1.00  0.00     0.028 C
HETATM    2  C9  UNL     1      29.144   3.603   4.268  1.00  0.00     0.010 C
HETATM    3  C10 UNL     1      29.820   2.927   5.414  1.00  0.00     0.027 C
HETATM    4  C11 UNL     1      29.002   1.665   5.499  1.00  0.00     0.111 C
HETATM    5  C16 UNL     1      28.912   1.296   4.034  1.00  0.00     0.018 C
HETATM    6  C17 UNL     1      30.321   0.937   3.496  1.00  0.00     0.023 C
HETATM    7  C18 UNL     1      29.988   0.502   2.076  1.00  0.00     0.010 C
HETATM    8  C19 UNL     1      28.762  -0.315   2.315  1.00  0.00     0.033 C
HETATM    9  C20 UNL     1      28.380  -0.034   3.743  1.00  0.00     0.133 C
HETATM   10  O3  UNL     1      29.291  -0.823   4.512  1.00  0.00    -0.385 OA
HETATM   11  C21 UNL     1      30.555  -0.387   4.189  1.00  0.00     0.173 C
ENDROOT
BRANCH   4  12
HETATM   12  N1  UNL     1      29.448   0.699   6.389  1.00  0.00    -0.221 N
ATOM     13  H1  UNL     1      29.932  -0.102   5.984  1.00  0.00     0.178 HD
BRANCH  12  14
HETATM   14  C12 UNL     1      29.318   0.701   7.668  1.00  0.00     0.678 A
HETATM   15  N2  UNL     1      29.743  -0.341   8.425  1.00  0.00    -0.201 N
HETATM   16  C13 UNL     1      29.638  -0.398   9.760  1.00  0.00     0.126 A
ATOM     17  H2  UNL     1      30.172  -1.134   7.947  1.00  0.00     0.183 HD
HETATM   18  C14 UNL     1      29.058   0.680  10.397  1.00  0.00     0.042 A
HETATM   19 BR1  UNL     1      28.871   0.675  12.300  1.00  0.00    -0.048 Br
HETATM   20  C15 UNL     1      28.628   1.735   9.622  1.00  0.00     0.126 A
HETATM   21  N3  UNL     1      28.752   1.756   8.274  1.00  0.00    -0.201 N
ATOM     22  H3  UNL     1      28.423   2.555   7.731  1.00  0.00     0.183 HD
ENDBRANCH  12  14
ENDBRANCH   4  12
BRANCH   1  23
HETATM   23  C2  UNL     1      27.070   2.877   3.136  1.00  0.00     0.122 C
HETATM   24  C1  UNL     1      26.775   4.328   2.823  1.00  0.00     0.040 C
BRANCH  23  25
HETATM   25  O1  UNL     1      26.164   2.536   4.078  1.00  0.00    -0.385 OA
BRANCH  25  26
HETATM   26  C3  UNL     1      24.908   2.182   3.874  1.00  0.00     0.174 C
BRANCH  26  27
HETATM   27  C4  UNL     1      23.768   2.766   4.595  1.00  0.00     0.035 C
HETATM   28  C5  UNL     1      22.722   3.532   3.885  1.00  0.00     0.035 C
HETATM   29  C6  UNL     1      23.479   4.857   3.645  1.00  0.00     0.168 C
HETATM   30  O2  UNL     1      24.051   5.071   4.872  1.00  0.00    -0.391 OA
HETATM   31  C7  UNL     1      24.335   3.882   5.496  1.00  0.00     0.174 C
ENDBRANCH  26  27
ENDBRANCH  25  26
ENDBRANCH  23  25
ENDBRANCH   1  23
TORSDOF 6
ENDMDL