MODEL 1
REMARK VINA RESULT: -2.488372618      0.000      0.000
REMARK  7 active torsions:
REMARK  status: ('A' for Active; 'I' for Inactive)
REMARK    1  A    between atoms: O1_2  and  C2_3
REMARK    2  A    between atoms: C2_3  and  C3_4
REMARK    3  A    between atoms: C3_4  and  C4_5
REMARK    4  A    between atoms: C4_5  and  N1_6
REMARK    5  A    between atoms: N3_18  and  C14_19
REMARK    6  A    between atoms: C17_22  and  O2_23
REMARK    7  A    between atoms: C23_30  and  O3_31
ROOT
HETATM    1  N1  UNL     1      29.125   2.026   6.879  1.00  0.00    -0.012 N
HETATM    2  C5  UNL     1      28.437   2.943   6.067  1.00  0.00     0.215 C
HETATM    3  C6  UNL     1      28.602   3.192   4.653  1.00  0.00    -0.006 C
HETATM    4  C7  UNL     1      29.944   2.982   4.011  1.00  0.00     0.043 C
HETATM    5  C8  UNL     1      30.375   1.589   3.869  1.00  0.00     0.010 C
HETATM    6  C9  UNL     1      29.563   0.543   4.549  1.00  0.00     0.001 C
HETATM    7  C10 UNL     1      29.129  -0.418   3.492  1.00  0.00     0.011 C
HETATM    8  C11 UNL     1      28.418   0.407   2.449  1.00  0.00     0.060 C
HETATM    9  C12 UNL     1      27.608   1.548   2.850  1.00  0.00     0.037 A
HETATM   10  N2  UNL     1      26.391   1.623   2.202  1.00  0.00    -0.354 N
ATOM     11  H2  UNL     1      26.069   0.943   1.514  1.00  0.00     0.166 HD
HETATM   12  C13 UNL     1      25.697   2.673   2.575  1.00  0.00     0.184 A
HETATM   13  N3  UNL     1      26.434   3.338   3.492  1.00  0.00    -0.336 N
HETATM   14  C20 UNL     1      27.564   2.693   3.669  1.00  0.00     0.066 A
HETATM   15  C21 UNL     1      30.119   0.121   5.841  1.00  0.00     0.045 C
HETATM   16  C22 UNL     1      31.348  -0.711   5.797  1.00  0.00     0.023 C
HETATM   17  C23 UNL     1      29.091  -0.387   6.837  1.00  0.00     0.157 C
HETATM   18  C24 UNL     1      28.339   0.854   7.270  1.00  0.00     0.279 C
HETATM   19  C25 UNL     1      30.376   1.465   6.583  1.00  0.00     0.388 C
HETATM   20  F1  UNL     1      30.952   0.927   7.772  1.00  0.00    -0.217 F
ENDROOT
BRANCH  13  21
HETATM   21  C14 UNL     1      26.077   4.570   4.178  1.00  0.00     0.091 C
HETATM   22  C15 UNL     1      26.592   5.784   3.482  1.00  0.00     0.028 C
HETATM   23  C16 UNL     1      25.594   6.529   2.636  1.00  0.00     0.034 C
HETATM   24  C17 UNL     1      24.357   6.783   3.505  1.00  0.00     0.118 C
HETATM   25  C18 UNL     1      23.733   5.386   3.616  1.00  0.00     0.034 C
HETATM   26  C19 UNL     1      24.607   4.542   4.453  1.00  0.00     0.028 C
BRANCH  24  27
HETATM   27  O2  UNL     1      24.830   7.211   4.737  1.00  0.00    -0.396 OA
ATOM     28  H2  UNL     1      24.079   7.556   5.204  1.00  0.00     0.210 HD
ENDBRANCH  24  27
ENDBRANCH  13  21
BRANCH   1  29
HETATM   29  C4  UNL     1      29.334   2.712   8.180  1.00  0.00     0.248 C
BRANCH  29  30
HETATM   30  C3  UNL     1      28.291   2.372   9.204  1.00  0.00     0.055 C
BRANCH  30  31
HETATM   31  C2  UNL     1      28.859   1.374  10.180  1.00  0.00     0.168 C
BRANCH  31  32
HETATM   32  O1  UNL     1      28.042   1.153  11.233  1.00  0.00    -0.396 OA
HETATM   33  C1  UNL     1      28.625   0.675  12.374  1.00  0.00     0.201 C
ENDBRANCH  31  32
ENDBRANCH  30  31
ENDBRANCH  29  30
ENDBRANCH   1  29
BRANCH  17  34
HETATM   34  O3  UNL     1      29.640  -1.074   7.886  1.00  0.00    -0.393 OA
ATOM     35  H3  UNL     1      29.358  -1.980   7.934  1.00  0.00     0.210 HD
ENDBRANCH  17  34
TORSDOF 7
ENDMDL