MODEL 3
REMARK VINA RESULT: -7.104045791      0.857      1.075
REMARK  7 active torsions:
REMARK  status: ('A' for Active; 'I' for Inactive)
REMARK       I    between atoms: C1_2  and  N3_21
REMARK    1  A    between atoms: N2_3  and  C2_5
REMARK    2  A    between atoms: C2_5  and  C3_7
REMARK    3  A    between atoms: C3_7  and  O1_8
REMARK    4  A    between atoms: O1_8  and  C4_9
REMARK    5  A    between atoms: C4_9  and  C5_11
REMARK    6  A    between atoms: C10_17  and  C11_18
REMARK    7  A    between atoms: N3_21  and  C13_23
ROOT
HETATM    1  C2  UNL     1      28.635   0.132   3.414  1.00  0.00     0.104 C
HETATM    2  S1  UNL     1      29.089  -1.264   2.735  1.00  0.00    -0.063 SA
ENDROOT
BRANCH   1   3
HETATM    3  N2  UNL     1      28.830   0.424   4.794  1.00  0.00    -0.323 N
HETATM    4  C1  UNL     1      29.571   1.369   5.221  1.00  0.00     0.193 C
HETATM    5  N1  UNL     1      30.258   2.200   4.316  1.00  0.00    -0.063 NA
HETATM    6  N3  UNL     1      29.704   1.585   6.606  1.00  0.00    -0.340 N
ATOM      7  H3  UNL     1      29.472   2.505   6.982  1.00  0.00     0.167 HD
ATOM      8  H2  UNL     1      28.348  -0.156   5.481  1.00  0.00     0.169 HD
BRANCH   6   9
HETATM    9  C13 UNL     1      30.150   0.564   7.510  1.00  0.00     0.105 C
HETATM   10  C14 UNL     1      29.643   0.507   8.697  1.00  0.00    -0.006 C
HETATM   11  C15 UNL     1      28.622   1.384   9.281  1.00  0.00     0.048 C
HETATM   12  S2  UNL     1      30.055  -0.673   9.963  1.00  0.00    -0.133 SA
HETATM   13  C16 UNL     1      28.792   1.403  10.770  1.00  0.00     0.015 C
HETATM   14  C17 UNL     1      28.908  -0.028  11.258  1.00  0.00     0.079 C
ENDBRANCH   6   9
ENDBRANCH   1   3
BRANCH   1  15
HETATM   15  C3  UNL     1      27.962   1.175   2.611  1.00  0.00     0.248 C
BRANCH  15  16
HETATM   16  O1  UNL     1      26.589   1.057   2.489  1.00  0.00    -0.314 OA
BRANCH  16  17
HETATM   17  C4  UNL     1      25.718   1.489   3.510  1.00  0.00     0.266 C
HETATM   18  O2  UNL     1      25.741   0.828   4.540  1.00  0.00    -0.265 OA
BRANCH  17  19
HETATM   19  C5  UNL     1      24.865   2.665   3.282  1.00  0.00     0.124 C
HETATM   20  C6  UNL     1      23.807   2.651   4.371  1.00  0.00     0.136 C
HETATM   21  C7  UNL     1      22.654   3.472   3.836  1.00  0.00     0.035 C
HETATM   22  O3  UNL     1      24.331   3.527   5.317  1.00  0.00    -0.379 OA
HETATM   23  C8  UNL     1      23.279   4.844   3.796  1.00  0.00     0.035 C
HETATM   24  C9  UNL     1      24.618   4.610   4.514  1.00  0.00     0.130 C
HETATM   25  C10 UNL     1      25.530   4.010   3.483  1.00  0.00     0.054 C
BRANCH  25  26
HETATM   26  C11 UNL     1      26.946   3.979   3.726  1.00  0.00    -0.011 C
HETATM   27  C12 UNL     1      27.828   4.897   3.868  1.00  0.00     0.052 C
HETATM   28 BR1  UNL     1      27.472   6.760   3.788  1.00  0.00    -0.064 Br
ENDBRANCH  25  26
ENDBRANCH  17  19
ENDBRANCH  16  17
ENDBRANCH  15  16
ENDBRANCH   1  15
TORSDOF 7
ENDMDL