MODEL 1
REMARK VINA RESULT: -6.218892494      0.000      0.000
REMARK  5 active torsions:
REMARK  status: ('A' for Active; 'I' for Inactive)
REMARK    1  A    between atoms: O1_2  and  C2_3
REMARK    2  A    between atoms: N1_6  and  C5_7
REMARK    3  A    between atoms: C7_9  and  N2_10
REMARK       I    between atoms: N2_10  and  C8_12
REMARK       I    between atoms: C8_12  and  N3_14
REMARK    4  A    between atoms: N3_14  and  C9_16
REMARK    5  A    between atoms: C13_20  and  N4_21
ROOT
HETATM    1  C5  UNL     1      27.847   1.725   3.527  1.00  0.00     0.108 A
HETATM    2  C6  UNL     1      28.469   2.061   4.707  1.00  0.00     0.097 A
HETATM    3  C7  UNL     1      29.462   1.241   5.252  1.00  0.00     0.113 A
HETATM    4  N5  UNL     1      29.774   0.137   4.588  1.00  0.00    -0.332 N
ATOM      5  H5  UNL     1      30.497  -0.473   4.971  1.00  0.00     0.168 HD
HETATM    6  C19 UNL     1      29.189  -0.213   3.449  1.00  0.00     0.080 A
HETATM    7  C20 UNL     1      29.607  -1.483   2.767  1.00  0.00     0.089 C
HETATM    8  N6  UNL     1      28.241   0.583   2.938  1.00  0.00    -0.332 N
ATOM      9  H6  UNL     1      27.797   0.309   2.062  1.00  0.00     0.168 HD
ENDROOT
BRANCH   3  10
HETATM   10  N2  UNL     1      29.995   1.608   6.345  1.00  0.00    -0.295 N
HETATM   11  C8  UNL     1      29.642   1.289   7.649  1.00  0.00     0.322 C
HETATM   12  O2  UNL     1      29.819   2.201   8.527  1.00  0.00    -0.247 OA
HETATM   13  N3  UNL     1      29.105   0.056   8.113  1.00  0.00    -0.338 N
ATOM     14  H3  UNL     1      28.949  -0.699   7.445  1.00  0.00     0.164 HD
ATOM     15  H2  UNL     1      30.800   2.228   6.250  1.00  0.00     0.172 HD
BRANCH  13  16
HETATM   16  C9  UNL     1      28.773  -0.156   9.512  1.00  0.00     0.088 C
HETATM   17  C10 UNL     1      29.445  -1.408  10.000  1.00  0.00     0.025 C
HETATM   18  C11 UNL     1      30.861  -1.230  10.453  1.00  0.00     0.004 C
HETATM   19  C12 UNL     1      31.141   0.008  11.232  1.00  0.00     0.036 C
HETATM   20  C13 UNL     1      29.858   0.659  11.634  1.00  0.00     0.225 C
HETATM   21  C18 UNL     1      29.064   1.009  10.392  1.00  0.00     0.061 C
BRANCH  20  22
HETATM   22  N4  UNL     1      29.149  -0.155  12.561  1.00  0.00     0.093 N
HETATM   23  C14 UNL     1      29.894  -0.266  13.792  1.00  0.00     0.273 C
HETATM   24  C15 UNL     1      28.877  -0.950  14.710  1.00  0.00     0.032 C
HETATM   25  C16 UNL     1      27.575  -0.381  14.227  1.00  0.00     0.032 C
HETATM   26  C17 UNL     1      27.905   0.441  13.004  1.00  0.00     0.273 C
ENDBRANCH  20  22
ENDBRANCH  13  16
ENDBRANCH   3  10
BRANCH   1  27
HETATM   27  N1  UNL     1      26.822   2.560   2.963  1.00  0.00    -0.367 N
HETATM   28  C4  UNL     1      25.483   2.115   3.196  1.00  0.00     0.127 C
HETATM   29  C3  UNL     1      24.683   3.007   4.102  1.00  0.00     0.054 C
HETATM   30  C2  UNL     1      24.708   4.427   3.574  1.00  0.00     0.156 C
HETATM   31  C23 UNL     1      26.046   5.012   3.985  1.00  0.00     0.200 C
HETATM   32  C22 UNL     1      26.949   5.026   2.799  1.00  0.00     0.060 C
HETATM   33  F1  UNL     1      25.792   6.348   4.317  1.00  0.00    -0.247 F
HETATM   34  C21 UNL     1      27.331   3.693   2.261  1.00  0.00     0.127 C
BRANCH  30  35
HETATM   35  O1  UNL     1      23.659   5.163   4.114  1.00  0.00    -0.388 OA
HETATM   36  C1  UNL     1      22.453   4.486   3.885  1.00  0.00     0.202 C
ENDBRANCH  30  35
ENDBRANCH   1  27
TORSDOF 5
ENDMDL