MODEL 2
REMARK VINA RESULT: -2.630472599      3.159      7.629
REMARK  6 active torsions:
REMARK  status: ('A' for Active; 'I' for Inactive)
REMARK    1  A    between atoms: C6_6  and  S1_7
REMARK    2  A    between atoms: C10_14  and  N1_15
REMARK       I    between atoms: N1_15  and  C11_17
REMARK       I    between atoms: C11_17  and  N2_19
REMARK    3  A    between atoms: C14_24  and  C15_25
REMARK    4  A    between atoms: C15_25  and  C16_26
REMARK    5  A    between atoms: C16_26  and  C17_27
REMARK    6  A    between atoms: C17_27  and  C18_28
ROOT
HETATM    1  N1  UNL     1      26.842   2.005   3.846  1.00  0.00    -0.338 N
ATOM      2  H1  UNL     1      27.440   2.685   3.378  1.00  0.00     0.164 HD
HETATM    3  C11 UNL     1      27.459   0.841   4.333  1.00  0.00     0.320 C
HETATM    4  O3  UNL     1      26.727  -0.004   4.917  1.00  0.00    -0.247 OA
HETATM    5  N2  UNL     1      28.849   0.587   4.198  1.00  0.00    -0.312 N
HETATM    6  C12 UNL     1      29.790   1.498   3.542  1.00  0.00     0.211 C
HETATM    7  S2  UNL     1      30.756   0.258   2.576  1.00  0.00    -0.070 SA
HETATM    8  C13 UNL     1      30.225  -1.172   3.484  1.00  0.00     0.210 C
HETATM    9  O4  UNL     1      30.366  -2.309   3.191  1.00  0.00    -0.283 OA
HETATM   10  C14 UNL     1      29.571  -0.606   4.676  1.00  0.00     0.171 C
ENDROOT
BRANCH   1  11
HETATM   11  C10 UNL     1      25.456   2.325   3.947  1.00  0.00     0.094 C
HETATM   12  C4  UNL     1      25.043   3.146   5.112  1.00  0.00     0.011 C
HETATM   13  C3  UNL     1      23.507   3.109   5.151  1.00  0.00     0.015 C
HETATM   14  C5  UNL     1      25.428   4.589   5.037  1.00  0.00     0.035 C
HETATM   15  C2  UNL     1      22.974   3.756   3.911  1.00  0.00    -0.042 C
HETATM   16  C1  UNL     1      21.459   3.797   3.991  1.00  0.00     0.015 C
HETATM   17  C9  UNL     1      23.398   2.936   2.712  1.00  0.00     0.015 C
HETATM   18  C19 UNL     1      23.471   5.155   3.699  1.00  0.00     0.037 C
HETATM   19  C8  UNL     1      24.907   2.939   2.657  1.00  0.00     0.011 C
HETATM   20  C7  UNL     1      25.483   4.324   2.539  1.00  0.00     0.035 C
HETATM   21  C6  UNL     1      25.000   5.133   3.698  1.00  0.00     0.095 C
BRANCH  21  22
HETATM   22  S1  UNL     1      25.560   6.816   3.588  1.00  0.00     0.308 S
HETATM   23  O1  UNL     1      26.948   6.955   4.122  1.00  0.00    -0.193 OA
HETATM   24  O2  UNL     1      24.631   7.720   4.384  1.00  0.00    -0.193 OA
HETATM   25  F1  UNL     1      25.543   7.338   1.999  1.00  0.00    -0.104 F
ENDBRANCH  21  22
ENDBRANCH   1  11
BRANCH  10  26
HETATM   26  C15 UNL     1      30.624  -0.204   5.688  1.00  0.00     0.034 C
BRANCH  26  27
HETATM   27  C16 UNL     1      30.004   0.557   6.813  1.00  0.00     0.013 C
BRANCH  27  28
HETATM   28  C17 UNL     1      30.548   0.127   8.153  1.00  0.00     0.113 C
BRANCH  28  29
HETATM   29  C18 UNL     1      29.855   0.845   9.248  1.00  0.00     0.172 C
HETATM   30  O5  UNL     1      29.910   0.373  10.405  1.00  0.00    -0.648 OA
HETATM   31  O6  UNL     1      29.154   2.014   9.045  1.00  0.00    -0.648 OA
ENDBRANCH  28  29
ENDBRANCH  27  28
ENDBRANCH  26  27
ENDBRANCH  10  26
TORSDOF 6
ENDMDL