MODEL 1
REMARK VINA RESULT: -6.629923261      0.000      0.000
REMARK  7 active torsions:
REMARK  status: ('A' for Active; 'I' for Inactive)
REMARK    1  A    between atoms: O1_2  and  C2_3
REMARK    2  A    between atoms: C3_6  and  N2_7
REMARK       I    between atoms: N2_7  and  C4_9
REMARK    3  A    between atoms: N4_17  and  C9_18
REMARK    4  A    between atoms: C9_18  and  C10_19
REMARK    5  A    between atoms: C10_19  and  N5_21
REMARK       I    between atoms: N5_21  and  C12_23
REMARK    6  A    between atoms: C12_23  and  C13_25
REMARK    7  A    between atoms: C16_28  and  C18_30
ROOT
HETATM    1  C2  UNL     1      29.724  -0.940  10.179  1.00  0.00     0.170 A
HETATM    2  N1  UNL     1      29.402  -0.740  11.484  1.00  0.00    -0.169 N
ATOM      3  H1  UNL     1      29.596  -1.481  12.157  1.00  0.00     0.186 HD
HETATM    4  C3  UNL     1      28.839   0.397  11.921  1.00  0.00     0.687 A
HETATM    5  N3  UNL     1      28.583   1.379  11.030  1.00  0.00    -0.194 N
ATOM      6  H3  UNL     1      28.155   2.252  11.338  1.00  0.00     0.184 HD
HETATM    7  C6  UNL     1      28.897   1.198   9.723  1.00  0.00     0.044 A
HETATM    8  C7  UNL     1      29.470   0.049   9.261  1.00  0.00     0.054 A
HETATM    9  C8  UNL     1      29.791  -0.148   7.853  1.00  0.00     0.108 C
HETATM   10  N4  UNL     1      30.073   1.005   7.133  1.00  0.00    -0.367 N
HETATM   11  C22 UNL     1      29.839   2.284   7.756  1.00  0.00     0.133 C
HETATM   12  C23 UNL     1      28.647   2.262   8.690  1.00  0.00     0.079 C
ENDROOT
BRANCH  10  13
HETATM   13  C9  UNL     1      30.115   1.033   5.738  1.00  0.00     0.088 C
BRANCH  13  14
HETATM   14  C10 UNL     1      29.052   0.407   4.932  1.00  0.00     0.119 C
HETATM   15  C11 UNL     1      29.455  -0.397   3.748  1.00  0.00     0.038 C
BRANCH  14  16
HETATM   16  N5  UNL     1      28.117   1.431   4.439  1.00  0.00    -0.352 N
HETATM   17  C12 UNL     1      26.786   1.160   4.093  1.00  0.00     0.222 C
HETATM   18  O3  UNL     1      26.392  -0.030   4.218  1.00  0.00    -0.273 OA
ATOM     19  H5  UNL     1      28.455   2.388   4.345  1.00  0.00     0.163 HD
BRANCH  17  20
HETATM   20  C13 UNL     1      25.836   2.177   3.597  1.00  0.00     0.078 C
HETATM   21  C14 UNL     1      24.839   2.630   4.611  1.00  0.00     0.015 C
HETATM   22  C15 UNL     1      25.032   4.077   5.033  1.00  0.00     0.013 C
HETATM   23  C16 UNL     1      24.831   4.951   3.810  1.00  0.00    -0.013 C
HETATM   24  C17 UNL     1      23.376   4.867   3.405  1.00  0.00     0.018 C
HETATM   25  C20 UNL     1      25.688   4.490   2.654  1.00  0.00     0.013 C
HETATM   26  C21 UNL     1      26.600   3.360   3.039  1.00  0.00     0.015 C
BRANCH  23  27
HETATM   27  C18 UNL     1      25.133   6.371   4.204  1.00  0.00     0.174 C
HETATM   28  C19 UNL     1      24.225   7.365   3.521  1.00  0.00     0.046 C
HETATM   29  F1  UNL     1      26.472   6.669   4.002  1.00  0.00    -0.249 F
ENDBRANCH  23  27
ENDBRANCH  17  20
ENDBRANCH  14  16
ENDBRANCH  13  14
ENDBRANCH  10  13
BRANCH   1  30
HETATM   30  O1  UNL     1      30.300  -2.114   9.761  1.00  0.00    -0.340 OA
HETATM   31  C1  UNL     1      29.457  -3.276   9.735  1.00  0.00     0.211 C
ENDBRANCH   1  30
BRANCH   4  32
HETATM   32  N2  UNL     1      28.527   0.585  13.181  1.00  0.00    -0.160 N
HETATM   33  C4  UNL     1      28.768  -0.336  14.205  1.00  0.00     0.231 C
HETATM   34  C5  UNL     1      27.932  -1.544  14.373  1.00  0.00     0.118 C
HETATM   35  O2  UNL     1      29.723  -0.126  15.006  1.00  0.00    -0.273 OA
ATOM     36  H2  UNL     1      28.077   1.465  13.432  1.00  0.00     0.187 HD
ENDBRANCH   4  32
TORSDOF 7
ENDMDL