MODEL 3
REMARK VINA RESULT: -7.574381021      1.653      1.997
REMARK  6 active torsions:
REMARK  status: ('A' for Active; 'I' for Inactive)
REMARK    1  A    between atoms: C3_4  and  S2_5
REMARK    2  A    between atoms: S2_5  and  N1_8
REMARK    3  A    between atoms: N1_8  and  C4_10
REMARK       I    between atoms: N2_13  and  C7_14
REMARK    4  A    between atoms: C7_14  and  C8_16
REMARK    5  A    between atoms: C11_19  and  C12_20
REMARK    6  A    between atoms: C12_20  and  N3_21
ROOT
HETATM    1  C4  UNL     1      28.795   1.513   5.087  1.00  0.00     0.096 C
HETATM    2  C5  UNL     1      28.868   2.264   6.371  1.00  0.00     0.045 C
HETATM    3  C6  UNL     1      30.076   1.959   7.219  1.00  0.00     0.127 C
HETATM    4  N2  UNL     1      30.114   0.533   7.420  1.00  0.00    -0.352 N
HETATM    5  C7  UNL     1      30.205   0.029   8.734  1.00  0.00     0.224 C
HETATM    6  O3  UNL     1      30.203  -1.250   8.847  1.00  0.00    -0.273 OA
HETATM    7  C15 UNL     1      30.067  -0.309   6.277  1.00  0.00     0.127 C
HETATM    8  C16 UNL     1      29.185   0.078   5.165  1.00  0.00     0.045 C
ENDROOT
BRANCH   1   9
HETATM    9  N1  UNL     1      27.419   1.588   4.625  1.00  0.00    -0.310 N
ATOM     10  H1  UNL     1      26.638   1.127   5.090  1.00  0.00     0.172 HD
BRANCH   9  11
HETATM   11  S2  UNL     1      27.259   2.542   3.205  1.00  0.00     0.266 S
HETATM   12  O1  UNL     1      26.867   1.621   2.085  1.00  0.00    -0.200 OA
HETATM   13  O2  UNL     1      28.571   3.175   2.830  1.00  0.00    -0.200 OA
BRANCH  11  14
HETATM   14  C3  UNL     1      26.041   3.811   3.423  1.00  0.00     0.128 A
HETATM   15  S1  UNL     1      26.255   5.497   3.477  1.00  0.00    -0.079 SA
HETATM   16  C2  UNL     1      24.638   5.978   3.707  1.00  0.00     0.002 A
HETATM   17  C1  UNL     1      24.059   7.368   3.848  1.00  0.00     0.058 C
HETATM   18  C19 UNL     1      23.964   4.783   3.735  1.00  0.00     0.054 A
HETATM   19  C17 UNL     1      24.687   3.665   3.589  1.00  0.00    -0.009 A
HETATM   20 CL1  UNL     1      22.187   4.786   3.962  1.00  0.00    -0.083 Cl
HETATM   21  C18 UNL     1      24.087   2.266   3.596  1.00  0.00     0.052 C
ENDBRANCH  11  14
ENDBRANCH   9  11
ENDBRANCH   1   9
BRANCH   5  22
HETATM   22  C8  UNL     1      30.307   0.877   9.968  1.00  0.00     0.078 C
HETATM   23  C9  UNL     1      28.943   1.382  10.378  1.00  0.00     0.014 C
HETATM   24  C10 UNL     1      28.183   0.480  11.280  1.00  0.00     0.007 C
HETATM   25  C11 UNL     1      29.007   0.378  12.572  1.00  0.00     0.011 C
HETATM   26  C13 UNL     1      30.233  -0.402  12.161  1.00  0.00     0.007 C
HETATM   27  C14 UNL     1      31.042   0.208  11.083  1.00  0.00     0.014 C
BRANCH  25  28
HETATM   28  C12 UNL     1      28.228  -0.455  13.567  1.00  0.00     0.234 C
BRANCH  28  29
HETATM   29  N3  UNL     1      28.958  -0.457  14.827  1.00  0.00    -0.079 N
ATOM     30  H33 UNL     1      29.840  -0.966  14.770  1.00  0.00     0.274 HD
ATOM     31  H32 UNL     1      29.343   0.458  15.061  1.00  0.00     0.274 HD
ATOM     32  H31 UNL     1      28.339  -0.820  15.552  1.00  0.00     0.274 HD
ENDBRANCH  28  29
ENDBRANCH  25  28
ENDBRANCH   5  22
TORSDOF 6
ENDMDL