MODEL 2
REMARK VINA RESULT: 0.474139337      1.209      1.639
REMARK  9 active torsions:
REMARK  status: ('A' for Active; 'I' for Inactive)
REMARK    1  A    between atoms: C2_2  and  C3_3
REMARK    2  A    between atoms: C3_3  and  C4_4
REMARK    3  A    between atoms: C4_4  and  N1_5
REMARK    4  A    between atoms: N2_8  and  C7_9
REMARK    5  A    between atoms: C9_13  and  C10_14
REMARK    6  A    between atoms: C11_15  and  C12_16
REMARK    7  A    between atoms: C12_16  and  O1_17
REMARK    8  A    between atoms: N4_24  and  C18_26
REMARK    9  A    between atoms: C18_26  and  C20_30
ROOT
HETATM    1  C7  UNL     1      29.617   0.888   8.746  1.00  0.00     0.681 A
HETATM    2  N3  UNL     1      29.183   2.162   8.780  1.00  0.00    -0.200 N
ATOM      3  H3  UNL     1      29.133   2.645   9.677  1.00  0.00     0.183 HD
HETATM    4  C8  UNL     1      28.818   2.808   7.672  1.00  0.00     0.130 A
HETATM    5  C9  UNL     1      28.879   2.168   6.427  1.00  0.00     0.078 A
HETATM    6  C17 UNL     1      29.322   0.870   6.403  1.00  0.00     0.142 A
HETATM    7  N4  UNL     1      29.412   0.224   5.355  1.00  0.00    -0.330 N
ATOM      8  H4  UNL     1      29.761  -0.710   5.574  1.00  0.00     0.168 HD
HETATM    9  N6  UNL     1      29.688   0.253   7.597  1.00  0.00    -0.175 N
ATOM     10  H6  UNL     1      30.017  -0.711   7.580  1.00  0.00     0.186 HD
ENDROOT
BRANCH   1  11
HETATM   11  N2  UNL     1      29.994   0.233   9.970  1.00  0.00    -0.214 N
HETATM   12  C6  UNL     1      31.352   0.300  10.421  1.00  0.00     0.171 C
HETATM   13  C5  UNL     1      31.364   0.216  11.926  1.00  0.00     0.292 C
HETATM   14  N1  UNL     1      30.830  -1.060  12.391  1.00  0.00     0.091 N
HETATM   15  C24 UNL     1      29.887  -1.599  11.478  1.00  0.00     0.292 C
HETATM   16  C23 UNL     1      29.061  -0.517  10.786  1.00  0.00     0.171 C
BRANCH  14  17
HETATM   17  C4  UNL     1      30.349  -0.844  13.717  1.00  0.00     0.272 C
BRANCH  17  18
HETATM   18  C3  UNL     1      29.019  -0.162  13.758  1.00  0.00     0.030 C
BRANCH  18  19
HETATM   19  C2  UNL     1      28.053  -0.941  14.627  1.00  0.00    -0.003 C
HETATM   20  C1  UNL     1      28.609  -1.040  16.034  1.00  0.00     0.005 C
ENDBRANCH  18  19
ENDBRANCH  17  18
ENDBRANCH  14  17
ENDBRANCH   1  11
BRANCH   5  21
HETATM   21  C10 UNL     1      28.476   2.912   5.276  1.00  0.00    -0.059 C
HETATM   22  C11 UNL     1      28.113   3.558   4.325  1.00  0.00    -0.063 C
BRANCH  22  23
HETATM   23  C12 UNL     1      27.658   4.356   3.186  1.00  0.00     0.121 C
HETATM   24  C13 UNL     1      26.168   4.130   3.036  1.00  0.00     0.051 C
HETATM   25  C14 UNL     1      25.513   5.468   2.931  1.00  0.00     0.004 C
HETATM   26  C15 UNL     1      26.587   6.519   3.055  1.00  0.00     0.004 C
HETATM   27  C16 UNL     1      27.828   5.809   3.548  1.00  0.00     0.051 C
BRANCH  23  28
HETATM   28  O1  UNL     1      28.284   4.019   2.002  1.00  0.00    -0.378 OA
ATOM     29  H1  UNL     1      29.221   3.892   2.099  1.00  0.00     0.211 HD
ENDBRANCH  23  28
ENDBRANCH  22  23
ENDBRANCH   5  21
BRANCH   7  30
HETATM   30  C18 UNL     1      29.215   0.309   4.032  1.00  0.00     0.082 C
HETATM   31  N5  UNL     1      30.193   0.643   3.209  1.00  0.00    -0.384 N
HETATM   32  C19 UNL     1      30.030   0.745   1.792  1.00  0.00     0.147 C
ATOM     33  H5  UNL     1      31.113   0.837   3.605  1.00  0.00     0.160 HD
BRANCH  30  34
HETATM   34  C20 UNL     1      27.909   0.003   3.339  1.00  0.00     0.053 A
HETATM   35  C21 UNL     1      27.074  -1.115   3.803  1.00  0.00     0.013 A
HETATM   36  C22 UNL     1      26.640   0.313   4.047  1.00  0.00     0.013 A
ENDBRANCH  30  34
ENDBRANCH   7  30
TORSDOF 9
ENDMDL