MODEL 2
REMARK VINA RESULT: -5.180829707      0.119      1.344
REMARK  5 active torsions:
REMARK  status: ('A' for Active; 'I' for Inactive)
REMARK    1  A    between atoms: C1_2  and  C2_3
REMARK       I    between atoms: C1_2  and  N4_22
REMARK    2  A    between atoms: C2_3  and  C3_4
REMARK       I    between atoms: N3_10  and  C5_12
REMARK    3  A    between atoms: C5_12  and  C6_14
REMARK    4  A    between atoms: N4_22  and  C11_24
REMARK    5  A    between atoms: C11_24  and  C12_25
ROOT
HETATM    1  C3  UNL     1      28.988   0.166   3.841  1.00  0.00     0.078 A
HETATM    2  N1  UNL     1      27.999   0.492   4.659  1.00  0.00    -0.295 N
ATOM      3  H1  UNL     1      28.091   0.321   5.661  1.00  0.00     0.187 HD
HETATM    4  N2  UNL     1      26.938   1.016   4.204  1.00  0.00    -0.279 N
ATOM      5  H2  UNL     1      26.175   1.269   4.832  1.00  0.00     0.189 HD
HETATM    6  C4  UNL     1      26.834   1.230   2.891  1.00  0.00     0.167 A
HETATM    7  N3  UNL     1      25.837   1.752   2.220  1.00  0.00    -0.304 N
ATOM      8  H3  UNL     1      25.883   1.862   1.207  1.00  0.00     0.171 HD
HETATM    9  C5  UNL     1      24.708   2.153   2.940  1.00  0.00     0.252 C
HETATM   10  O2  UNL     1      23.745   1.363   3.114  1.00  0.00    -0.270 OA
HETATM   11  S1  UNL     1      28.345   0.641   2.330  1.00  0.00    -0.037 SA
ENDROOT
BRANCH   1  12
HETATM   12  C2  UNL     1      30.309  -0.457   4.184  1.00  0.00     0.169 C
BRANCH  12  13
HETATM   13  C1  UNL     1      30.752  -0.025   5.538  1.00  0.00     0.223 C
HETATM   14  O1  UNL     1      31.810  -0.508   5.976  1.00  0.00    -0.273 OA
HETATM   15  N4  UNL     1      29.984   0.888   6.257  1.00  0.00    -0.360 N
ATOM     16  H4  UNL     1      29.134   1.184   5.777  1.00  0.00     0.162 HD
BRANCH  15  17
HETATM   17  C11 UNL     1      30.162   1.483   7.526  1.00  0.00     0.132 C
BRANCH  17  18
HETATM   18  C12 UNL     1      29.826   0.756   8.770  1.00  0.00    -0.023 C
HETATM   19  C13 UNL     1      28.829   1.350   9.681  1.00  0.00     0.015 C
HETATM   20  C14 UNL     1      28.761   0.513  10.969  1.00  0.00    -0.013 C
HETATM   21  C15 UNL     1      30.062   0.479  11.685  1.00  0.00     0.009 C
HETATM   22  C19 UNL     1      28.289  -0.866  10.540  1.00  0.00     0.009 C
HETATM   23  C16 UNL     1      31.066  -0.174  10.755  1.00  0.00    -0.013 C
HETATM   24  C17 UNL     1      30.650  -1.554  10.320  1.00  0.00     0.009 C
HETATM   25  C21 UNL     1      31.176   0.684   9.535  1.00  0.00     0.015 C
HETATM   26  C18 UNL     1      29.305  -1.480   9.622  1.00  0.00    -0.013 C
HETATM   27  C20 UNL     1      29.427  -0.661   8.380  1.00  0.00     0.015 C
ENDBRANCH  17  18
ENDBRANCH  15  17
ENDBRANCH  12  13
ENDBRANCH   1  12
BRANCH   9  28
HETATM   28  C6  UNL     1      24.620   3.516   3.516  1.00  0.00     0.213 C
HETATM   29  C7  UNL     1      25.783   4.397   3.105  1.00  0.00     0.043 C
HETATM   30  C8  UNL     1      25.660   5.675   3.928  1.00  0.00     0.025 C
HETATM   31  C9  UNL     1      24.343   6.306   3.600  1.00  0.00     0.106 C
HETATM   32 CL1  UNL     1      24.101   7.840   4.438  1.00  0.00    -0.123 Cl
HETATM   33  C10 UNL     1      23.245   5.317   3.931  1.00  0.00     0.189 C
HETATM   34  O3  UNL     1      23.406   4.113   3.287  1.00  0.00    -0.375 OA
ENDBRANCH   9  28
TORSDOF 5
ENDMDL