MODEL 4
REMARK VINA RESULT: -7.074315700      2.077      2.465
REMARK  5 active torsions:
REMARK  status: ('A' for Active; 'I' for Inactive)
REMARK       I    between atoms: C1_2  and  N1_3
REMARK       I    between atoms: C1_2  and  N3_23
REMARK    1  A    between atoms: N1_3  and  C2_5
REMARK    2  A    between atoms: C2_5  and  C3_6
REMARK    3  A    between atoms: C6_9  and  N2_10
REMARK    4  A    between atoms: N2_10  and  S1_12
REMARK    5  A    between atoms: S1_12  and  C7_15
ROOT
HETATM    1  C3  UNL     1      29.635   1.475   5.469  1.00  0.00     0.139 C
HETATM    2  C4  UNL     1      29.453   0.733   4.174  1.00  0.00     0.036 C
HETATM    3  C5  UNL     1      29.062   1.781   3.130  1.00  0.00     0.030 C
HETATM    4  C6  UNL     1      28.007   2.663   3.682  1.00  0.00     0.117 C
HETATM    5  C11 UNL     1      27.435   2.072   4.993  1.00  0.00     0.194 C
HETATM    6  O4  UNL     1      28.397   1.854   5.940  1.00  0.00    -0.382 OA
ENDROOT
BRANCH   4   7
HETATM    7  N2  UNL     1      28.554   3.948   4.039  1.00  0.00    -0.308 N
ATOM      8  H2  UNL     1      29.340   4.072   4.678  1.00  0.00     0.172 HD
BRANCH   7   9
HETATM    9  S1  UNL     1      27.755   5.215   3.288  1.00  0.00     0.265 S
HETATM   10  O2  UNL     1      28.090   5.274   1.814  1.00  0.00    -0.200 OA
HETATM   11  O3  UNL     1      28.276   6.513   3.912  1.00  0.00    -0.200 OA
BRANCH   9  12
HETATM   12  C7  UNL     1      26.032   5.245   3.533  1.00  0.00     0.121 A
HETATM   13  C8  UNL     1      25.090   4.276   3.687  1.00  0.00     0.052 A
HETATM   14  C9  UNL     1      23.804   4.651   3.840  1.00  0.00     0.019 A
HETATM   15 BR1  UNL     1      22.332   3.393   4.073  1.00  0.00    -0.051 Br
HETATM   16  C10 UNL     1      23.535   5.990   3.831  1.00  0.00     0.070 A
HETATM   17  S2  UNL     1      25.068   6.689   3.610  1.00  0.00    -0.087 SA
ENDBRANCH   9  12
ENDBRANCH   7   9
ENDBRANCH   4   7
BRANCH   1  18
HETATM   18  C2  UNL     1      30.318   0.622   6.521  1.00  0.00     0.156 C
BRANCH  18  19
HETATM   19  N1  UNL     1      29.599   0.659   7.753  1.00  0.00    -0.341 N
HETATM   20  C1  UNL     1      30.152   0.111   8.939  1.00  0.00     0.318 C
HETATM   21  O1  UNL     1      31.302  -0.419   8.901  1.00  0.00    -0.247 OA
HETATM   22  N3  UNL     1      29.445   0.144  10.165  1.00  0.00    -0.334 N
HETATM   23  C12 UNL     1      28.134   0.716  10.343  1.00  0.00     0.127 C
HETATM   24  C15 UNL     1      29.896  -0.375  11.429  1.00  0.00     0.127 C
HETATM   25  C13 UNL     1      28.105   1.177  11.787  1.00  0.00     0.022 C
HETATM   26  C14 UNL     1      29.245   0.488  12.481  1.00  0.00     0.022 C
ATOM     27  H1  UNL     1      28.672   1.086   7.782  1.00  0.00     0.164 HD
ENDBRANCH  18  19
ENDBRANCH   1  18
TORSDOF 5
ENDMDL