MODEL 1
REMARK VINA RESULT: -8.601730999      0.000      0.000
REMARK  8 active torsions:
REMARK  status: ('A' for Active; 'I' for Inactive)
REMARK    1  A    between atoms: N1_1  and  N2_4
REMARK    2  A    between atoms: N3_6  and  C1_8
REMARK    3  A    between atoms: C6_16  and  C7_17
REMARK    4  A    between atoms: C7_17  and  O2_19
REMARK    5  A    between atoms: O2_19  and  C8_20
REMARK    6  A    between atoms: C8_20  and  C9_21
REMARK       I    between atoms: C9_21  and  N4_23
REMARK    7  A    between atoms: N4_23  and  C10_25
REMARK    8  A    between atoms: C10_25  and  C11_26
ROOT
HETATM    1  C1  UNL     1      26.375   4.644   4.143  1.00  0.00     0.090 A
HETATM    2  C2  UNL     1      25.068   5.027   4.019  1.00  0.00     0.085 A
HETATM    3 CL1  UNL     1      24.640   6.744   3.992  1.00  0.00    -0.080 Cl
HETATM    4  C3  UNL     1      24.099   4.053   3.916  1.00  0.00     0.059 A
HETATM    5 CL2  UNL     1      22.415   4.496   3.758  1.00  0.00    -0.082 Cl
HETATM    6  C4  UNL     1      24.425   2.710   3.937  1.00  0.00     0.050 A
HETATM    7  C5  UNL     1      25.765   2.364   4.064  1.00  0.00     0.054 A
HETATM    8 CL3  UNL     1      26.272   0.684   4.098  1.00  0.00    -0.083 Cl
HETATM    9  C6  UNL     1      26.737   3.337   4.166  1.00  0.00     0.091 A
ENDROOT
BRANCH   9  10
HETATM   10  C7  UNL     1      28.151   2.928   4.300  1.00  0.00     0.297 C
HETATM   11  O1  UNL     1      28.792   3.435   5.252  1.00  0.00    -0.259 OA
BRANCH  10  12
HETATM   12  O2  UNL     1      28.775   2.049   3.460  1.00  0.00    -0.308 OA
BRANCH  12  13
HETATM   13  C8  UNL     1      29.993   1.394   3.751  1.00  0.00     0.281 C
BRANCH  13  14
HETATM   14  C9  UNL     1      29.836   0.490   4.937  1.00  0.00     0.241 C
HETATM   15  O3  UNL     1      29.365  -0.653   4.801  1.00  0.00    -0.271 OA
HETATM   16  N4  UNL     1      30.228   0.952   6.210  1.00  0.00    -0.357 N
ATOM     17  H4  UNL     1      30.607   1.895   6.293  1.00  0.00     0.162 HD
BRANCH  16  18
HETATM   18  C10 UNL     1      30.118   0.153   7.392  1.00  0.00     0.154 C
BRANCH  18  19
HETATM   19  C11 UNL     1      30.525   0.910   8.606  1.00  0.00     0.139 C
HETATM   20  C12 UNL     1      30.193   0.099   9.847  1.00  0.00     0.035 C
HETATM   21  C13 UNL     1      29.109   0.922  10.494  1.00  0.00     0.029 C
HETATM   22  C14 UNL     1      28.575   1.723   9.327  1.00  0.00     0.168 C
HETATM   23  O4  UNL     1      29.750   2.065   8.679  1.00  0.00    -0.384 OA
ENDBRANCH  18  19
ENDBRANCH  16  18
ENDBRANCH  13  14
ENDBRANCH  12  13
ENDBRANCH  10  12
ENDBRANCH   9  10
BRANCH   1  24
HETATM   24  N3  UNL     1      27.381   5.651   4.249  1.00  0.00    -0.284 N
HETATM   25  N2  UNL     1      28.048   5.900   3.202  1.00  0.00    -0.249 N
ATOM     26  H2  UNL     1      28.770   6.619   3.262  1.00  0.00     0.207 HD
ATOM     27  H3  UNL     1      27.554   6.145   5.125  1.00  0.00     0.188 HD
BRANCH  25  28
HETATM   28  N1  UNL     1      27.871   5.272   1.985  1.00  0.00    -0.331 N
ATOM     29  H12 UNL     1      27.379   5.802   1.266  1.00  0.00     0.178 HD
ATOM     30  H11 UNL     1      28.195   4.331   1.764  1.00  0.00     0.178 HD
ENDBRANCH  25  28
ENDBRANCH   1  24
TORSDOF 8
ENDMDL