MODEL 2
REMARK VINA RESULT: -7.323182237      0.760      1.067
REMARK  9 active torsions:
REMARK  status: ('A' for Active; 'I' for Inactive)
REMARK    1  A    between atoms: O1_2  and  C2_3
REMARK    2  A    between atoms: C4_6  and  O2_7
REMARK    3  A    between atoms: C5_9  and  C6_10
REMARK    4  A    between atoms: C6_10  and  C7_11
REMARK    5  A    between atoms: C6_10  and  C10_18
REMARK    6  A    between atoms: C7_11  and  S1_12
REMARK    7  A    between atoms: S1_12  and  C8_13
REMARK    8  A    between atoms: C8_13  and  C9_15
REMARK    9  A    between atoms: C10_18  and  O6_20
ROOT
HETATM    1  C2  UNL     1      25.969   3.874   3.704  1.00  0.00     0.116 A
HETATM    2  C3  UNL     1      27.220   4.319   3.961  1.00  0.00     0.103 A
HETATM    3 CL1  UNL     1      27.582   6.022   3.788  1.00  0.00    -0.078 Cl
HETATM    4  C4  UNL     1      28.214   3.402   4.389  1.00  0.00     0.102 A
HETATM    5  C5  UNL     1      28.001   2.067   4.569  1.00  0.00     0.028 A
HETATM    6  C13 UNL     1      26.668   1.677   4.272  1.00  0.00     0.072 A
HETATM    7 CL2  UNL     1      26.225  -0.015   4.227  1.00  0.00    -0.081 Cl
HETATM    8  C14 UNL     1      25.699   2.555   3.862  1.00  0.00     0.091 A
HETATM    9 CL3  UNL     1      24.060   1.958   3.520  1.00  0.00    -0.079 Cl
ENDROOT
BRANCH   5  10
HETATM   10  C6  UNL     1      29.005   1.038   4.814  1.00  0.00    -0.027 C
BRANCH  10  11
HETATM   11  C7  UNL     1      29.857   1.553   5.967  1.00  0.00     0.120 C
BRANCH  11  12
HETATM   12  S1  UNL     1      30.126   0.420   7.280  1.00  0.00    -0.076 SA
BRANCH  12  13
HETATM   13  C8  UNL     1      29.613   0.843   8.896  1.00  0.00     0.285 C
HETATM   14  O3  UNL     1      29.073   1.892   9.314  1.00  0.00    -0.273 OA
BRANCH  13  15
HETATM   15  C9  UNL     1      29.872  -0.239   9.927  1.00  0.00     0.258 C
HETATM   16  O4  UNL     1      29.446  -1.408   9.709  1.00  0.00    -0.641 OA
HETATM   17  O5  UNL     1      30.551   0.075  11.049  1.00  0.00    -0.641 OA
ENDBRANCH  13  15
ENDBRANCH  12  13
ENDBRANCH  11  12
ENDBRANCH  10  11
BRANCH  10  18
HETATM   18  C10 UNL     1      29.742   0.320   3.806  1.00  0.00     0.147 C
HETATM   19  C11 UNL     1      29.529   0.384   2.368  1.00  0.00     0.044 C
BRANCH  18  20
HETATM   20  O6  UNL     1      29.549  -1.077   4.144  1.00  0.00    -0.387 OA
HETATM   21  C12 UNL     1      30.303  -1.861   3.302  1.00  0.00     0.202 C
ENDBRANCH  18  20
ENDBRANCH  10  18
ENDBRANCH   5  10
BRANCH   4  22
HETATM   22  O2  UNL     1      29.431   4.012   4.604  1.00  0.00    -0.358 OA
ATOM     23  H2  UNL     1      30.031   3.457   5.089  1.00  0.00     0.217 HD
ENDBRANCH   4  22
BRANCH   1  24
HETATM   24  O1  UNL     1      24.926   4.710   3.280  1.00  0.00    -0.352 OA
HETATM   25  C1  UNL     1      24.139   5.308   4.313  1.00  0.00     0.210 C
ENDBRANCH   1  24
TORSDOF 9
ENDMDL