MODEL 2
REMARK VINA RESULT: -7.589471693      0.891      1.468
REMARK  8 active torsions:
REMARK  status: ('A' for Active; 'I' for Inactive)
REMARK    1  A    between atoms: N1_1  and  C1_5
REMARK    2  A    between atoms: N2_8  and  C4_9
REMARK    3  A    between atoms: C4_9  and  C5_10
REMARK    4  A    between atoms: C5_10  and  C6_11
REMARK    5  A    between atoms: C8_14  and  C9_15
REMARK    6  A    between atoms: C10_18  and  O1_19
REMARK    7  A    between atoms: N5_26  and  C12_27
REMARK    8  A    between atoms: C12_27  and  C13_28
ROOT
HETATM    1  C6  UNL     1      28.810   1.179   5.150  1.00  0.00     0.014 A
HETATM    2  C7  UNL     1      29.800   0.273   4.907  1.00  0.00     0.139 A
HETATM    3  F1  UNL     1      30.813   0.040   5.775  1.00  0.00    -0.205 F
HETATM    4  C8  UNL     1      29.822  -0.424   3.701  1.00  0.00     0.080 A
HETATM    5  C10 UNL     1      28.851  -0.193   2.765  1.00  0.00     0.111 A
HETATM    6  C11 UNL     1      27.859   0.723   3.017  1.00  0.00     0.112 A
HETATM    7  N3  UNL     1      26.827   1.168   2.261  1.00  0.00    -0.281 N
ATOM      8  H3  UNL     1      26.596   0.841   1.323  1.00  0.00     0.188 HD
HETATM    9  N4  UNL     1      26.185   2.070   2.916  1.00  0.00    -0.239 N
ATOM     10  H4  UNL     1      25.364   2.563   2.564  1.00  0.00     0.208 HD
HETATM   11  N5  UNL     1      26.739   2.279   4.137  1.00  0.00    -0.275 N
HETATM   12  C19 UNL     1      27.776   1.453   4.206  1.00  0.00     0.092 A
ENDROOT
BRANCH   1  13
HETATM   13  C5  UNL     1      28.765   1.968   6.366  1.00  0.00     0.074 C
BRANCH  13  14
HETATM   14  C4  UNL     1      29.621   1.636   7.549  1.00  0.00     0.277 C
BRANCH  14  15
HETATM   15  N2  UNL     1      28.994   0.819   8.571  1.00  0.00     0.090 N
HETATM   16  C3  UNL     1      28.826   1.554   9.812  1.00  0.00     0.274 C
HETATM   17  C2  UNL     1      28.697   0.440  10.825  1.00  0.00     0.064 C
HETATM   18  C1  UNL     1      29.869  -0.423  10.431  1.00  0.00     0.213 C
HETATM   19  C20 UNL     1      29.942  -0.240   8.960  1.00  0.00     0.305 C
BRANCH  18  20
HETATM   20  N1  UNL     1      31.064   0.148  11.074  1.00  0.00    -0.073 N
ATOM     21  H13 UNL     1      31.321   1.062  10.702  1.00  0.00     0.274 HD
ATOM     22  H12 UNL     1      30.899   0.441  12.037  1.00  0.00     0.274 HD
ATOM     23  H11 UNL     1      31.811  -0.542  10.989  1.00  0.00     0.274 HD
ENDBRANCH  18  20
ENDBRANCH  14  15
ENDBRANCH  13  14
ENDBRANCH   1  13
BRANCH   4  24
HETATM   24  C9  UNL     1      30.919  -1.398   3.497  1.00  0.00     0.392 C
HETATM   25  F2  UNL     1      31.516  -1.097   2.265  1.00  0.00    -0.209 F
HETATM   26  F3  UNL     1      30.476  -2.700   3.503  1.00  0.00    -0.209 F
ENDBRANCH   4  24
BRANCH  11  27
HETATM   27  C12 UNL     1      26.152   3.173   5.088  1.00  0.00     0.155 C
BRANCH  27  28
HETATM   28  C13 UNL     1      26.278   4.589   4.609  1.00  0.00     0.005 C
HETATM   29  C14 UNL     1      27.324   4.938   3.640  1.00  0.00     0.006 C
HETATM   30  C15 UNL     1      27.325   6.466   3.506  1.00  0.00     0.000 C
HETATM   31  C16 UNL     1      25.999   6.816   2.842  1.00  0.00     0.000 C
HETATM   32  C17 UNL     1      24.912   6.525   3.834  1.00  0.00     0.000 C
HETATM   33  C18 UNL     1      24.892   5.047   4.104  1.00  0.00     0.006 C
ENDBRANCH  27  28
ENDBRANCH  11  27
BRANCH   5  34
HETATM   34  O1  UNL     1      28.901  -0.896   1.587  1.00  0.00    -0.357 OA
ATOM     35  H1  UNL     1      28.331  -1.650   1.488  1.00  0.00     0.217 HD
ENDBRANCH   5  34
TORSDOF 8
ENDMDL