MODEL 5
REMARK VINA RESULT: -5.536114921      1.160      1.343
REMARK  7 active torsions:
REMARK  status: ('A' for Active; 'I' for Inactive)
REMARK    1  A    between atoms: C2_2  and  N1_4
REMARK    2  A    between atoms: N1_4  and  C4_7
REMARK    3  A    between atoms: C4_7  and  C5_8
REMARK    4  A    between atoms: C5_8  and  N2_9
REMARK    5  A    between atoms: C8_15  and  C9_16
REMARK    6  A    between atoms: C8_15  and  C12_25
REMARK    7  A    between atoms: C9_16  and  N3_17
ROOT
HETATM    1  C5  UNL     1      27.802   0.990   3.662  1.00  0.00     0.249 C
HETATM    2  C6  UNL     1      29.160   1.321   3.048  1.00  0.00     0.074 C
HETATM    3  C7  UNL     1      29.222   2.813   3.434  1.00  0.00     0.054 C
HETATM    4  C8  UNL     1      28.414   2.895   4.665  1.00  0.00     0.124 C
HETATM    5  O1  UNL     1      27.720   1.694   4.824  1.00  0.00    -0.331 OA
ENDROOT
BRANCH   4   6
HETATM    6  C9  UNL     1      29.100   3.305   5.929  1.00  0.00     0.116 C
BRANCH   6   7
HETATM    7  N3  UNL     1      29.284   2.352   6.949  1.00  0.00    -0.293 N
HETATM    8  C10 UNL     1      28.797   2.318   8.209  1.00  0.00     0.206 A
HETATM    9  N4  UNL     1      29.192   1.214   8.844  1.00  0.00    -0.293 N
HETATM   10  N5  UNL     1      29.923   0.550   7.995  1.00  0.00    -0.274 N
ATOM     11  H4  UNL     1      28.966   0.944   9.802  1.00  0.00     0.187 HD
HETATM   12  C11 UNL     1      29.994   1.226   6.834  1.00  0.00     0.201 A
ATOM     13  H5  UNL     1      30.374  -0.345   8.182  1.00  0.00     0.189 HD
HETATM   14 CL1  UNL     1      30.959   0.605   5.488  1.00  0.00    -0.043 Cl
ENDBRANCH   6   7
ENDBRANCH   4   6
BRANCH   4  15
HETATM   15  C12 UNL     1      27.370   3.927   4.456  1.00  0.00    -0.017 A
HETATM   16  C13 UNL     1      27.730   5.148   3.965  1.00  0.00     0.012 A
HETATM   17  C14 UNL     1      26.764   6.144   3.751  1.00  0.00     0.026 A
HETATM   18  C15 UNL     1      25.443   5.871   4.044  1.00  0.00     0.055 A
HETATM   19 CL2  UNL     1      24.191   7.095   3.793  1.00  0.00    -0.083 Cl
HETATM   20  C16 UNL     1      25.102   4.618   4.543  1.00  0.00     0.056 A
HETATM   21 CL3  UNL     1      23.441   4.237   4.928  1.00  0.00    -0.083 Cl
HETATM   22  C17 UNL     1      26.071   3.630   4.754  1.00  0.00     0.036 A
ENDBRANCH   4  15
BRANCH   1  23
HETATM   23  C4  UNL     1      27.736  -0.513   3.901  1.00  0.00     0.300 C
BRANCH  23  24
HETATM   24  N1  UNL     1      29.046  -1.026   4.244  1.00  0.00    -0.067 N
ATOM     25  H12 UNL     1      29.055  -1.490   5.152  1.00  0.00     0.277 HD
ATOM     26  H11 UNL     1      29.710  -0.282   4.456  1.00  0.00     0.277 HD
BRANCH  24  27
HETATM   27  C2  UNL     1      29.506  -1.879   3.194  1.00  0.00     0.178 C
HETATM   28  C1  UNL     1      30.923  -2.371   3.365  1.00  0.00     0.039 C
HETATM   29  C3  UNL     1      29.429  -1.180   1.839  1.00  0.00     0.039 C
ENDBRANCH  24  27
ENDBRANCH  23  24
ENDBRANCH   1  23
BRANCH   1  30
HETATM   30  N2  UNL     1      26.817   1.319   2.675  1.00  0.00    -0.045 N
ATOM     31  H23 UNL     1      25.878   1.403   3.064  1.00  0.00     0.278 HD
ATOM     32  H22 UNL     1      26.905   2.275   2.330  1.00  0.00     0.278 HD
ATOM     33  H21 UNL     1      26.876   0.623   1.932  1.00  0.00     0.278 HD
ENDBRANCH   1  30
TORSDOF 7
ENDMDL