MODEL 5
REMARK VINA RESULT: -7.566798966      1.739      2.049
REMARK  7 active torsions:
REMARK  status: ('A' for Active; 'I' for Inactive)
REMARK    1  A    between atoms: N1_2  and  C3_4
REMARK    2  A    between atoms: C3_4  and  C4_5
REMARK    3  A    between atoms: C4_5  and  N2_6
REMARK    4  A    between atoms: N2_6  and  C5_8
REMARK    5  A    between atoms: C6_13  and  S1_14
REMARK    6  A    between atoms: S1_14  and  C7_15
REMARK    7  A    between atoms: C7_15  and  C8_16
ROOT
HETATM    1  C5  UNL     1      29.138   1.413   5.144  1.00  0.00     0.134 A
HETATM    2  N3  UNL     1      29.875   2.553   5.223  1.00  0.00    -0.284 N
ATOM      3  H3  UNL     1      30.724   2.588   5.787  1.00  0.00     0.188 HD
HETATM    4  N4  UNL     1      29.474   3.593   4.566  1.00  0.00    -0.292 N
ATOM      5  H4  UNL     1      30.051   4.430   4.646  1.00  0.00     0.187 HD
HETATM    6  C6  UNL     1      28.378   3.689   3.787  1.00  0.00     0.096 A
HETATM    7  C14 UNL     1      27.548   2.531   3.644  1.00  0.00     0.022 A
HETATM    8  C15 UNL     1      26.369   2.419   2.997  1.00  0.00     0.050 A
HETATM    9  C16 UNL     1      25.701   1.246   3.079  1.00  0.00     0.088 A
HETATM   10  N5  UNL     1      24.427   0.902   2.562  1.00  0.00    -0.094 NA
HETATM   11  S2  UNL     1      26.730   0.278   4.065  1.00  0.00    -0.071 SA
HETATM   12  C17 UNL     1      27.968   1.413   4.340  1.00  0.00     0.064 A
ENDROOT
BRANCH   6  13
HETATM   13  S1  UNL     1      28.033   5.192   3.038  1.00  0.00    -0.105 SA
BRANCH  13  14
HETATM   14  C7  UNL     1      27.148   6.509   3.788  1.00  0.00     0.122 C
BRANCH  14  15
HETATM   15  C8  UNL     1      25.725   6.025   3.925  1.00  0.00    -0.007 A
HETATM   16  C9  UNL     1      25.481   4.926   4.701  1.00  0.00     0.056 A
HETATM   17  C10 UNL     1      24.184   4.404   4.794  1.00  0.00     0.155 A
HETATM   18  F1  UNL     1      23.902   3.286   5.506  1.00  0.00    -0.203 F
HETATM   19  C11 UNL     1      23.189   5.029   4.088  1.00  0.00     0.157 A
HETATM   20  F2  UNL     1      21.898   4.555   4.200  1.00  0.00    -0.203 F
HETATM   21  C12 UNL     1      23.401   6.138   3.290  1.00  0.00     0.088 A
HETATM   22  C13 UNL     1      24.715   6.623   3.228  1.00  0.00     0.126 A
HETATM   23  F3  UNL     1      24.926   7.715   2.466  1.00  0.00    -0.205 F
ENDBRANCH  14  15
ENDBRANCH  13  14
ENDBRANCH   6  13
BRANCH   1  24
HETATM   24  N2  UNL     1      29.320   0.423   5.846  1.00  0.00    -0.372 N
ATOM     25  H2  UNL     1      29.006  -0.462   5.449  1.00  0.00     0.161 HD
BRANCH  24  26
HETATM   26  C4  UNL     1      29.907   0.342   7.134  1.00  0.00     0.151 C
BRANCH  26  27
HETATM   27  C3  UNL     1      29.647   1.402   8.135  1.00  0.00     0.290 C
BRANCH  27  28
HETATM   28  N1  UNL     1      29.666   0.764   9.480  1.00  0.00     0.081 N
HETATM   29  C1  UNL     1      29.863  -0.654   9.325  1.00  0.00     0.309 C
HETATM   30  C2  UNL     1      28.584   1.160  10.277  1.00  0.00     0.309 C
ENDBRANCH  27  28
ENDBRANCH  26  27
ENDBRANCH  24  26
ENDBRANCH   1  24
TORSDOF 7
ENDMDL