MODEL 2
REMARK VINA RESULT: -4.650815137      3.626      7.082
REMARK  8 active torsions:
REMARK  status: ('A' for Active; 'I' for Inactive)
REMARK    1  A    between atoms: C2_2  and  C3_3
REMARK    2  A    between atoms: C3_3  and  C4_4
REMARK    3  A    between atoms: C4_4  and  N1_5
REMARK    4  A    between atoms: C5_7  and  C6_8
REMARK    5  A    between atoms: C7_9  and  O1_10
REMARK    6  A    between atoms: N3_14  and  C9_15
REMARK    7  A    between atoms: N4_25  and  C16_27
REMARK    8  A    between atoms: C16_27  and  C17_31
ROOT
HETATM    1  C6  UNL     1      28.981   0.802   5.320  1.00  0.00     0.077 A
HETATM    2  C7  UNL     1      28.465   0.285   4.120  1.00  0.00     0.172 A
HETATM    3  N2  UNL     1      27.646   1.208   3.609  1.00  0.00    -0.266 N
HETATM    4  C8  UNL     1      26.926   1.006   2.354  1.00  0.00     0.181 C
HETATM    5  N3  UNL     1      27.592   2.273   4.376  1.00  0.00    -0.232 N
HETATM    6  C15 UNL     1      28.421   2.061   5.469  1.00  0.00     0.145 A
HETATM    7  N4  UNL     1      28.550   2.941   6.367  1.00  0.00    -0.324 N
ATOM      8  H4  UNL     1      27.999   3.783   6.197  1.00  0.00     0.169 HD
ENDROOT
BRANCH   5   9
HETATM    9  C9  UNL     1      26.815   3.438   4.122  1.00  0.00     0.099 A
HETATM   10  C10 UNL     1      25.451   3.431   4.336  1.00  0.00     0.060 A
HETATM   11  C11 UNL     1      24.664   4.537   4.102  1.00  0.00     0.058 A
HETATM   12 CL1  UNL     1      22.932   4.449   4.401  1.00  0.00    -0.082 Cl
HETATM   13  C12 UNL     1      25.265   5.694   3.637  1.00  0.00     0.058 A
HETATM   14 CL2  UNL     1      24.285   7.107   3.335  1.00  0.00    -0.082 Cl
HETATM   15  C13 UNL     1      26.627   5.701   3.422  1.00  0.00     0.070 A
HETATM   16  C14 UNL     1      27.416   4.610   3.651  1.00  0.00     0.146 A
HETATM   17  F1  UNL     1      28.757   4.592   3.448  1.00  0.00    -0.204 F
ENDBRANCH   5   9
BRANCH   2  18
HETATM   18  O1  UNL     1      28.779  -0.963   3.605  1.00  0.00    -0.344 OA
ATOM     19  H1  UNL     1      28.137  -1.613   3.345  1.00  0.00     0.219 HD
ENDBRANCH   2  18
BRANCH   1  20
HETATM   20  C5  UNL     1      29.914   0.111   6.186  1.00  0.00     0.102 C
HETATM   21  N1  UNL     1      29.647   0.027   7.450  1.00  0.00    -0.398 N
ATOM     22  H1  UNL     1      28.787   0.449   7.800  1.00  0.00     0.158 HD
BRANCH  21  23
HETATM   23  C4  UNL     1      30.525  -0.645   8.381  1.00  0.00     0.119 C
BRANCH  23  24
HETATM   24  C3  UNL     1      29.775  -0.878   9.686  1.00  0.00     0.019 C
BRANCH  24  25
HETATM   25  C2  UNL     1      30.357  -0.047  10.806  1.00  0.00    -0.003 C
HETATM   26  C1  UNL     1      29.264   0.232  11.809  1.00  0.00     0.005 C
ENDBRANCH  24  25
ENDBRANCH  23  24
ENDBRANCH  21  23
ENDBRANCH   1  20
BRANCH   7  27
HETATM   27  C16 UNL     1      29.285   2.990   7.524  1.00  0.00     0.138 C
HETATM   28  N5  UNL     1      30.559   3.268   7.491  1.00  0.00    -0.383 N
ATOM     29  H52 UNL     1      30.974   3.430   6.573  1.00  0.00     0.157 HD
ATOM     30  H51 UNL     1      31.106   3.304   8.352  1.00  0.00     0.157 HD
BRANCH  27  31
HETATM   31  C17 UNL     1      28.689   2.757   8.842  1.00  0.00     0.306 C
HETATM   32  O2  UNL     1      27.921   1.781   9.032  1.00  0.00    -0.298 OA
ENDBRANCH  27  31
ENDBRANCH   7  27
TORSDOF 8
ENDMDL