MODEL 2
REMARK VINA RESULT: -7.661186183      1.296      4.450
REMARK  7 active torsions:
REMARK  status: ('A' for Active; 'I' for Inactive)
REMARK    1  A    between atoms: C2_2  and  C3_3
REMARK    2  A    between atoms: C2_2  and  N1_5
REMARK       I    between atoms: N1_5  and  C4_7
REMARK    3  A    between atoms: C4_7  and  C5_9
REMARK    4  A    between atoms: C6_12  and  C7_13
REMARK    5  A    between atoms: C7_13  and  O3_14
REMARK    6  A    between atoms: C8_17  and  C9_18
REMARK    7  A    between atoms: C9_18  and  C10_20
ROOT
HETATM    1  C5  UNL     1      29.466   1.458   5.647  1.00  0.00     0.141 A
HETATM    2  N2  UNL     1      29.649   1.194   6.986  1.00  0.00    -0.332 N
ATOM      3  H2  UNL     1      30.286   0.498   7.373  1.00  0.00     0.168 HD
HETATM    4  C6  UNL     1      28.855   2.000   7.695  1.00  0.00     0.148 A
HETATM    5  O4  UNL     1      28.204   2.728   6.844  1.00  0.00    -0.289 OA
HETATM    6  C8  UNL     1      28.523   2.454   5.579  1.00  0.00     0.160 A
ENDROOT
BRANCH   6   7
HETATM    7  C9  UNL     1      27.917   3.141   4.441  1.00  0.00     0.222 C
HETATM    8  O5  UNL     1      28.579   3.786   3.637  1.00  0.00    -0.284 OA
BRANCH   7   9
HETATM    9  C10 UNL     1      26.431   3.035   4.271  1.00  0.00     0.070 A
HETATM   10  C11 UNL     1      25.829   1.809   4.169  1.00  0.00     0.092 A
HETATM   11 CL1  UNL     1      26.625   0.224   4.224  1.00  0.00    -0.075 Cl
HETATM   12  S1  UNL     1      24.186   2.198   4.007  1.00  0.00    -0.063 SA
HETATM   13  C12 UNL     1      24.291   3.895   4.070  1.00  0.00     0.099 A
HETATM   14 CL2  UNL     1      23.000   5.110   3.967  1.00  0.00    -0.074 Cl
HETATM   15  C13 UNL     1      25.629   4.117   4.218  1.00  0.00     0.079 A
HETATM   16 CL3  UNL     1      26.234   5.805   4.321  1.00  0.00    -0.081 Cl
ENDBRANCH   7   9
ENDBRANCH   6   7
BRANCH   1  17
HETATM   17  C4  UNL     1      30.078   0.771   4.537  1.00  0.00     0.271 C
HETATM   18  N1  UNL     1      29.902  -0.632   4.264  1.00  0.00    -0.345 N
ATOM     19  H1  UNL     1      29.311  -1.187   4.883  1.00  0.00     0.163 HD
HETATM   20  O2  UNL     1      30.811   1.408   3.721  1.00  0.00    -0.266 OA
BRANCH  18  21
HETATM   21  C2  UNL     1      30.541  -1.277   3.134  1.00  0.00     0.142 C
HETATM   22  C1  UNL     1      30.966  -2.681   3.402  1.00  0.00     0.039 C
BRANCH  21  23
HETATM   23  C3  UNL     1      29.594  -1.213   1.957  1.00  0.00     0.255 C
HETATM   24  O1  UNL     1      28.816  -0.289   1.819  1.00  0.00    -0.305 OA
ENDBRANCH  21  23
ENDBRANCH  18  21
ENDBRANCH   1  17
BRANCH   4  25
HETATM   25  C7  UNL     1      28.740   2.057   9.198  1.00  0.00     0.248 C
BRANCH  25  26
HETATM   26  O3  UNL     1      29.491   1.071   9.776  1.00  0.00    -0.393 OA
ATOM     27  H3  UNL     1      30.169   1.445  10.326  1.00  0.00     0.210 HD
ENDBRANCH  25  26
ENDBRANCH   4  25
TORSDOF 7
ENDMDL