MODEL 4
REMARK VINA RESULT: -6.771818412      1.438      2.583
REMARK  8 active torsions:
REMARK  status: ('A' for Active; 'I' for Inactive)
REMARK    1  A    between atoms: C2_2  and  C3_3
REMARK    2  A    between atoms: C2_2  and  N1_11
REMARK    3  A    between atoms: C3_3  and  O1_4
REMARK    4  A    between atoms: O1_4  and  C4_5
REMARK    5  A    between atoms: C4_5  and  C5_7
REMARK       I    between atoms: N1_11  and  C6_13
REMARK       I    between atoms: C6_13  and  N2_15
REMARK    6  A    between atoms: N2_15  and  C7_16
REMARK    7  A    between atoms: C9_21  and  C10_22
REMARK    8  A    between atoms: C10_22  and  N4_23
ROOT
HETATM    1  N1  UNL     1      28.566   2.006   5.476  1.00  0.00    -0.325 N
ATOM      2  H1  UNL     1      27.681   1.572   5.739  1.00  0.00     0.165 HD
HETATM    3  C6  UNL     1      28.544   3.316   4.782  1.00  0.00     0.395 C
HETATM    4  O3  UNL     1      29.670   3.785   4.493  1.00  0.00    -0.230 OA
HETATM    5  N2  UNL     1      27.300   3.863   4.535  1.00  0.00    -0.343 NA
ENDROOT
BRANCH   1   6
HETATM    6  C2  UNL     1      29.781   1.336   5.788  1.00  0.00     0.107 C
HETATM    7  C1  UNL     1      30.183   0.374   4.663  1.00  0.00     0.034 C
BRANCH   6   8
HETATM    8  C3  UNL     1      29.590   0.493   7.020  1.00  0.00     0.203 C
BRANCH   8   9
HETATM    9  O1  UNL     1      30.026   1.213   8.139  1.00  0.00    -0.316 OA
BRANCH   9  10
HETATM   10  C4  UNL     1      29.337   1.206   9.355  1.00  0.00     0.314 C
HETATM   11  O2  UNL     1      28.413   2.037   9.486  1.00  0.00    -0.260 OA
BRANCH  10  12
HETATM   12  C5  UNL     1      29.758   0.221  10.374  1.00  0.00     0.276 C
HETATM   13 CL1  UNL     1      28.863   0.507  11.891  1.00  0.00    -0.073 Cl
HETATM   14 CL2  UNL     1      29.391  -1.421   9.754  1.00  0.00    -0.073 Cl
HETATM   15 CL3  UNL     1      31.510   0.304  10.620  1.00  0.00    -0.073 Cl
ENDBRANCH  10  12
ENDBRANCH   9  10
ENDBRANCH   8   9
ENDBRANCH   6   8
ENDBRANCH   1   6
BRANCH   5  16
HETATM   16  C7  UNL     1      26.107   4.419   4.279  1.00  0.00     0.179 A
HETATM   17  S1  UNL     1      25.915   6.179   3.954  1.00  0.00    -0.050 SA
HETATM   18  C8  UNL     1      24.255   6.226   3.713  1.00  0.00     0.141 A
HETATM   19  N3  UNL     1      23.911   4.977   3.877  1.00  0.00    -0.359 N
HETATM   20  C9  UNL     1      24.785   4.062   4.155  1.00  0.00     0.075 A
ATOM     21  H3  UNL     1      22.930   4.715   3.784  1.00  0.00     0.165 HD
BRANCH  20  22
HETATM   22  C10 UNL     1      24.319   2.615   4.365  1.00  0.00     0.177 C
BRANCH  22  23
HETATM   23  N4  UNL     1      24.907   1.696   3.495  1.00  0.00    -0.415 N
HETATM   24  C11 UNL     1      25.814   0.738   3.983  1.00  0.00     0.143 C
HETATM   25  C12 UNL     1      24.279   1.362   2.278  1.00  0.00     0.143 C
ENDBRANCH  22  23
ENDBRANCH  20  22
ENDBRANCH   5  16
TORSDOF 8
ENDMDL