MODEL 1
REMARK VINA RESULT: -7.837844059      0.000      0.000
REMARK  7 active torsions:
REMARK  status: ('A' for Active; 'I' for Inactive)
REMARK    1  A    between atoms: O1_2  and  C2_3
REMARK    2  A    between atoms: C3_4  and  O2_5
REMARK    3  A    between atoms: O2_5  and  C4_6
REMARK    4  A    between atoms: C7_11  and  N2_12
REMARK    5  A    between atoms: C9_18  and  N4_19
REMARK    6  A    between atoms: C17_28  and  O3_29
REMARK    7  A    between atoms: O3_29  and  C18_30
ROOT
HETATM    1  C2  UNL     1      27.971   1.811   3.699  1.00  0.00     0.136 A
HETATM    2  C3  UNL     1      27.980   2.839   4.652  1.00  0.00     0.116 A
HETATM    3  C8  UNL     1      28.505   2.536   5.878  1.00  0.00     0.069 A
HETATM    4  C9  UNL     1      29.011   1.298   6.207  1.00  0.00     0.036 A
HETATM    5  C16 UNL     1      28.985   0.325   5.250  1.00  0.00     0.069 A
HETATM    6  C17 UNL     1      28.459   0.557   3.952  1.00  0.00     0.113 A
ENDROOT
BRANCH   2   7
HETATM    7  O2  UNL     1      27.469   4.030   4.267  1.00  0.00    -0.290 OA
BRANCH   7   8
HETATM    8  C4  UNL     1      26.205   4.495   4.296  1.00  0.00     0.164 A
HETATM    9  C5  UNL     1      25.187   3.714   4.773  1.00  0.00     0.074 A
HETATM   10  C6  UNL     1      23.898   4.261   4.774  1.00  0.00     0.110 A
HETATM   11  N1  UNL     1      23.674   5.505   4.324  1.00  0.00    -0.202 N
HETATM   12  C7  UNL     1      24.684   6.256   3.861  1.00  0.00     0.677 A
ATOM     13  H1  UNL     1      22.726   5.882   4.333  1.00  0.00     0.183 HD
HETATM   14  N3  UNL     1      25.917   5.725   3.862  1.00  0.00    -0.170 N
ATOM     15  H3  UNL     1      26.683   6.297   3.507  1.00  0.00     0.186 HD
BRANCH  12  16
HETATM   16  N2  UNL     1      24.479   7.475   3.416  1.00  0.00    -0.234 N
ATOM     17  H22 UNL     1      23.536   7.798   3.197  1.00  0.00     0.174 HD
ATOM     18  H21 UNL     1      25.252   8.126   3.282  1.00  0.00     0.174 HD
ENDBRANCH  12  16
ENDBRANCH   7   8
ENDBRANCH   2   7
BRANCH   1  19
HETATM   19  O1  UNL     1      27.429   2.101   2.430  1.00  0.00    -0.351 OA
HETATM   20  C1  UNL     1      26.146   1.575   2.077  1.00  0.00     0.210 C
ENDBRANCH   1  19
BRANCH   6  21
HETATM   21  O3  UNL     1      28.489  -0.483   3.086  1.00  0.00    -0.287 OA
BRANCH  21  22
HETATM   22  C18 UNL     1      29.420  -1.263   2.473  1.00  0.00     0.505 C
HETATM   23  F1  UNL     1      29.948  -2.245   3.336  1.00  0.00    -0.184 F
HETATM   24  F2  UNL     1      30.554  -0.473   2.161  1.00  0.00    -0.184 F
ENDBRANCH  21  22
ENDBRANCH   6  21
BRANCH   4  25
HETATM   25  N4  UNL     1      29.544   1.053   7.516  1.00  0.00    -0.374 N
HETATM   26  C10 UNL     1      30.554   1.910   8.120  1.00  0.00     0.130 C
HETATM   27  C11 UNL     1      30.696   1.188   9.429  1.00  0.00     0.031 C
HETATM   28  C12 UNL     1      30.731  -0.269   8.958  1.00  0.00     0.035 C
HETATM   29  C14 UNL     1      29.241   0.904   9.773  1.00  0.00     0.059 C
HETATM   30  C13 UNL     1      29.305   0.059   8.490  1.00  0.00     0.108 C
HETATM   31  C15 UNL     1      28.301   2.065   9.608  1.00  0.00     0.035 C
HETATM   32 CL1  UNL     1      28.993  -0.078  11.214  1.00  0.00    -0.117 Cl
ENDBRANCH   4  25
TORSDOF 7
ENDMDL