MODEL 1
REMARK VINA RESULT: -6.734221162      0.000      0.000
REMARK  7 active torsions:
REMARK  status: ('A' for Active; 'I' for Inactive)
REMARK    1  A    between atoms: O1_2  and  C2_3
REMARK    2  A    between atoms: C8_11  and  N2_12
REMARK    3  A    between atoms: N2_12  and  C9_13
REMARK    4  A    between atoms: C9_13  and  C10_14
REMARK    5  A    between atoms: C10_14  and  N3_15
REMARK    6  A    between atoms: N3_15  and  C11_17
REMARK    7  A    between atoms: C17_29  and  O2_30
ROOT
HETATM    1  C2  UNL     1      24.571   3.846   3.729  1.00  0.00     0.103 A
HETATM    2  C3  UNL     1      24.630   2.473   3.623  1.00  0.00     0.070 A
HETATM    3  C4  UNL     1      25.778   1.764   3.996  1.00  0.00     0.049 A
HETATM    4  N1  UNL     1      25.820   0.422   3.889  1.00  0.00    -0.359 N
ATOM      5  H1  UNL     1      25.001  -0.066   3.529  1.00  0.00     0.166 HD
HETATM    6  C5  UNL     1      26.898  -0.297   4.236  1.00  0.00     0.009 A
HETATM    7  C6  UNL     1      26.897  -1.799   4.097  1.00  0.00     0.068 C
HETATM    8  C7  UNL     1      27.984   0.376   4.713  1.00  0.00     0.070 A
HETATM    9  C8  UNL     1      27.989   1.785   4.846  1.00  0.00     0.120 A
HETATM   10  C15 UNL     1      26.836   2.496   4.469  1.00  0.00     0.034 A
HETATM   11  C16 UNL     1      26.768   3.881   4.572  1.00  0.00     0.057 A
HETATM   12  C17 UNL     1      25.635   4.586   4.205  1.00  0.00     0.102 A
ENDROOT
BRANCH   9  13
HETATM   13  N2  UNL     1      28.944   2.382   5.267  1.00  0.00    -0.420 NA
BRANCH  13  14
HETATM   14  C9  UNL     1      30.009   2.910   5.859  1.00  0.00     0.175 C
BRANCH  14  15
HETATM   15  C10 UNL     1      29.925   2.842   7.384  1.00  0.00     0.180 C
BRANCH  15  16
HETATM   16  N3  UNL     1      29.908   1.450   7.822  1.00  0.00    -0.367 N
ATOM     17  H3  UNL     1      30.064   0.718   7.130  1.00  0.00     0.161 HD
BRANCH  16  18
HETATM   18  C11 UNL     1      29.686   1.078   9.157  1.00  0.00     0.158 A
HETATM   19  N4  UNL     1      30.516   0.248   9.812  1.00  0.00    -0.346 N
HETATM   20  C12 UNL     1      30.310  -0.113  11.088  1.00  0.00     0.132 A
ATOM     21  H4  UNL     1      31.331  -0.120   9.322  1.00  0.00     0.167 HD
HETATM   22  C13 UNL     1      29.233   0.357  11.777  1.00  0.00     0.121 A
HETATM   23 CL1  UNL     1      29.007  -0.143  13.440  1.00  0.00    -0.063 Cl
HETATM   24  N5  UNL     1      28.379   1.193  11.151  1.00  0.00    -0.319 N
HETATM   25  C14 UNL     1      28.604   1.551   9.853  1.00  0.00     0.233 A
ATOM     26  H5  UNL     1      27.565   1.557  11.648  1.00  0.00     0.169 HD
HETATM   27  F1  UNL     1      27.694   2.393   9.308  1.00  0.00    -0.182 F
ENDBRANCH  16  18
ENDBRANCH  15  16
ENDBRANCH  14  15
ENDBRANCH  13  14
ENDBRANCH   9  13
BRANCH  12  28
HETATM   28  O2  UNL     1      25.564   5.965   4.306  1.00  0.00    -0.353 OA
HETATM   29  C18 UNL     1      26.190   6.792   3.342  1.00  0.00     0.210 C
ENDBRANCH  12  28
BRANCH   1  30
HETATM   30  O1  UNL     1      23.433   4.564   3.360  1.00  0.00    -0.353 OA
HETATM   31  C1  UNL     1      22.249   4.342   4.100  1.00  0.00     0.210 C
ENDBRANCH   1  30
TORSDOF 7
ENDMDL