MODEL 3
REMARK VINA RESULT: -8.177610289      1.652      2.130
REMARK  7 active torsions:
REMARK  status: ('A' for Active; 'I' for Inactive)
REMARK    1  A    between atoms: C4_5  and  O1_6
REMARK    2  A    between atoms: C4_5  and  C6_10
REMARK    3  A    between atoms: O1_6  and  C5_7
REMARK    4  A    between atoms: C9_15  and  N1_16
REMARK    5  A    between atoms: C9_15  and  C15_29
REMARK       I    between atoms: N1_16  and  C10_18
REMARK    6  A    between atoms: C10_18  and  C11_20
REMARK    7  A    between atoms: C13_25  and  C14_26
ROOT
HETATM    1  C1  UNL     1      27.318  -0.377   5.035  1.00  0.00     0.036 C
HETATM    2  C2  UNL     1      27.555   0.999   4.481  1.00  0.00     0.070 C
HETATM    3 CL1  UNL     1      27.704   0.863   2.744  1.00  0.00    -0.117 Cl
HETATM    4  C3  UNL     1      26.284   1.803   4.781  1.00  0.00     0.078 C
HETATM    5  C4  UNL     1      26.242   3.117   4.023  1.00  0.00     0.156 C
HETATM    6  C7  UNL     1      27.635   3.679   3.911  1.00  0.00     0.052 C
HETATM    7  C8  UNL     1      28.517   3.220   5.041  1.00  0.00     0.046 C
HETATM    8  C9  UNL     1      28.681   1.751   5.164  1.00  0.00     0.152 C
ENDROOT
BRANCH   8   9
HETATM    9  N1  UNL     1      28.623   1.370   6.568  1.00  0.00    -0.337 N
HETATM   10  C10 UNL     1      28.829   2.180   7.684  1.00  0.00     0.256 C
HETATM   11  O4  UNL     1      29.098   3.390   7.593  1.00  0.00    -0.267 OA
ATOM     12  H1  UNL     1      28.405   0.392   6.758  1.00  0.00     0.164 HD
BRANCH  10  13
HETATM   13  C11 UNL     1      28.746   1.654   9.040  1.00  0.00     0.086 A
HETATM   14  C12 UNL     1      27.789   2.029   9.992  1.00  0.00     0.134 A
HETATM   15  N2  UNL     1      28.082   1.399  11.115  1.00  0.00    -0.271 N
HETATM   16  O5  UNL     1      29.118   0.688  10.924  1.00  0.00    -0.236 OA
ATOM     17  H2  UNL     1      27.564   1.472  11.990  1.00  0.00     0.194 HD
HETATM   18  C13 UNL     1      29.577   0.797   9.667  1.00  0.00     0.157 A
BRANCH  18  19
HETATM   19  C14 UNL     1      30.765   0.024   9.277  1.00  0.00     0.413 C
HETATM   20  F3  UNL     1      30.953   0.050   7.895  1.00  0.00    -0.207 F
HETATM   21  F4  UNL     1      30.510  -1.324   9.569  1.00  0.00    -0.207 F
ENDBRANCH  18  19
ENDBRANCH  10  13
ENDBRANCH   8   9
BRANCH   8  22
HETATM   22  C15 UNL     1      30.012   1.352   4.591  1.00  0.00     0.414 C
HETATM   23  F5  UNL     1      30.463   0.121   4.978  1.00  0.00    -0.168 F
HETATM   24  F6  UNL     1      29.955   1.340   3.185  1.00  0.00    -0.168 F
HETATM   25  F7  UNL     1      30.958   2.286   4.881  1.00  0.00    -0.168 F
ENDBRANCH   8  22
BRANCH   5  26
HETATM   26  O1  UNL     1      25.693   2.835   2.777  1.00  0.00    -0.310 OA
BRANCH  26  27
HETATM   27  C5  UNL     1      24.722   1.876   2.754  1.00  0.00     0.501 C
HETATM   28  F1  UNL     1      24.688   1.097   1.616  1.00  0.00    -0.184 F
HETATM   29  F2  UNL     1      23.476   2.466   2.979  1.00  0.00    -0.184 F
ENDBRANCH  26  27
ENDBRANCH   5  26
BRANCH   5  30
HETATM   30  C6  UNL     1      25.355   4.003   4.841  1.00  0.00     0.209 C
HETATM   31  O2  UNL     1      25.371   5.226   4.650  1.00  0.00    -0.646 OA
HETATM   32  O3  UNL     1      24.529   3.443   5.798  1.00  0.00    -0.646 OA
ENDBRANCH   5  30
TORSDOF 7
ENDMDL