MODEL 1
REMARK VINA RESULT: -9.002964141      0.000      0.000
REMARK  8 active torsions:
REMARK  status: ('A' for Active; 'I' for Inactive)
REMARK    1  A    between atoms: C2_7  and  C3_8
REMARK    2  A    between atoms: C3_8  and  C4_9
REMARK    3  A    between atoms: C4_9  and  N3_10
REMARK    4  A    between atoms: C6_15  and  C7_16
REMARK    5  A    between atoms: C9_21  and  C10_22
REMARK    6  A    between atoms: C9_21  and  C15_32
REMARK    7  A    between atoms: N6_26  and  C12_27
REMARK    8  A    between atoms: C12_27  and  C13_28
ROOT
HETATM    1  N3  UNL     1      29.202   1.732   8.037  1.00  0.00    -0.226 N
ATOM      2  H3  UNL     1      28.735   2.384   8.667  1.00  0.00     0.177 HD
HETATM    3  C5  UNL     1      28.785   1.511   6.839  1.00  0.00     0.675 C
HETATM    4  N4  UNL     1      29.397   0.612   5.932  1.00  0.00    -0.191 N
ATOM      5  H4  UNL     1      30.197   0.068   6.252  1.00  0.00     0.184 HD
HETATM    6  C6  UNL     1      28.998   0.451   4.742  1.00  0.00     0.112 C
HETATM    7  C8  UNL     1      27.861   1.175   4.159  1.00  0.00     0.108 C
HETATM    8  C9  UNL     1      27.597   2.454   4.864  1.00  0.00     0.179 C
HETATM    9  N7  UNL     1      27.665   2.224   6.290  1.00  0.00    -0.203 N
ATOM     10  H7  UNL     1      26.925   2.566   6.902  1.00  0.00     0.179 HD
ENDROOT
BRANCH   8  11
HETATM   11  C10 UNL     1      26.241   2.995   4.455  1.00  0.00     0.014 A
HETATM   12  C11 UNL     1      25.252   2.366   3.737  1.00  0.00     0.118 A
HETATM   13  N5  UNL     1      24.213   3.233   3.649  1.00  0.00    -0.309 N
HETATM   14  N6  UNL     1      24.499   4.370   4.270  1.00  0.00    -0.298 N
ATOM     15  H5  UNL     1      23.334   3.037   3.170  1.00  0.00     0.186 HD
HETATM   16  C14 UNL     1      25.746   4.243   4.773  1.00  0.00     0.121 A
BRANCH  14  17
HETATM   17  C12 UNL     1      23.627   5.535   4.426  1.00  0.00     0.219 C
BRANCH  17  18
HETATM   18  C13 UNL     1      24.478   6.762   4.323  1.00  0.00     0.372 C
HETATM   19  F4  UNL     1      24.496   7.109   2.977  1.00  0.00    -0.213 F
HETATM   20  F5  UNL     1      23.971   7.776   5.119  1.00  0.00    -0.213 F
ENDBRANCH  17  18
ENDBRANCH  14  17
ENDBRANCH   8  11
BRANCH   8  21
HETATM   21  C15 UNL     1      28.581   3.556   4.530  1.00  0.00     0.418 C
HETATM   22  F6  UNL     1      28.344   4.558   5.483  1.00  0.00    -0.168 F
HETATM   23  F7  UNL     1      29.876   3.151   4.534  1.00  0.00    -0.168 F
HETATM   24  F8  UNL     1      28.204   4.075   3.289  1.00  0.00    -0.168 F
ENDBRANCH   8  21
BRANCH   6  25
HETATM   25  C7  UNL     1      29.750  -0.544   3.898  1.00  0.00     0.429 C
HETATM   26  F1  UNL     1      30.813  -1.065   4.589  1.00  0.00    -0.165 F
HETATM   27  F2  UNL     1      28.933  -1.578   3.485  1.00  0.00    -0.165 F
HETATM   28  F3  UNL     1      30.196   0.132   2.752  1.00  0.00    -0.165 F
ENDBRANCH   6  25
BRANCH   1  29
HETATM   29  C4  UNL     1      30.378   0.988   8.425  1.00  0.00     0.144 C
BRANCH  29  30
HETATM   30  C3  UNL     1      30.137  -0.266   9.187  1.00  0.00     0.078 C
BRANCH  30  31
HETATM   31  C2  UNL     1      29.335   0.198  10.405  1.00  0.00     0.019 A
HETATM   32  N2  UNL     1      29.638  -0.143  11.639  1.00  0.00    -0.340 N
HETATM   33  C1  UNL     1      28.881   0.329  12.626  1.00  0.00     0.142 A
ATOM     34  H2  UNL     1      30.432  -0.752  11.833  1.00  0.00     0.167 HD
HETATM   35  N1  UNL     1      29.014   0.109  13.924  1.00  0.00    -0.380 N
HETATM   36  S1  UNL     1      27.718   1.275  11.810  1.00  0.00    -0.064 SA
ATOM     37  H12 UNL     1      29.710  -0.456  14.411  1.00  0.00     0.158 HD
ATOM     38  H11 UNL     1      28.434   0.470  14.680  1.00  0.00     0.158 HD
HETATM   39  C16 UNL     1      28.259   1.017  10.218  1.00  0.00     0.078 A
ENDBRANCH  30  31
ENDBRANCH  29  30
ENDBRANCH   1  29
TORSDOF 8
ENDMDL