MODEL 4
REMARK VINA RESULT: -5.399709368      3.288      6.048
REMARK  9 active torsions:
REMARK  status: ('A' for Active; 'I' for Inactive)
REMARK    1  A    between atoms: C2_2  and  O1_3
REMARK    2  A    between atoms: O1_3  and  C3_4
REMARK    3  A    between atoms: C7_12  and  N3_13
REMARK    4  A    between atoms: N4_16  and  C8_17
REMARK    5  A    between atoms: C8_17  and  C9_18
REMARK    6  A    between atoms: C9_18  and  O2_19
REMARK    7  A    between atoms: O2_19  and  C10_20
REMARK    8  A    between atoms: C10_20  and  C11_21
REMARK    9  A    between atoms: C16_29  and  C17_31
ROOT
HETATM    1  C3  UNL     1      27.301   2.939   3.825  1.00  0.00     0.194 C
HETATM    2  C4  UNL     1      28.163   2.153   4.716  1.00  0.00     0.060 A
HETATM    3  C5  UNL     1      28.429   2.184   6.093  1.00  0.00     0.117 A
HETATM    4  N1  UNL     1      29.313   1.324   6.602  1.00  0.00    -0.338 N
ATOM      5  H1  UNL     1      29.505   1.348   7.604  1.00  0.00     0.168 HD
HETATM    6  C6  UNL     1      29.957   0.428   5.835  1.00  0.00     0.183 A
HETATM    7  N2  UNL     1      29.696   0.407   4.527  1.00  0.00    -0.338 N
ATOM      8  H2  UNL     1      30.187  -0.276   3.950  1.00  0.00     0.168 HD
HETATM    9  C7  UNL     1      28.805   1.249   3.911  1.00  0.00     0.112 A
HETATM   10  N4  UNL     1      27.901   2.999   7.117  1.00  0.00    -0.365 N
HETATM   11  C12 UNL     1      26.843   3.941   7.169  1.00  0.00     0.125 C
HETATM   12  C13 UNL     1      25.566   3.586   6.547  1.00  0.00     0.026 C
HETATM   13  C14 UNL     1      25.484   2.498   5.547  1.00  0.00     0.018 C
HETATM   14  C15 UNL     1      24.017   1.995   5.669  1.00  0.00     0.012 C
HETATM   15  C16 UNL     1      25.804   2.902   4.146  1.00  0.00     0.168 C
HETATM   16 CL1  UNL     1      25.216   4.599   3.878  1.00  0.00    -0.106 Cl
ENDROOT
BRANCH  10  17
HETATM   17  C8  UNL     1      28.626   2.806   8.396  1.00  0.00     0.150 C
BRANCH  17  18
HETATM   18  C9  UNL     1      27.675   2.616   9.523  1.00  0.00     0.187 C
BRANCH  18  19
HETATM   19  O2  UNL     1      28.026   1.532  10.293  1.00  0.00    -0.381 OA
BRANCH  19  20
HETATM   20  C10 UNL     1      29.157   0.876   9.872  1.00  0.00     0.285 C
BRANCH  20  21
HETATM   21  C11 UNL     1      29.535  -0.258  10.816  1.00  0.00     0.408 C
HETATM   22  F1  UNL     1      29.302  -1.492  10.262  1.00  0.00    -0.169 F
HETATM   23  F2  UNL     1      30.868  -0.203  11.175  1.00  0.00    -0.169 F
HETATM   24  F3  UNL     1      28.796  -0.094  11.972  1.00  0.00    -0.169 F
ENDBRANCH  20  21
ENDBRANCH  19  20
ENDBRANCH  18  19
ENDBRANCH  17  18
ENDBRANCH  10  17
BRANCH   1  25
HETATM   25  O1  UNL     1      27.687   4.275   4.041  1.00  0.00    -0.379 OA
BRANCH  25  26
HETATM   26  C2  UNL     1      28.366   4.939   3.104  1.00  0.00     0.164 C
HETATM   27  C1  UNL     1      27.632   5.604   1.989  1.00  0.00     0.033 C
ENDBRANCH  25  26
ENDBRANCH   1  25
BRANCH   9  28
HETATM   28  N3  UNL     1      28.645   1.140   2.647  1.00  0.00    -0.385 N
ATOM     29  H32 UNL     1      27.866   1.636   2.215  1.00  0.00     0.157 HD
ATOM     30  H31 UNL     1      29.234   0.587   2.023  1.00  0.00     0.157 HD
ENDBRANCH   9  28
BRANCH  15  31
HETATM   31  C17 UNL     1      25.088   2.142   3.088  1.00  0.00     0.411 C
HETATM   32  F4  UNL     1      25.298   0.781   3.332  1.00  0.00    -0.169 F
HETATM   33  F5  UNL     1      25.765   2.253   1.845  1.00  0.00    -0.169 F
HETATM   34  F6  UNL     1      23.766   2.346   2.922  1.00  0.00    -0.169 F
ENDBRANCH  15  31
TORSDOF 9
ENDMDL