MODEL 4
REMARK VINA RESULT: -7.522261730      1.075      1.701
REMARK  7 active torsions:
REMARK  status: ('A' for Active; 'I' for Inactive)
REMARK    1  A    between atoms: C2_2  and  C3_3
REMARK    2  A    between atoms: C3_3  and  C4_5
REMARK    3  A    between atoms: C3_3  and  C15_31
REMARK    4  A    between atoms: N1_7  and  C6_9
REMARK    5  A    between atoms: C6_9  and  C7_10
REMARK    6  A    between atoms: C6_9  and  C14_27
REMARK    7  A    between atoms: C10_15  and  C11_16
ROOT
HETATM    1  C7  UNL     1      28.306   1.500   5.697  1.00  0.00     0.109 A
HETATM    2  N2  UNL     1      29.387   1.442   4.974  1.00  0.00    -0.354 N
ATOM      3  H2  UNL     1      29.283   1.682   3.989  1.00  0.00     0.166 HD
HETATM    4  C8  UNL     1      30.618   1.105   5.373  1.00  0.00     0.092 A
HETATM    5  C9  UNL     1      30.699   0.783   6.732  1.00  0.00     0.050 A
HETATM    6  C10 UNL     1      29.578   0.831   7.547  1.00  0.00     0.080 A
HETATM    7  N6  UNL     1      28.400   1.191   7.009  1.00  0.00    -0.341 N
ATOM      8  H6  UNL     1      27.568   1.232   7.597  1.00  0.00     0.167 HD
ENDROOT
BRANCH   1   9
HETATM    9  C6  UNL     1      26.975   1.873   5.072  1.00  0.00     0.204 C
BRANCH   9  10
HETATM   10  N1  UNL     1      26.880   3.233   4.921  1.00  0.00    -0.379 N
HETATM   11  C4  UNL     1      25.892   4.133   5.019  1.00  0.00     0.028 C
HETATM   12  C5  UNL     1      24.724   3.775   5.923  1.00  0.00     0.067 C
ATOM     13  H1  UNL     1      27.773   3.660   4.675  1.00  0.00     0.160 HD
BRANCH  11  14
HETATM   14  C3  UNL     1      25.360   4.877   3.816  1.00  0.00     0.237 C
HETATM   15  F1  UNL     1      24.325   4.327   3.137  1.00  0.00    -0.227 F
BRANCH  14  16
HETATM   16  C2  UNL     1      26.467   5.222   2.857  1.00  0.00     0.055 C
HETATM   17  C1  UNL     1      27.825   5.427   3.471  1.00  0.00     0.009 C
ENDBRANCH  14  16
BRANCH  14  18
HETATM   18  C15 UNL     1      24.828   6.254   4.344  1.00  0.00     0.428 C
HETATM   19  F2  UNL     1      25.507   6.669   5.440  1.00  0.00    -0.167 F
HETATM   20  F3  UNL     1      25.047   7.184   3.365  1.00  0.00    -0.167 F
HETATM   21  F4  UNL     1      23.491   6.149   4.671  1.00  0.00    -0.167 F
ENDBRANCH  14  18
ENDBRANCH  11  14
ENDBRANCH   9  10
BRANCH   9  22
HETATM   22  C14 UNL     1      26.737   0.906   3.979  1.00  0.00     0.215 C
HETATM   23 CL1  UNL     1      25.022   1.129   3.370  1.00  0.00    -0.081 Cl
HETATM   24 CL2  UNL     1      26.693  -0.790   4.626  1.00  0.00    -0.081 Cl
HETATM   25 CL3  UNL     1      27.826   0.888   2.612  1.00  0.00    -0.081 Cl
ENDBRANCH   9  22
ENDBRANCH   1   9
BRANCH   6  26
HETATM   26  C11 UNL     1      29.734   0.527   8.977  1.00  0.00     0.148 A
HETATM   27  N3  UNL     1      28.854   0.715   9.942  1.00  0.00    -0.328 N
HETATM   28  C12 UNL     1      29.329   0.338  11.133  1.00  0.00     0.093 A
ATOM     29  H3  UNL     1      27.921   1.101   9.797  1.00  0.00     0.169 HD
HETATM   30  C13 UNL     1      28.709   0.368  12.467  1.00  0.00     0.090 C
HETATM   31  N4  UNL     1      30.586  -0.113  10.880  1.00  0.00    -0.288 N
HETATM   32  N5  UNL     1      30.811   0.014   9.554  1.00  0.00    -0.282 N
ATOM     33  H4  UNL     1      31.243  -0.481  11.569  1.00  0.00     0.188 HD
ATOM     34  H5  UNL     1      31.673  -0.245   9.074  1.00  0.00     0.188 HD
ENDBRANCH   6  26
TORSDOF 7
ENDMDL