MODEL 5
REMARK VINA RESULT: -7.038564643      1.060      1.525
REMARK  9 active torsions:
REMARK  status: ('A' for Active; 'I' for Inactive)
REMARK    1  A    between atoms: N1_1  and  C1_5
REMARK    2  A    between atoms: C4_8  and  C5_9
REMARK    3  A    between atoms: C5_9  and  N2_10
REMARK    4  A    between atoms: N2_10  and  C6_11
REMARK    5  A    between atoms: N2_10  and  C16_33
REMARK    6  A    between atoms: C7_14  and  C8_15
REMARK    7  A    between atoms: C8_15  and  C9_16
REMARK    8  A    between atoms: C9_16  and  C10_17
REMARK    9  A    between atoms: C14_26  and  C15_27
ROOT
HETATM    1  C6  UNL     1      28.471   2.410   4.945  1.00  0.00     0.681 A
HETATM    2  N3  UNL     1      27.225   2.308   5.418  1.00  0.00    -0.195 N
ATOM      3  H3  UNL     1      27.023   1.490   5.994  1.00  0.00     0.184 HD
HETATM    4  C7  UNL     1      26.224   3.150   5.221  1.00  0.00     0.030 A
HETATM    5  C13 UNL     1      26.520   4.263   4.434  1.00  0.00     0.060 A
HETATM    6  C14 UNL     1      27.785   4.415   3.928  1.00  0.00     0.134 A
HETATM    7  N4  UNL     1      28.750   3.474   4.197  1.00  0.00    -0.186 N
ATOM      8  H4  UNL     1      29.689   3.592   3.818  1.00  0.00     0.184 HD
ENDROOT
BRANCH   1   9
HETATM    9  N2  UNL     1      29.364   1.343   5.255  1.00  0.00    -0.209 N
BRANCH   9  10
HETATM   10  C5  UNL     1      30.285   1.579   6.337  1.00  0.00     0.146 C
BRANCH  10  11
HETATM   11  C4  UNL     1      29.903   1.063   7.665  1.00  0.00     0.004 C
HETATM   12  C3  UNL     1      29.428   2.254   8.506  1.00  0.00     0.008 C
HETATM   13  C2  UNL     1      28.444   1.716   9.534  1.00  0.00     0.033 C
HETATM   14  C1  UNL     1      28.973   0.374   9.990  1.00  0.00     0.183 C
HETATM   15  C20 UNL     1      30.471   0.276   9.907  1.00  0.00     0.033 C
HETATM   16  C19 UNL     1      30.970   0.404   8.473  1.00  0.00     0.008 C
BRANCH  14  17
HETATM   17  N1  UNL     1      28.638   0.285  11.414  1.00  0.00    -0.075 N
ATOM     18  H13 UNL     1      28.213   1.133  11.789  1.00  0.00     0.274 HD
ATOM     19  H12 UNL     1      27.856  -0.339  11.613  1.00  0.00     0.274 HD
ATOM     20  H11 UNL     1      29.504   0.019  11.882  1.00  0.00     0.274 HD
ENDBRANCH  14  17
ENDBRANCH  10  11
ENDBRANCH   9  10
BRANCH   9  21
HETATM   21  C16 UNL     1      29.151   0.143   4.536  1.00  0.00     0.153 C
HETATM   22  C17 UNL     1      28.950   0.032   3.098  1.00  0.00     0.259 C
HETATM   23  N5  UNL     1      30.365  -0.303   2.884  1.00  0.00    -0.071 N
HETATM   24  C18 UNL     1      30.449  -0.644   4.277  1.00  0.00     0.259 C
ATOM     25  H52 UNL     1      30.640  -0.972   2.165  1.00  0.00     0.277 HD
ATOM     26  H51 UNL     1      31.006   0.376   2.473  1.00  0.00     0.277 HD
ENDBRANCH   9  21
ENDBRANCH   1   9
BRANCH   4  27
HETATM   27  C8  UNL     1      24.866   3.021   5.745  1.00  0.00     0.082 C
BRANCH  27  28
HETATM   28  C9  UNL     1      23.741   2.891   4.771  1.00  0.00     0.133 A
HETATM   29  C11 UNL     1      22.324   3.064   5.103  1.00  0.00     0.105 A
HETATM   30  C12 UNL     1      23.033   4.133   4.324  1.00  0.00     0.261 A
HETATM   31  F4  UNL     1      23.193   5.359   4.843  1.00  0.00    -0.205 F
HETATM   32  F5  UNL     1      22.593   4.187   2.982  1.00  0.00    -0.205 F
BRANCH  28  33
HETATM   33  C10 UNL     1      24.071   1.932   3.597  1.00  0.00     0.401 C
HETATM   34  F1  UNL     1      24.825   2.534   2.648  1.00  0.00    -0.170 F
HETATM   35  F2  UNL     1      24.819   0.879   4.137  1.00  0.00    -0.170 F
HETATM   36  F3  UNL     1      22.919   1.440   3.047  1.00  0.00    -0.170 F
ENDBRANCH  28  33
ENDBRANCH  27  28
ENDBRANCH   4  27
BRANCH   6  37
HETATM   37  C15 UNL     1      28.102   5.602   3.109  1.00  0.00     0.433 C
HETATM   38  F6  UNL     1      28.792   6.543   3.851  1.00  0.00    -0.165 F
HETATM   39  F7  UNL     1      28.832   5.343   1.986  1.00  0.00    -0.165 F
HETATM   40  F8  UNL     1      26.910   6.192   2.739  1.00  0.00    -0.165 F
ENDBRANCH   6  37
TORSDOF 9
ENDMDL