MODEL 3
REMARK VINA RESULT: -7.896360629      1.728      5.583
REMARK  11 active torsions:
REMARK  status: ('A' for Active; 'I' for Inactive)
REMARK    1  A    between atoms: O1_1  and  C1_3
REMARK    2  A    between atoms: C1_3  and  N1_4
REMARK    3  A    between atoms: C1_3  and  C7_12
REMARK    4  A    between atoms: C1_3  and  C19_33
REMARK    5  A    between atoms: C2_6  and  C3_7
REMARK    6  A    between atoms: C7_12  and  C8_13
REMARK    7  A    between atoms: C8_13  and  C9_14
REMARK    8  A    between atoms: C9_14  and  O3_15
REMARK    9  A    between atoms: C9_14  and  C10_17
REMARK   10  A    between atoms: C9_14  and  C11_20
REMARK   11  A    between atoms: N2_24  and  C12_26
ROOT
HETATM    1  C7  UNL     1      28.773   1.438   6.460  1.00  0.00     0.070 C
HETATM    2  N2  UNL     1      29.191   1.204   7.697  1.00  0.00    -0.384 N
ATOM      3  H2  UNL     1      29.098   2.004   8.323  1.00  0.00     0.160 HD
ENDROOT
BRANCH   1   4
HETATM    4  C1  UNL     1      28.274   2.809   6.302  1.00  0.00     0.276 C
BRANCH   4   5
HETATM    5  O1  UNL     1      27.904   3.209   7.669  1.00  0.00    -0.359 OA
ATOM      6  H1  UNL     1      28.376   4.029   7.738  1.00  0.00     0.213 HD
ENDBRANCH   4   5
BRANCH   4   7
HETATM    7  N1  UNL     1      26.957   2.809   5.666  1.00  0.00    -0.353 N
HETATM    8  C2  UNL     1      26.110   3.723   5.859  1.00  0.00     0.123 C
ATOM      9  H1  UNL     1      26.714   2.039   5.041  1.00  0.00     0.162 HD
BRANCH   8  10
HETATM   10  C3  UNL     1      24.814   3.615   5.163  1.00  0.00     0.090 A
HETATM   11  C4  UNL     1      24.385   2.545   4.394  1.00  0.00     0.040 A
HETATM   12  C5  UNL     1      23.132   2.841   3.930  1.00  0.00     0.027 A
HETATM   13  C6  UNL     1      22.831   4.087   4.430  1.00  0.00     0.142 A
HETATM   14  O2  UNL     1      23.846   4.489   5.141  1.00  0.00    -0.321 OA
ENDBRANCH   8  10
ENDBRANCH   4   7
BRANCH   4  15
HETATM   15  C19 UNL     1      29.118   3.928   5.881  1.00  0.00     0.444 C
HETATM   16  F6  UNL     1      30.353   3.562   5.457  1.00  0.00    -0.166 F
HETATM   17  F7  UNL     1      28.571   4.971   5.215  1.00  0.00    -0.166 F
HETATM   18  F8  UNL     1      29.411   4.585   7.176  1.00  0.00    -0.166 F
ENDBRANCH   4  15
ENDBRANCH   1   4
BRANCH   1  19
HETATM   19  C8  UNL     1      28.827   0.377   5.497  1.00  0.00     0.055 C
BRANCH  19  20
HETATM   20  C9  UNL     1      29.541   0.373   4.228  1.00  0.00     0.235 C
BRANCH  20  21
HETATM   21  O3  UNL     1      30.604   1.203   4.018  1.00  0.00    -0.373 OA
ATOM     22  H3  UNL     1      31.020   1.260   3.165  1.00  0.00     0.211 HD
ENDBRANCH  20  21
BRANCH  20  23
HETATM   23  C10 UNL     1      28.485   0.917   3.198  1.00  0.00     0.400 C
HETATM   24  F1  UNL     1      28.708   2.246   3.053  1.00  0.00    -0.210 F
HETATM   25  F2  UNL     1      27.230   0.543   3.545  1.00  0.00    -0.210 F
ENDBRANCH  20  23
BRANCH  20  26
HETATM   26  C11 UNL     1      29.913  -0.979   3.655  1.00  0.00     0.427 C
HETATM   27  F3  UNL     1      28.865  -1.814   3.488  1.00  0.00    -0.167 F
HETATM   28  F4  UNL     1      30.975  -1.561   4.332  1.00  0.00    -0.167 F
HETATM   29  F5  UNL     1      30.422  -0.719   2.370  1.00  0.00    -0.167 F
ENDBRANCH  20  26
ENDBRANCH  19  20
ENDBRANCH   1  19
BRANCH   2  30
HETATM   30  C12 UNL     1      29.720   0.096   8.290  1.00  0.00     0.086 C
HETATM   31  C13 UNL     1      30.933   0.391   9.198  1.00  0.00     0.030 C
HETATM   32  C14 UNL     1      30.784  -0.442  10.423  1.00  0.00    -0.012 C
HETATM   33  C15 UNL     1      29.858   0.295  11.367  1.00  0.00     0.005 C
HETATM   34  C18 UNL     1      29.821  -1.537   9.934  1.00  0.00     0.011 C
HETATM   35  C16 UNL     1      28.580   0.355  10.517  1.00  0.00     0.007 C
HETATM   36  C17 UNL     1      28.797  -0.546   9.347  1.00  0.00     0.009 C
ENDBRANCH   2  30
TORSDOF 11
ENDMDL