MODEL 1
REMARK VINA RESULT: -8.706712232      0.000      0.000
REMARK  8 active torsions:
REMARK  status: ('A' for Active; 'I' for Inactive)
REMARK    1  A    between atoms: O1_2  and  C2_3
REMARK    2  A    between atoms: C5_8  and  N2_9
REMARK    3  A    between atoms: C8_12  and  N3_13
REMARK    4  A    between atoms: N3_13  and  C9_15
REMARK    5  A    between atoms: C12_18  and  N4_19
REMARK    6  A    between atoms: N4_19  and  C13_21
REMARK    7  A    between atoms: C13_21  and  C14_22
REMARK    8  A    between atoms: C17_28  and  C18_30
ROOT
HETATM    1  N2  UNL     1      29.070   1.299   7.694  1.00  0.00    -0.363 N
HETATM    2  C6  UNL     1      28.714   2.723   7.659  1.00  0.00     0.130 C
HETATM    3  C7  UNL     1      29.693   3.420   6.698  1.00  0.00     0.076 C
HETATM    4  C8  UNL     1      29.697   2.780   5.363  1.00  0.00     0.035 C
HETATM    5  C17 UNL     1      29.723   1.281   5.405  1.00  0.00     0.253 C
HETATM    6  F4  UNL     1      31.048   0.884   5.658  1.00  0.00    -0.225 F
HETATM    7  C19 UNL     1      28.853   0.625   6.445  1.00  0.00     0.184 C
ENDROOT
BRANCH   4   8
HETATM    8  N3  UNL     1      28.880   3.339   4.345  1.00  0.00    -0.389 N
ATOM      9  H3  UNL     1      28.891   2.934   3.409  1.00  0.00     0.159 HD
BRANCH   8  10
HETATM   10  C9  UNL     1      28.047   4.456   4.616  1.00  0.00     0.081 C
HETATM   11  C10 UNL     1      26.703   4.242   5.190  1.00  0.00     0.027 C
HETATM   12  C11 UNL     1      25.898   5.541   5.175  1.00  0.00     0.027 C
HETATM   13  C12 UNL     1      25.590   5.915   3.766  1.00  0.00     0.077 C
HETATM   14  C15 UNL     1      26.619   5.414   2.789  1.00  0.00     0.027 C
HETATM   15  C16 UNL     1      28.000   5.399   3.407  1.00  0.00     0.027 C
BRANCH  13  16
HETATM   16  N4  UNL     1      24.280   5.513   3.350  1.00  0.00    -0.409 N
ATOM     17  H4  UNL     1      24.030   5.385   2.369  1.00  0.00     0.153 HD
BRANCH  16  18
HETATM   18  C13 UNL     1      23.339   5.302   4.428  1.00  0.00     0.232 C
BRANCH  18  19
HETATM   19  C14 UNL     1      22.976   3.839   4.532  1.00  0.00     0.402 C
HETATM   20  F1  UNL     1      21.582   3.745   4.421  1.00  0.00    -0.169 F
HETATM   21  F2  UNL     1      23.324   3.399   5.809  1.00  0.00    -0.169 F
HETATM   22  F3  UNL     1      23.552   3.092   3.554  1.00  0.00    -0.169 F
ENDBRANCH  18  19
ENDBRANCH  16  18
ENDBRANCH  13  16
ENDBRANCH   8  10
ENDBRANCH   4   8
BRANCH   5  23
HETATM   23  C18 UNL     1      29.386   0.643   4.076  1.00  0.00     0.430 C
HETATM   24  F5  UNL     1      29.740  -0.693   4.181  1.00  0.00    -0.167 F
HETATM   25  F6  UNL     1      30.233   1.212   3.140  1.00  0.00    -0.167 F
HETATM   26  F7  UNL     1      28.069   0.670   3.752  1.00  0.00    -0.167 F
ENDBRANCH   5  23
BRANCH   1  27
HETATM   27  C5  UNL     1      29.577   0.787   8.899  1.00  0.00     0.105 A
HETATM   28  N1  UNL     1      30.879   0.471   8.941  1.00  0.00    -0.352 N
HETATM   29  C4  UNL     1      31.458   0.015  10.057  1.00  0.00     0.092 A
ATOM     30  H1  UNL     1      31.444   0.581   8.099  1.00  0.00     0.166 HD
HETATM   31  C3  UNL     1      30.699  -0.131  11.190  1.00  0.00     0.053 A
HETATM   32  C2  UNL     1      29.357   0.175  11.217  1.00  0.00     0.073 A
HETATM   33  C20 UNL     1      28.808   0.642  10.032  1.00  0.00     0.085 A
BRANCH  32  34
HETATM   34  O1  UNL     1      28.584   0.031  12.368  1.00  0.00    -0.356 OA
HETATM   35  C1  UNL     1      27.710   1.096  12.713  1.00  0.00     0.210 C
ENDBRANCH  32  34
ENDBRANCH   1  27
TORSDOF 8
ENDMDL