MODEL 4
REMARK VINA RESULT: -7.282921795      3.067      5.384
REMARK  9 active torsions:
REMARK  status: ('A' for Active; 'I' for Inactive)
REMARK    1  A    between atoms: N1_1  and  C1_4
REMARK    2  A    between atoms: C3_8  and  C4_9
REMARK    3  A    between atoms: C6_11  and  C7_12
REMARK    4  A    between atoms: C8_17  and  N4_18
REMARK    5  A    between atoms: N4_18  and  C9_19
REMARK    6  A    between atoms: N4_18  and  C14_26
REMARK    7  A    between atoms: C9_19  and  C10_20
REMARK    8  A    between atoms: C14_26  and  C15_27
REMARK    9  A    between atoms: C15_27  and  C16_30
ROOT
HETATM    1  C4  UNL     1      28.789   1.722   7.760  1.00  0.00    -0.003 A
HETATM    2  C5  UNL     1      29.786   1.334   6.860  1.00  0.00     0.044 A
HETATM    3  C6  UNL     1      29.749   1.719   5.546  1.00  0.00     0.076 A
HETATM    4  N3  UNL     1      28.731   2.478   5.145  1.00  0.00    -0.341 N
ATOM      5  H3  UNL     1      28.710   2.760   4.165  1.00  0.00     0.167 HD
HETATM    6  C8  UNL     1      27.718   2.903   5.946  1.00  0.00     0.104 A
HETATM    7  C17 UNL     1      27.759   2.516   7.259  1.00  0.00     0.062 A
ENDROOT
BRANCH   6   8
HETATM    8  N4  UNL     1      26.664   3.723   5.380  1.00  0.00    -0.358 N
BRANCH   8   9
HETATM    9  C9  UNL     1      25.345   3.200   5.286  1.00  0.00     0.170 C
BRANCH   9  10
HETATM   10  C10 UNL     1      25.194   1.990   4.411  1.00  0.00     0.142 C
HETATM   11  F3  UNL     1      25.421   0.794   5.011  1.00  0.00    -0.239 F
HETATM   12  C11 UNL     1      26.212   2.105   3.263  1.00  0.00     0.074 C
HETATM   13  C12 UNL     1      25.587   1.057   2.339  1.00  0.00     0.171 C
HETATM   14  O1  UNL     1      24.230   1.202   2.451  1.00  0.00    -0.388 OA
HETATM   15  C13 UNL     1      23.940   1.977   3.576  1.00  0.00     0.213 C
ENDBRANCH   9  10
ENDBRANCH   8   9
BRANCH   8  16
HETATM   16  C14 UNL     1      27.043   5.024   4.936  1.00  0.00     0.213 C
BRANCH  16  17
HETATM   17  C15 UNL     1      26.604   5.459   3.592  1.00  0.00     0.354 C
HETATM   18  F4  UNL     1      27.409   6.323   2.918  1.00  0.00    -0.194 F
HETATM   19  F5  UNL     1      26.347   4.409   2.726  1.00  0.00    -0.194 F
BRANCH  17  20
HETATM   20  C16 UNL     1      25.272   6.203   3.792  1.00  0.00     0.456 C
HETATM   21  F6  UNL     1      25.126   6.613   5.102  1.00  0.00    -0.165 F
HETATM   22  F7  UNL     1      24.206   5.437   3.439  1.00  0.00    -0.165 F
HETATM   23  F8  UNL     1      25.301   7.301   2.935  1.00  0.00    -0.165 F
ENDBRANCH  17  20
ENDBRANCH  16  17
ENDBRANCH   8  16
ENDBRANCH   6   8
BRANCH   3  24
HETATM   24  C7  UNL     1      30.844   1.275   4.628  1.00  0.00     0.403 C
HETATM   25  F1  UNL     1      30.468   1.310   3.312  1.00  0.00    -0.208 F
HETATM   26  F2  UNL     1      31.175  -0.021   5.039  1.00  0.00    -0.208 F
ENDBRANCH   3  24
BRANCH   1  27
HETATM   27  C3  UNL     1      28.850   1.295   9.154  1.00  0.00     0.058 A
HETATM   28  N2  UNL     1      27.920   1.769  10.002  1.00  0.00    -0.361 N
HETATM   29  C2  UNL     1      27.881   1.444  11.299  1.00  0.00     0.136 A
ATOM     30  H2  UNL     1      27.212   2.407   9.639  1.00  0.00     0.165 HD
HETATM   31  C1  UNL     1      28.845   0.579  11.784  1.00  0.00     0.114 A
HETATM   32  N5  UNL     1      29.776   0.099  10.953  1.00  0.00    -0.349 N
HETATM   33  C18 UNL     1      29.802   0.438   9.639  1.00  0.00     0.120 A
ATOM     34  H5  UNL     1      30.484  -0.539  11.316  1.00  0.00     0.167 HD
BRANCH  31  35
HETATM   35  N1  UNL     1      28.864   0.220  13.042  1.00  0.00    -0.384 N
ATOM     36  H12 UNL     1      28.345   0.771  13.725  1.00  0.00     0.157 HD
ATOM     37  H11 UNL     1      29.389  -0.598  13.350  1.00  0.00     0.157 HD
ENDBRANCH  31  35
ENDBRANCH   1  27
TORSDOF 9
ENDMDL