MODEL 3
REMARK VINA RESULT: -8.243008407      1.000      1.276
REMARK  10 active torsions:
REMARK  status: ('A' for Active; 'I' for Inactive)
REMARK    1  A    between atoms: C2_2  and  O1_4
REMARK    2  A    between atoms: C2_2  and  C17_31
REMARK    3  A    between atoms: O1_4  and  C4_5
REMARK    4  A    between atoms: C4_5  and  C5_6
REMARK    5  A    between atoms: C5_6  and  N1_7
REMARK    6  A    between atoms: C7_13  and  C8_14
REMARK    7  A    between atoms: C10_19  and  O3_20
REMARK    8  A    between atoms: C10_19  and  C16_27
REMARK    9  A    between atoms: O3_20  and  C11_21
REMARK   10  A    between atoms: C11_21  and  C12_22
ROOT
HETATM    1  N1  UNL     1      27.030   2.681   3.961  1.00  0.00    -0.306 N
HETATM    2  C6  UNL     1      25.839   1.913   3.907  1.00  0.00     0.218 C
HETATM    3  N2  UNL     1      25.810   0.650   4.224  1.00  0.00    -0.365 N
ATOM      4  H21 UNL     1      24.954   0.098   4.185  1.00  0.00     0.159 HD
ATOM      5  H22 UNL     1      26.670   0.190   4.523  1.00  0.00     0.159 HD
HETATM    6  O2  UNL     1      24.652   2.548   3.494  1.00  0.00    -0.308 OA
HETATM    7  C7  UNL     1      24.484   3.861   4.028  1.00  0.00     0.244 C
HETATM    8  C9  UNL     1      25.542   4.269   4.991  1.00  0.00     0.113 C
HETATM    9  C10 UNL     1      26.964   4.047   4.556  1.00  0.00     0.241 C
ENDROOT
BRANCH   9  10
HETATM   10  O3  UNL     1      27.810   3.937   5.635  1.00  0.00    -0.350 OA
BRANCH  10  11
HETATM   11  C11 UNL     1      27.342   3.366   6.772  1.00  0.00     0.203 C
BRANCH  11  12
HETATM   12  C12 UNL     1      28.456   3.393   7.845  1.00  0.00     0.145 C
HETATM   13  C13 UNL     1      29.639   2.687   7.242  1.00  0.00     0.036 C
HETATM   14  C14 UNL     1      29.535   1.311   7.887  1.00  0.00     0.029 C
HETATM   15  C15 UNL     1      28.948   1.712   9.242  1.00  0.00     0.168 C
HETATM   16  O4  UNL     1      28.020   2.651   8.916  1.00  0.00    -0.384 OA
ENDBRANCH  11  12
ENDBRANCH  10  11
ENDBRANCH   9  10
BRANCH   9  17
HETATM   17  C16 UNL     1      27.324   5.129   3.603  1.00  0.00     0.438 C
HETATM   18  F4  UNL     1      27.066   4.778   2.281  1.00  0.00    -0.166 F
HETATM   19  F5  UNL     1      26.420   6.224   3.795  1.00  0.00    -0.166 F
HETATM   20  F6  UNL     1      28.560   5.664   3.686  1.00  0.00    -0.166 F
ENDBRANCH   9  17
BRANCH   1  21
HETATM   21  C5  UNL     1      28.282   2.150   3.529  1.00  0.00     0.156 C
BRANCH  21  22
HETATM   22  C4  UNL     1      28.767   0.953   4.323  1.00  0.00     0.189 C
BRANCH  22  23
HETATM   23  O1  UNL     1      29.971   0.480   3.790  1.00  0.00    -0.370 OA
BRANCH  23  24
HETATM   24  C2  UNL     1      29.845  -0.806   3.345  1.00  0.00     0.151 C
HETATM   25  C1  UNL     1      29.827  -0.749   1.794  1.00  0.00     0.055 C
HETATM   26  C3  UNL     1      28.480  -1.386   3.699  1.00  0.00     0.055 C
BRANCH  24  27
HETATM   27  C17 UNL     1      30.891  -1.798   3.690  1.00  0.00     0.417 C
HETATM   28  F7  UNL     1      31.827  -1.801   2.609  1.00  0.00    -0.168 F
HETATM   29  F8  UNL     1      30.440  -3.135   3.646  1.00  0.00    -0.168 F
HETATM   30  F9  UNL     1      31.603  -1.509   4.809  1.00  0.00    -0.168 F
ENDBRANCH  24  27
ENDBRANCH  23  24
ENDBRANCH  22  23
ENDBRANCH  21  22
ENDBRANCH   1  21
BRANCH   7  31
HETATM   31  C8  UNL     1      23.186   3.775   4.860  1.00  0.00     0.414 C
HETATM   32  F1  UNL     1      23.532   3.722   6.199  1.00  0.00    -0.168 F
HETATM   33  F2  UNL     1      22.591   2.568   4.530  1.00  0.00    -0.168 F
HETATM   34  F3  UNL     1      22.397   4.869   4.592  1.00  0.00    -0.168 F
ENDBRANCH   7  31
TORSDOF 10
ENDMDL