MODEL 1
REMARK VINA RESULT: -8.573659864      0.000      0.000
REMARK  11 active torsions:
REMARK  status: ('A' for Active; 'I' for Inactive)
REMARK       I    between atoms: C1_2  and  N1_3
REMARK    1  A    between atoms: C1_2  and  O4_27
REMARK    2  A    between atoms: N1_3  and  N2_5
REMARK       I    between atoms: N2_5  and  C2_7
REMARK    3  A    between atoms: C2_7  and  C3_9
REMARK    4  A    between atoms: C3_9  and  C4_10
REMARK    5  A    between atoms: C3_9  and  C12_20
REMARK    6  A    between atoms: C4_10  and  S1_11
REMARK    7  A    between atoms: S1_11  and  C5_12
REMARK    8  A    between atoms: C5_12  and  C6_14
REMARK    9  A    between atoms: C12_20  and  C13_23
REMARK   10  A    between atoms: O4_27  and  C14_28
REMARK   11  A    between atoms: C14_28  and  C15_29
ROOT
HETATM    1  C3  UNL     1      25.795   3.468   5.472  1.00  0.00     0.171 C
ENDROOT
BRANCH   1   2
HETATM    2  C2  UNL     1      26.256   2.256   4.666  1.00  0.00     0.247 C
HETATM    3  N2  UNL     1      27.584   2.133   4.204  1.00  0.00    -0.265 N
ATOM      4  H2  UNL     1      28.257   2.871   4.407  1.00  0.00     0.190 HD
HETATM    5  O2  UNL     1      25.442   1.337   4.399  1.00  0.00    -0.271 OA
BRANCH   3   6
HETATM    6  N1  UNL     1      27.993   0.996   3.463  1.00  0.00    -0.243 N
HETATM    7  C1  UNL     1      28.430  -0.164   4.161  1.00  0.00     0.379 C
HETATM    8  O1  UNL     1      28.458  -0.192   5.422  1.00  0.00    -0.237 OA
ATOM      9  H1  UNL     1      27.975   1.011   2.443  1.00  0.00     0.192 HD
BRANCH   7  10
HETATM   10  O4  UNL     1      28.847  -1.314   3.511  1.00  0.00    -0.294 OA
BRANCH  10  11
HETATM   11  C14 UNL     1      30.053  -1.378   2.775  1.00  0.00     0.297 C
BRANCH  11  12
HETATM   12  C15 UNL     1      31.097  -2.166   3.515  1.00  0.00     0.409 C
HETATM   13  F6  UNL     1      31.429  -1.558   4.717  1.00  0.00    -0.169 F
HETATM   14  F7  UNL     1      32.257  -2.121   2.731  1.00  0.00    -0.169 F
HETATM   15  F8  UNL     1      30.661  -3.461   3.687  1.00  0.00    -0.169 F
ENDBRANCH  11  12
ENDBRANCH  10  11
ENDBRANCH   7  10
ENDBRANCH   3   6
ENDBRANCH   1   2
BRANCH   1  16
HETATM   16  C4  UNL     1      27.023   4.104   6.085  1.00  0.00     0.103 C
BRANCH  16  17
HETATM   17  S1  UNL     1      27.451   3.453   7.684  1.00  0.00    -0.091 SA
BRANCH  17  18
HETATM   18  C5  UNL     1      28.862   2.376   7.570  1.00  0.00     0.190 C
HETATM   19  O3  UNL     1      29.587   2.560   6.580  1.00  0.00    -0.285 OA
BRANCH  18  20
HETATM   20  C6  UNL     1      29.145   1.348   8.572  1.00  0.00     0.067 C
HETATM   21  C7  UNL     1      30.611   1.114   8.844  1.00  0.00     0.013 C
HETATM   22  C8  UNL     1      30.741  -0.183   9.611  1.00  0.00     0.001 C
HETATM   23  C9  UNL     1      29.426  -0.706  10.124  1.00  0.00     0.000 C
HETATM   24  C10 UNL     1      28.629   0.403  10.770  1.00  0.00     0.001 C
HETATM   25  C11 UNL     1      28.522   1.645   9.934  1.00  0.00     0.013 C
ENDBRANCH  18  20
ENDBRANCH  17  18
ENDBRANCH  16  17
ENDBRANCH   1  16
BRANCH   1  26
HETATM   26  C12 UNL     1      25.021   4.373   4.557  1.00  0.00     0.352 C
HETATM   27  F1  UNL     1      25.430   4.165   3.229  1.00  0.00    -0.195 F
HETATM   28  F2  UNL     1      25.340   5.710   4.793  1.00  0.00    -0.195 F
BRANCH  26  29
HETATM   29  C13 UNL     1      23.541   4.157   4.624  1.00  0.00     0.455 C
HETATM   30  F3  UNL     1      23.251   3.510   5.810  1.00  0.00    -0.165 F
HETATM   31  F4  UNL     1      22.870   5.337   4.538  1.00  0.00    -0.165 F
HETATM   32  F5  UNL     1      23.146   3.312   3.554  1.00  0.00    -0.165 F
ENDBRANCH  26  29
ENDBRANCH   1  26
TORSDOF 11
ENDMDL