MODEL 3
REMARK VINA RESULT: -3.594589238      3.003      7.353
REMARK  8 active torsions:
REMARK  status: ('A' for Active; 'I' for Inactive)
REMARK    1  A    between atoms: C2_2  and  C3_3
REMARK    2  A    between atoms: C3_3  and  C4_4
REMARK    3  A    between atoms: C4_4  and  N1_5
REMARK    4  A    between atoms: N2_8  and  C7_9
REMARK    5  A    between atoms: C10_12  and  O1_13
REMARK    6  A    between atoms: C12_17  and  N4_18
REMARK    7  A    between atoms: C14_24  and  N6_25
REMARK    8  A    between atoms: N6_25  and  C15_27
ROOT
HETATM    1  C7  UNL     1      28.437   1.965   5.391  1.00  0.00     0.072 A
HETATM    2  C8  UNL     1      28.389   2.060   6.772  1.00  0.00     0.051 A
HETATM    3  C9  UNL     1      29.278   1.445   7.587  1.00  0.00     0.047 A
HETATM    4  C10 UNL     1      29.184   1.568   8.956  1.00  0.00     0.169 A
HETATM    5  N3  UNL     1      30.104   0.922   9.687  1.00  0.00    -0.170 N
ATOM      6  H3  UNL     1      30.050   1.002  10.702  1.00  0.00     0.186 HD
HETATM    7  C12 UNL     1      31.092   0.178   9.167  1.00  0.00     0.678 A
HETATM    8  N5  UNL     1      31.184   0.058   7.834  1.00  0.00    -0.189 N
ATOM      9  H5  UNL     1      31.931  -0.505   7.428  1.00  0.00     0.184 HD
HETATM   10  C13 UNL     1      30.300   0.674   7.029  1.00  0.00     0.093 A
HETATM   11  C14 UNL     1      30.405   0.540   5.658  1.00  0.00     0.098 A
HETATM   12  C17 UNL     1      29.472   1.186   4.877  1.00  0.00     0.171 A
HETATM   13  F1  UNL     1      29.568   1.058   3.535  1.00  0.00    -0.201 F
ENDROOT
BRANCH   1  14
HETATM   14  N2  UNL     1      27.510   2.611   4.592  1.00  0.00    -0.372 N
HETATM   15  C6  UNL     1      27.677   4.010   4.245  1.00  0.00     0.153 C
HETATM   16  C5  UNL     1      27.003   4.259   2.921  1.00  0.00     0.296 C
HETATM   17  N1  UNL     1      25.579   4.063   3.073  1.00  0.00     0.131 N
HETATM   18  C19 UNL     1      25.209   2.972   3.911  1.00  0.00     0.327 C
HETATM   19  C18 UNL     1      26.331   1.949   4.068  1.00  0.00     0.199 C
HETATM   20 CL1  UNL     1      23.821   2.135   3.202  1.00  0.00    -0.066 Cl
HETATM   21 CL2  UNL     1      24.760   3.462   5.571  1.00  0.00    -0.066 Cl
BRANCH  17  22
HETATM   22  C4  UNL     1      24.942   5.313   3.336  1.00  0.00     0.277 C
BRANCH  22  23
HETATM   23  C3  UNL     1      25.743   6.538   3.001  1.00  0.00     0.030 C
BRANCH  23  24
HETATM   24  C2  UNL     1      24.755   7.701   2.939  1.00  0.00    -0.003 C
HETATM   25  C1  UNL     1      23.906   7.775   4.186  1.00  0.00     0.005 C
ENDBRANCH  23  24
ENDBRANCH  22  23
ENDBRANCH  17  22
ENDBRANCH   1  14
BRANCH  11  26
HETATM   26  N6  UNL     1      31.452  -0.239   5.064  1.00  0.00    -0.386 N
ATOM     27  H6  UNL     1      32.370   0.185   4.927  1.00  0.00     0.159 HD
BRANCH  26  28
HETATM   28  C15 UNL     1      31.246  -1.592   4.659  1.00  0.00     0.115 C
HETATM   29  C16 UNL     1      30.658  -1.780   3.299  1.00  0.00     0.026 C
ENDBRANCH  26  28
ENDBRANCH  11  26
BRANCH   4  30
HETATM   30  O1  UNL     1      28.163   2.337   9.477  1.00  0.00    -0.340 OA
HETATM   31  C11 UNL     1      27.646   1.897  10.742  1.00  0.00     0.211 C
ENDBRANCH   4  30
BRANCH   7  32
HETATM   32  N4  UNL     1      31.952  -0.421   9.960  1.00  0.00    -0.234 N
ATOM     33  H42 UNL     1      32.815  -0.820   9.590  1.00  0.00     0.174 HD
ATOM     34  H41 UNL     1      31.761  -0.493  10.959  1.00  0.00     0.174 HD
ENDBRANCH   7  32
TORSDOF 8
ENDMDL