MODEL 3
REMARK VINA RESULT: -5.882500969      0.898      1.298
REMARK  9 active torsions:
REMARK  status: ('A' for Active; 'I' for Inactive)
REMARK    1  A    between atoms: C2_2  and  O1_3
REMARK    2  A    between atoms: O1_3  and  C3_4
REMARK    3  A    between atoms: C3_4  and  C4_5
REMARK    4  A    between atoms: C6_8  and  C7_9
REMARK    5  A    between atoms: C6_8  and  C8_12
REMARK    6  A    between atoms: C7_9  and  O2_10
REMARK    7  A    between atoms: C11_16  and  C12_17
REMARK    8  A    between atoms: C14_19  and  C15_20
REMARK    9  A    between atoms: C19_31  and  N5_32
ROOT
HETATM    1  C8  UNL     1      29.812   0.847   8.473  1.00  0.00     0.016 A
HETATM    2  C9  UNL     1      30.256   0.406   7.212  1.00  0.00     0.126 A
HETATM    3  F2  UNL     1      31.421  -0.335   7.092  1.00  0.00    -0.205 F
HETATM    4  C10 UNL     1      29.652   0.804   6.070  1.00  0.00     0.055 A
HETATM    5  C11 UNL     1      28.578   1.661   6.035  1.00  0.00    -0.018 A
HETATM    6  C20 UNL     1      28.133   2.105   7.237  1.00  0.00     0.037 A
HETATM    7  C21 UNL     1      28.732   1.708   8.440  1.00  0.00     0.045 A
HETATM    8 CL1  UNL     1      28.043   2.302   9.931  1.00  0.00    -0.084 Cl
ENDROOT
BRANCH   5   9
HETATM    9  C12 UNL     1      27.952   2.074   4.764  1.00  0.00     0.019 A
HETATM   10  C13 UNL     1      27.221   3.237   4.733  1.00  0.00     0.031 A
HETATM   11  C14 UNL     1      26.568   3.696   3.580  1.00  0.00     0.010 A
HETATM   12  C18 UNL     1      26.685   2.926   2.456  1.00  0.00     0.103 A
HETATM   13  N4  UNL     1      27.397   1.790   2.477  1.00  0.00    -0.351 N
HETATM   14  C19 UNL     1      28.028   1.354   3.602  1.00  0.00     0.109 A
ATOM     15  H4  UNL     1      27.467   1.234   1.624  1.00  0.00     0.166 HD
BRANCH  11  16
HETATM   16  C15 UNL     1      25.801   4.937   3.660  1.00  0.00     0.080 A
HETATM   17  C16 UNL     1      24.401   4.961   3.713  1.00  0.00     0.140 A
HETATM   18  N1  UNL     1      24.005   6.235   3.803  1.00  0.00    -0.295 N
HETATM   19  N2  UNL     1      25.044   6.992   3.809  1.00  0.00    -0.241 N
ATOM     20  H1  UNL     1      23.037   6.554   3.858  1.00  0.00     0.187 HD
HETATM   21  N3  UNL     1      26.142   6.215   3.723  1.00  0.00    -0.280 N
ATOM     22  H2  UNL     1      25.039   8.010   3.869  1.00  0.00     0.208 HD
HETATM   23  C17 UNL     1      27.480   6.752   3.722  1.00  0.00     0.179 C
ENDBRANCH  11  16
BRANCH  14  24
HETATM   24  N5  UNL     1      28.708   0.283   3.546  1.00  0.00    -0.385 N
ATOM     25  H52 UNL     1      28.556  -0.433   4.257  1.00  0.00     0.157 HD
ATOM     26  H51 UNL     1      29.380   0.130   2.793  1.00  0.00     0.157 HD
ENDBRANCH  14  24
ENDBRANCH   5   9
BRANCH   1  27
HETATM   27  C6  UNL     1      30.414   0.226   9.632  1.00  0.00     0.052 A
HETATM   28  C4  UNL     1      30.240   0.747  11.025  1.00  0.00     0.063 A
HETATM   29  C5  UNL     1      31.627   0.736  10.314  1.00  0.00     0.193 A
HETATM   30  F1  UNL     1      32.576  -0.151  10.794  1.00  0.00    -0.248 F
BRANCH  28  31
HETATM   31  C3  UNL     1      30.244  -0.135  12.225  1.00  0.00     0.183 C
BRANCH  31  32
HETATM   32  O1  UNL     1      29.010  -0.473  12.762  1.00  0.00    -0.363 OA
BRANCH  32  33
HETATM   33  C2  UNL     1      28.783  -1.257  13.853  1.00  0.00     0.124 C
HETATM   34  C1  UNL     1      28.822  -0.731  15.055  1.00  0.00     0.037 C
ENDBRANCH  32  33
ENDBRANCH  31  32
ENDBRANCH  28  31
BRANCH  27  35
HETATM   35  C7  UNL     1      30.236  -1.327   9.617  1.00  0.00     0.182 C
BRANCH  35  36
HETATM   36  O2  UNL     1      29.001  -1.822   9.796  1.00  0.00    -0.400 OA
ATOM     37  H2  UNL     1      28.400  -1.797   9.060  1.00  0.00     0.209 HD
ENDBRANCH  35  36
ENDBRANCH  27  35
ENDBRANCH   1  27
TORSDOF 9
ENDMDL