MODEL 3
REMARK VINA RESULT: -7.590985413      1.028      1.118
REMARK  9 active torsions:
REMARK  status: ('A' for Active; 'I' for Inactive)
REMARK    1  A    between atoms: N1_1  and  C1_4
REMARK    2  A    between atoms: C3_10  and  N4_11
REMARK    3  A    between atoms: C6_14  and  O1_15
REMARK    4  A    between atoms: O1_15  and  C7_16
REMARK    5  A    between atoms: C7_16  and  C8_17
REMARK    6  A    between atoms: C13_24  and  C14_25
REMARK    7  A    between atoms: C14_25  and  S1_26
REMARK    8  A    between atoms: S1_26  and  C15_27
REMARK    9  A    between atoms: C15_27  and  N5_28
ROOT
HETATM    1  N4  UNL     1      29.642   1.215  10.003  1.00  0.00    -0.366 N
HETATM    2  C4  UNL     1      28.900   1.974   9.070  1.00  0.00     0.127 C
HETATM    3  C5  UNL     1      29.852   2.358   7.949  1.00  0.00     0.052 C
HETATM    4  C6  UNL     1      30.308   1.066   7.256  1.00  0.00     0.131 C
HETATM    5  C16 UNL     1      30.792   0.077   8.216  1.00  0.00     0.052 C
HETATM    6  C17 UNL     1      31.009   0.733   9.594  1.00  0.00     0.127 C
ENDROOT
BRANCH   4   7
HETATM    7  O1  UNL     1      29.194   0.608   6.482  1.00  0.00    -0.357 OA
BRANCH   7   8
HETATM    8  C7  UNL     1      29.416   1.105   5.210  1.00  0.00     0.147 C
BRANCH   8   9
HETATM    9  C8  UNL     1      28.422   1.941   4.613  1.00  0.00    -0.005 A
HETATM   10  C9  UNL     1      28.474   3.302   4.566  1.00  0.00     0.041 A
HETATM   11  C10 UNL     1      27.475   4.069   3.976  1.00  0.00     0.073 A
HETATM   12 CL1  UNL     1      27.568   5.814   3.778  1.00  0.00    -0.081 Cl
HETATM   13  C11 UNL     1      26.394   3.436   3.430  1.00  0.00     0.138 A
HETATM   14  F1  UNL     1      25.368   4.143   2.867  1.00  0.00    -0.204 F
HETATM   15  C12 UNL     1      26.381   2.059   3.493  1.00  0.00     0.052 A
HETATM   16  C13 UNL     1      27.333   1.257   4.038  1.00  0.00    -0.034 A
BRANCH  16  17
HETATM   17  C14 UNL     1      27.203  -0.187   4.093  1.00  0.00     0.115 C
BRANCH  17  18
HETATM   18  S1  UNL     1      28.161  -0.931   2.773  1.00  0.00    -0.138 SA
BRANCH  18  19
HETATM   19  C15 UNL     1      29.888  -0.967   2.920  1.00  0.00     0.303 C
BRANCH  19  20
HETATM   20  N5  UNL     1      30.392  -2.208   3.583  1.00  0.00    -0.071 N
ATOM     21  H53 UNL     1      29.695  -2.586   4.225  1.00  0.00     0.275 HD
ATOM     22  H52 UNL     1      30.443  -2.981   2.919  1.00  0.00     0.275 HD
ATOM     23  H51 UNL     1      31.286  -2.073   4.055  1.00  0.00     0.275 HD
ENDBRANCH  19  20
ENDBRANCH  18  19
ENDBRANCH  17  18
ENDBRANCH  16  17
ENDBRANCH   8   9
ENDBRANCH   7   8
ENDBRANCH   4   7
BRANCH   1  24
HETATM   24  C3  UNL     1      29.235   0.834  11.306  1.00  0.00     0.130 A
HETATM   25  N3  UNL     1      27.938   1.145  11.574  1.00  0.00    -0.337 N
HETATM   26  C2  UNL     1      27.348   0.788  12.724  1.00  0.00     0.183 A
ATOM     27  H3  UNL     1      27.400   1.665  10.881  1.00  0.00     0.168 HD
HETATM   28  N2  UNL     1      28.039   0.107  13.637  1.00  0.00    -0.337 N
HETATM   29  C1  UNL     1      29.336  -0.219  13.406  1.00  0.00     0.125 A
ATOM     30  H2  UNL     1      27.592  -0.170  14.512  1.00  0.00     0.168 HD
HETATM   31  C18 UNL     1      29.956   0.151  12.221  1.00  0.00     0.121 A
HETATM   32 CL2  UNL     1      31.606  -0.268  11.917  1.00  0.00    -0.076 Cl
BRANCH  29  33
HETATM   33  N1  UNL     1      29.945  -0.886  14.314  1.00  0.00    -0.384 N
ATOM     34  H12 UNL     1      29.610  -1.794  14.637  1.00  0.00     0.157 HD
ATOM     35  H11 UNL     1      30.782  -0.469  14.720  1.00  0.00     0.157 HD
ENDBRANCH  29  33
ENDBRANCH   1  24
TORSDOF 9
ENDMDL