MODEL 5
REMARK VINA RESULT: -4.597827693      3.421      6.782
REMARK  9 active torsions:
REMARK  status: ('A' for Active; 'I' for Inactive)
REMARK    1  A    between atoms: C4_4  and  C5_5
REMARK    2  A    between atoms: C5_5  and  C6_6
REMARK    3  A    between atoms: C8_10  and  C9_11
REMARK    4  A    between atoms: C9_11  and  N2_12
REMARK    5  A    between atoms: C12_17  and  N4_18
REMARK    6  A    between atoms: N6_24  and  C14_25
REMARK    7  A    between atoms: C14_25  and  C15_26
REMARK    8  A    between atoms: C15_26  and  C16_27
REMARK    9  A    between atoms: C16_27  and  N7_28
ROOT
HETATM    1  C6  UNL     1      28.060   3.866   4.381  1.00  0.00     0.089 A
HETATM    2  N1  UNL     1      28.701   3.506   5.537  1.00  0.00    -0.341 N
ATOM      3  H1  UNL     1      28.790   4.097   6.364  1.00  0.00     0.167 HD
HETATM    4  C7  UNL     1      29.196   2.266   5.424  1.00  0.00     0.104 A
HETATM    5  C8  UNL     1      29.907   1.413   6.236  1.00  0.00     0.085 A
HETATM    6  N3  UNL     1      30.278   0.171   5.828  1.00  0.00    -0.192 N
ATOM      7  H3  UNL     1      30.806  -0.452   6.439  1.00  0.00     0.184 HD
HETATM    8  C12 UNL     1      29.924  -0.202   4.593  1.00  0.00     0.677 A
HETATM    9  N5  UNL     1      29.222   0.622   3.776  1.00  0.00    -0.174 N
ATOM     10  H5  UNL     1      28.972   0.296   2.842  1.00  0.00     0.186 HD
HETATM   11  C13 UNL     1      28.841   1.864   4.159  1.00  0.00     0.153 A
HETATM   12  N6  UNL     1      28.145   2.859   3.532  1.00  0.00    -0.320 N
ENDROOT
BRANCH   1  13
HETATM   13  C5  UNL     1      27.430   5.191   4.162  1.00  0.00     0.117 C
BRANCH  13  14
HETATM   14  C4  UNL     1      25.946   5.141   4.078  1.00  0.00    -0.029 A
HETATM   15  C3  UNL     1      25.256   4.098   4.722  1.00  0.00     0.017 A
HETATM   16  C2  UNL     1      23.890   3.968   4.691  1.00  0.00    -0.040 A
HETATM   17  C1  UNL     1      23.180   2.851   5.384  1.00  0.00     0.050 C
HETATM   18  C19 UNL     1      23.115   4.878   4.012  1.00  0.00     0.041 A
HETATM   19  C18 UNL     1      23.772   5.905   3.376  1.00  0.00     0.048 A
HETATM   20 CL2  UNL     1      21.370   4.714   3.972  1.00  0.00    -0.084 Cl
HETATM   21  C17 UNL     1      25.168   6.045   3.402  1.00  0.00     0.042 A
HETATM   22 CL1  UNL     1      25.887   7.402   2.561  1.00  0.00    -0.084 Cl
ENDBRANCH  13  14
ENDBRANCH   1  13
BRANCH  12  23
HETATM   23  C14 UNL     1      27.677   2.717   2.182  1.00  0.00     0.133 C
BRANCH  23  24
HETATM   24  C15 UNL     1      26.877   1.435   1.992  1.00  0.00     0.047 C
BRANCH  24  25
HETATM   25  C16 UNL     1      25.604   1.579   2.796  1.00  0.00     0.231 C
BRANCH  25  26
HETATM   26  N7  UNL     1      25.587   0.678   3.932  1.00  0.00    -0.079 N
ATOM     27  H73 UNL     1      26.191  -0.130   3.777  1.00  0.00     0.274 HD
ATOM     28  H72 UNL     1      26.067   1.082   4.737  1.00  0.00     0.274 HD
ATOM     29  H71 UNL     1      24.637   0.392   4.169  1.00  0.00     0.274 HD
ENDBRANCH  25  26
ENDBRANCH  24  25
ENDBRANCH  23  24
ENDBRANCH  12  23
BRANCH   5  30
HETATM   30  C9  UNL     1      30.246   1.927   7.588  1.00  0.00     0.331 C
BRANCH  30  31
HETATM   31  N2  UNL     1      29.673   1.016   8.575  1.00  0.00     0.085 N
HETATM   32  C10 UNL     1      28.753   1.720   9.454  1.00  0.00     0.309 C
HETATM   33  C11 UNL     1      30.774   0.555   9.432  1.00  0.00     0.309 C
ENDBRANCH  30  31
ENDBRANCH   5  30
BRANCH   8  34
HETATM   34  N4  UNL     1      30.239  -1.351   4.150  1.00  0.00    -0.234 N
ATOM     35  H42 UNL     1      30.866  -1.924   4.715  1.00  0.00     0.174 HD
ATOM     36  H41 UNL     1      29.873  -1.681   3.257  1.00  0.00     0.174 HD
ENDBRANCH   8  34
TORSDOF 9
ENDMDL