MODEL 4
REMARK VINA RESULT: -6.413836946      4.635      8.031
REMARK  8 active torsions:
REMARK  status: ('A' for Active; 'I' for Inactive)
REMARK    1  A    between atoms: C2_2  and  N1_3
REMARK    2  A    between atoms: C5_8  and  C6_9
REMARK    3  A    between atoms: N3_20  and  C14_21
REMARK    4  A    between atoms: C14_21  and  C15_22
REMARK    5  A    between atoms: C15_22  and  C16_23
REMARK    6  A    between atoms: C16_23  and  O1_24
REMARK    7  A    between atoms: O1_24  and  N4_25
REMARK    8  A    between atoms: C18_30  and  N7_31
ROOT
HETATM    1  N1  UNL     1      29.670   0.524   4.010  1.00  0.00    -0.192 N
HETATM    2  C3  UNL     1      29.916  -0.205   5.095  1.00  0.00     0.140 A
HETATM    3  C4  UNL     1      29.686   0.327   6.353  1.00  0.00     0.076 A
HETATM    4  N2  UNL     1      29.826  -0.059   7.599  1.00  0.00    -0.352 N
ATOM      5  H2  UNL     1      30.170  -0.979   7.871  1.00  0.00     0.166 HD
HETATM    6  C5  UNL     1      29.457   0.913   8.494  1.00  0.00     0.047 A
HETATM    7  C12 UNL     1      29.060   1.974   7.742  1.00  0.00     0.063 A
HETATM    8  C13 UNL     1      29.170   1.692   6.387  1.00  0.00     0.082 A
HETATM    9  N3  UNL     1      28.936   2.384   5.268  1.00  0.00    -0.181 N
HETATM   10  C18 UNL     1      29.187   1.802   4.076  1.00  0.00     0.680 A
ENDROOT
BRANCH   6  11
HETATM   11  C6  UNL     1      29.523   0.745   9.944  1.00  0.00     0.017 A
HETATM   12  C7  UNL     1      28.361   0.950  10.701  1.00  0.00     0.039 A
HETATM   13  C8  UNL     1      28.297   0.830  12.046  1.00  0.00     0.037 A
HETATM   14 CL1  UNL     1      26.798   1.107  12.891  1.00  0.00    -0.084 Cl
HETATM   15  C9  UNL     1      29.462   0.481  12.717  1.00  0.00     0.068 A
HETATM   16  C10 UNL     1      30.630   0.267  12.040  1.00  0.00     0.140 A
HETATM   17  F1  UNL     1      31.751  -0.073  12.715  1.00  0.00    -0.204 F
HETATM   18  C11 UNL     1      30.630   0.405  10.658  1.00  0.00     0.085 A
HETATM   19 CL2  UNL     1      32.170   0.120   9.881  1.00  0.00    -0.080 Cl
ENDBRANCH   6  11
BRANCH   9  20
HETATM   20  C14 UNL     1      28.372   3.707   5.342  1.00  0.00     0.150 C
BRANCH  20  21
HETATM   21  C15 UNL     1      27.609   4.065   4.127  1.00  0.00     0.049 C
BRANCH  21  22
HETATM   22  C16 UNL     1      27.685   5.440   3.602  1.00  0.00     0.203 C
BRANCH  22  23
HETATM   23  O1  UNL     1      26.564   5.888   2.909  1.00  0.00    -0.278 OA
BRANCH  23  24
HETATM   24  N4  UNL     1      25.824   6.934   3.361  1.00  0.00    -0.241 N
HETATM   25  C17 UNL     1      24.633   6.850   3.809  1.00  0.00     0.221 C
HETATM   26  N5  UNL     1      23.890   5.638   3.905  1.00  0.00    -0.065 NA
HETATM   27  N6  UNL     1      23.968   8.042   4.255  1.00  0.00    -0.065 NA
ATOM     28  H4  UNL     1      26.254   7.859   3.341  1.00  0.00     0.196 HD
ENDBRANCH  23  24
ENDBRANCH  22  23
ENDBRANCH  21  22
ENDBRANCH  20  21
ENDBRANCH   9  20
BRANCH   1  29
HETATM   29  C2  UNL     1      29.916  -0.040   2.684  1.00  0.00     0.142 C
HETATM   30  C1  UNL     1      30.257  -1.513   2.811  1.00  0.00     0.027 C
ENDBRANCH   1  29
BRANCH  10  31
HETATM   31  N7  UNL     1      28.994   2.431   2.982  1.00  0.00    -0.234 N
ATOM     32  H72 UNL     1      29.544   2.221   2.150  1.00  0.00     0.174 HD
ATOM     33  H71 UNL     1      28.264   3.144   2.959  1.00  0.00     0.174 HD
ENDBRANCH  10  31
TORSDOF 8
ENDMDL