MODEL 1
REMARK VINA RESULT: -4.910704524      0.000      0.000
REMARK  8 active torsions:
REMARK  status: ('A' for Active; 'I' for Inactive)
REMARK    1  A    between atoms: O1_1  and  N1_3
REMARK       I    between atoms: C1_5  and  N2_6
REMARK       I    between atoms: C1_5  and  N6_28
REMARK    2  A    between atoms: N2_6  and  C2_8
REMARK    3  A    between atoms: C3_11  and  C4_12
REMARK    4  A    between atoms: N5_19  and  C8_20
REMARK    5  A    between atoms: N6_28  and  C14_30
REMARK    6  A    between atoms: C14_30  and  C15_31
REMARK    7  A    between atoms: C15_31  and  C16_32
REMARK    8  A    between atoms: C16_32  and  C17_33
ROOT
HETATM    1  C2  UNL     1      27.563   1.827   4.964  1.00  0.00     0.720 A
HETATM    2  N3  UNL     1      28.356   1.209   5.852  1.00  0.00    -0.174 N
ATOM      3  H3  UNL     1      28.479   0.199   5.919  1.00  0.00     0.185 HD
HETATM    4  C3  UNL     1      28.965   2.110   6.640  1.00  0.00     0.142 A
HETATM    5  N4  UNL     1      28.517   3.320   6.207  1.00  0.00    -0.265 N
ATOM      6  H4  UNL     1      28.789   4.223   6.598  1.00  0.00     0.189 HD
HETATM    7  N5  UNL     1      27.676   3.146   5.200  1.00  0.00    -0.083 N
ENDROOT
BRANCH   1   8
HETATM    8  N2  UNL     1      26.828   1.305   4.056  1.00  0.00    -0.019 N
HETATM    9  C1  UNL     1      27.102   1.227   2.682  1.00  0.00     0.712 C
HETATM   10  N1  UNL     1      26.173   1.446   1.831  1.00  0.00    -0.098 N
HETATM   11  N6  UNL     1      28.400   0.907   2.237  1.00  0.00    -0.224 N
ATOM     12  H1  UNL     1      26.391   1.384   0.837  1.00  0.00     0.213 HD
ATOM     13  H6  UNL     1      29.134   1.610   2.325  1.00  0.00     0.177 HD
ATOM     14  H2  UNL     1      25.945   0.900   4.366  1.00  0.00     0.203 HD
BRANCH  10  15
HETATM   15  O1  UNL     1      24.890   1.762   2.214  1.00  0.00    -0.276 OA
ATOM     16  H1  UNL     1      24.170   1.790   1.594  1.00  0.00     0.245 HD
ENDBRANCH  10  15
BRANCH  11  17
HETATM   17  C14 UNL     1      28.739  -0.378   1.661  1.00  0.00     0.138 C
BRANCH  17  18
HETATM   18  C15 UNL     1      29.234  -1.337   2.724  1.00  0.00     0.021 C
BRANCH  18  19
HETATM   19  C16 UNL     1      30.022  -0.597   3.786  1.00  0.00     0.017 C
BRANCH  19  20
HETATM   20  C17 UNL     1      31.204  -1.473   4.173  1.00  0.00     0.114 C
HETATM   21 CL3  UNL     1      30.993  -3.081   3.455  1.00  0.00    -0.130 Cl
ENDBRANCH  19  20
ENDBRANCH  18  19
ENDBRANCH  17  18
ENDBRANCH  11  17
ENDBRANCH   1   8
BRANCH   7  22
HETATM   22  C8  UNL     1      27.029   4.222   4.519  1.00  0.00     0.096 A
HETATM   23  C9  UNL     1      27.785   5.138   3.827  1.00  0.00     0.036 A
HETATM   24  C10 UNL     1      27.148   6.172   3.176  1.00  0.00     0.026 A
HETATM   25  C11 UNL     1      25.775   6.313   3.198  1.00  0.00     0.035 A
HETATM   26 CL1  UNL     1      24.961   7.632   2.368  1.00  0.00    -0.084 Cl
HETATM   27  C12 UNL     1      25.010   5.392   3.893  1.00  0.00     0.050 A
HETATM   28  C13 UNL     1      25.646   4.357   4.546  1.00  0.00     0.065 A
HETATM   29 CL2  UNL     1      24.703   3.188   5.425  1.00  0.00    -0.082 Cl
ENDBRANCH   7  22
BRANCH   4  30
HETATM   30  C4  UNL     1      29.933   1.876   7.762  1.00  0.00     0.190 C
HETATM   31  C5  UNL     1      30.508   0.476   7.691  1.00  0.00     0.042 C
HETATM   32  C6  UNL     1      30.795   0.228   9.159  1.00  0.00     0.029 C
HETATM   33  C7  UNL     1      29.639   0.961   9.801  1.00  0.00     0.168 C
HETATM   34  O2  UNL     1      29.308   2.012   8.990  1.00  0.00    -0.378 OA
ENDBRANCH   4  30
TORSDOF 8
ENDMDL