MODEL 1
REMARK VINA RESULT: -7.223342512      0.000      0.000
REMARK  11 active torsions:
REMARK  status: ('A' for Active; 'I' for Inactive)
REMARK    1  A    between atoms: C2_2  and  C3_3
REMARK    2  A    between atoms: C3_3  and  C4_4
REMARK    3  A    between atoms: C4_4  and  C5_5
REMARK    4  A    between atoms: C5_5  and  C6_6
REMARK    5  A    between atoms: C6_6  and  N1_7
REMARK    6  A    between atoms: N1_7  and  C7_9
REMARK    7  A    between atoms: C8_12  and  N3_13
REMARK    8  A    between atoms: C11_16  and  O1_17
REMARK    9  A    between atoms: C15_22  and  N4_23
REMARK   10  A    between atoms: C17_25  and  C19_27
REMARK   11  A    between atoms: C21_32  and  N5_33
ROOT
HETATM    1  C7  UNL     1      30.068   0.585   5.479  1.00  0.00     0.681 A
HETATM    2  N2  UNL     1      30.185   0.655   6.814  1.00  0.00    -0.177 N
ATOM      3  H2  UNL     1      30.889   0.072   7.267  1.00  0.00     0.185 HD
HETATM    4  C8  UNL     1      29.425   1.449   7.588  1.00  0.00     0.122 A
HETATM    5  C14 UNL     1      28.490   2.223   6.984  1.00  0.00     0.097 A
HETATM    6  C15 UNL     1      28.323   2.193   5.600  1.00  0.00     0.124 A
HETATM    7  N6  UNL     1      29.131   1.368   4.921  1.00  0.00    -0.177 N
ATOM      8  H6  UNL     1      29.026   1.331   3.907  1.00  0.00     0.185 HD
ENDROOT
BRANCH   6   9
HETATM    9  N4  UNL     1      27.348   2.999   4.956  1.00  0.00    -0.338 N
HETATM   10  C16 UNL     1      25.920   2.856   5.085  1.00  0.00     0.145 C
HETATM   11  C17 UNL     1      25.357   3.611   3.928  1.00  0.00     0.074 C
HETATM   12  C18 UNL     1      25.381   2.744   2.687  1.00  0.00     0.026 C
HETATM   13  C20 UNL     1      26.321   4.753   3.751  1.00  0.00     0.074 C
HETATM   14  C21 UNL     1      27.647   4.096   4.066  1.00  0.00     0.286 C
BRANCH  11  15
HETATM   15  C19 UNL     1      23.967   4.136   4.210  1.00  0.00     0.396 C
HETATM   16  F1  UNL     1      23.703   3.879   5.554  1.00  0.00    -0.170 F
HETATM   17  F2  UNL     1      23.982   5.494   3.961  1.00  0.00    -0.170 F
HETATM   18  F3  UNL     1      23.087   3.451   3.424  1.00  0.00    -0.170 F
ENDBRANCH  11  15
BRANCH  14  19
HETATM   19  N5  UNL     1      28.339   3.675   2.864  1.00  0.00    -0.058 N
ATOM     20  H53 UNL     1      27.700   3.209   2.220  1.00  0.00     0.276 HD
ATOM     21  H52 UNL     1      28.597   4.479   2.292  1.00  0.00     0.276 HD
ATOM     22  H51 UNL     1      29.152   3.090   3.058  1.00  0.00     0.276 HD
ENDBRANCH  14  19
ENDBRANCH   6   9
BRANCH   4  23
HETATM   23  N3  UNL     1      29.631   1.445   8.982  1.00  0.00    -0.367 N
HETATM   24  C9  UNL     1      28.726   1.983   9.960  1.00  0.00     0.127 C
HETATM   25  C10 UNL     1      28.271   0.824  10.830  1.00  0.00     0.051 C
HETATM   26  C11 UNL     1      29.439   0.065  11.413  1.00  0.00     0.121 C
HETATM   27  C12 UNL     1      30.459  -0.311  10.377  1.00  0.00     0.051 C
HETATM   28  C13 UNL     1      30.858   0.850   9.506  1.00  0.00     0.127 C
BRANCH  26  29
HETATM   29  O1  UNL     1      28.913  -1.141  11.927  1.00  0.00    -0.395 OA
ATOM     30  H1  UNL     1      29.492  -1.405  12.633  1.00  0.00     0.210 HD
ENDBRANCH  26  29
ENDBRANCH   4  23
BRANCH   1  31
HETATM   31  N1  UNL     1      30.841  -0.203   4.849  1.00  0.00    -0.226 N
ATOM     32  H1  UNL     1      31.842  -0.071   5.001  1.00  0.00     0.177 HD
BRANCH  31  33
HETATM   33  C6  UNL     1      30.473  -1.246   3.956  1.00  0.00     0.138 C
BRANCH  33  34
HETATM   34  C5  UNL     1      29.998  -0.584   2.655  1.00  0.00     0.020 C
BRANCH  34  35
HETATM   35  C4  UNL     1      28.592  -1.057   2.425  1.00  0.00     0.002 C
BRANCH  35  36
HETATM   36  C3  UNL     1      27.627   0.041   2.740  1.00  0.00    -0.000 C
BRANCH  36  37
HETATM   37  C2  UNL     1      26.593  -0.345   3.751  1.00  0.00    -0.005 C
HETATM   38  C1  UNL     1      26.822  -1.793   4.152  1.00  0.00     0.005 C
ENDBRANCH  36  37
ENDBRANCH  35  36
ENDBRANCH  34  35
ENDBRANCH  33  34
ENDBRANCH  31  33
ENDBRANCH   1  31
TORSDOF 11
ENDMDL