MODEL 3
REMARK VINA RESULT: -8.972448801      1.329      1.680
REMARK  9 active torsions:
REMARK  status: ('A' for Active; 'I' for Inactive)
REMARK    1  A    between atoms: N1_1  and  C1_4
REMARK    2  A    between atoms: C2_9  and  S1_10
REMARK    3  A    between atoms: S1_10  and  C3_11
REMARK    4  A    between atoms: C3_11  and  C4_12
REMARK    5  A    between atoms: C4_12  and  O1_13
REMARK    6  A    between atoms: C4_12  and  C5_15
REMARK    7  A    between atoms: C5_15  and  N4_16
REMARK    8  A    between atoms: C8_19  and  C9_20
REMARK    9  A    between atoms: C9_20  and  C10_21
ROOT
HETATM    1  N4  UNL     1      29.379   1.250   5.093  1.00  0.00    -0.410 N
HETATM    2  C6  UNL     1      28.712   2.482   5.351  1.00  0.00     0.117 C
HETATM    3  C7  UNL     1      27.216   2.352   5.217  1.00  0.00     0.024 C
HETATM    4  C8  UNL     1      26.779   1.784   3.902  1.00  0.00    -0.007 C
HETATM    5  C16 UNL     1      27.738   0.675   3.491  1.00  0.00     0.024 C
HETATM    6  C17 UNL     1      28.526   0.175   4.714  1.00  0.00     0.117 C
ENDROOT
BRANCH   1   7
HETATM    7  C5  UNL     1      30.454   0.947   5.970  1.00  0.00     0.149 C
BRANCH   7   8
HETATM    8  C4  UNL     1      30.088   0.667   7.391  1.00  0.00     0.145 C
BRANCH   8   9
HETATM    9  C3  UNL     1      29.873   1.975   8.106  1.00  0.00     0.114 C
BRANCH   9  10
HETATM   10  S1  UNL     1      28.407   1.881   9.200  1.00  0.00    -0.101 SA
BRANCH  10  11
HETATM   11  C2  UNL     1      28.969   1.032  10.690  1.00  0.00     0.130 A
HETATM   12  N3  UNL     1      30.071   0.334  10.892  1.00  0.00    -0.286 N
HETATM   13  N2  UNL     1      30.303  -0.199  12.018  1.00  0.00    -0.279 N
ATOM     14  H3  UNL     1      30.745   0.224  10.134  1.00  0.00     0.188 HD
HETATM   15  C1  UNL     1      29.408  -0.042  13.000  1.00  0.00     0.159 A
ATOM     16  H2  UNL     1      31.154  -0.738  12.172  1.00  0.00     0.189 HD
HETATM   17  S2  UNL     1      28.212   0.911  12.233  1.00  0.00    -0.027 SA
BRANCH  15  18
HETATM   18  N1  UNL     1      29.469  -0.516  14.226  1.00  0.00    -0.379 N
ATOM     19  H12 UNL     1      29.869  -1.383  14.583  1.00  0.00     0.158 HD
ATOM     20  H11 UNL     1      29.114  -0.083  15.078  1.00  0.00     0.158 HD
ENDBRANCH  15  18
ENDBRANCH  10  11
ENDBRANCH   9  10
ENDBRANCH   8   9
BRANCH   8  21
HETATM   21  O1  UNL     1      31.104  -0.031   8.030  1.00  0.00    -0.393 OA
ATOM     22  H1  UNL     1      31.599  -0.515   7.379  1.00  0.00     0.210 HD
ENDBRANCH   8  21
ENDBRANCH   7   8
ENDBRANCH   1   7
BRANCH   4  23
HETATM   23  C9  UNL     1      26.778   2.821   2.792  1.00  0.00     0.045 C
BRANCH  23  24
HETATM   24  C10 UNL     1      26.058   4.057   3.179  1.00  0.00    -0.033 A
HETATM   25  C11 UNL     1      26.730   5.260   3.169  1.00  0.00     0.012 A
HETATM   26  C12 UNL     1      26.085   6.448   3.528  1.00  0.00     0.046 A
HETATM   27  C13 UNL     1      24.755   6.415   3.900  1.00  0.00     0.156 A
HETATM   28  F1  UNL     1      24.102   7.546   4.252  1.00  0.00    -0.203 F
HETATM   29  C14 UNL     1      24.070   5.220   3.915  1.00  0.00     0.176 A
HETATM   30  F2  UNL     1      22.755   5.158   4.277  1.00  0.00    -0.201 F
HETATM   31  C15 UNL     1      24.733   4.044   3.553  1.00  0.00     0.082 A
HETATM   32 CL1  UNL     1      23.818   2.556   3.590  1.00  0.00    -0.080 Cl
ENDBRANCH  23  24
ENDBRANCH   4  23
TORSDOF 9
ENDMDL