MODEL 3
REMARK VINA RESULT: -9.066189014      2.561      3.207
REMARK  9 active torsions:
REMARK  status: ('A' for Active; 'I' for Inactive)
REMARK    1  A    between atoms: N1_1  and  C1_4
REMARK    2  A    between atoms: C2_7  and  C3_8
REMARK    3  A    between atoms: C3_8  and  C4_9
REMARK    4  A    between atoms: C6_13  and  N4_14
REMARK    5  A    between atoms: N4_14  and  C7_16
REMARK    6  A    between atoms: C7_16  and  C8_17
REMARK    7  A    between atoms: C12_25  and  C13_26
REMARK    8  A    between atoms: C18_32  and  O1_33
REMARK    9  A    between atoms: O1_33  and  C19_34
ROOT
HETATM    1  C1  UNL     1      26.794  -0.311   4.226  1.00  0.00     0.222 A
HETATM    2  N2  UNL     1      27.951   0.245   4.599  1.00  0.00    -0.323 N
ATOM      3  H2  UNL     1      28.818  -0.255   4.798  1.00  0.00     0.169 HD
HETATM    4  C2  UNL     1      27.769   1.607   4.666  1.00  0.00     0.053 A
HETATM    5  C12 UNL     1      26.480   1.858   4.321  1.00  0.00     0.115 A
HETATM    6  O2  UNL     1      25.940   0.636   4.067  1.00  0.00    -0.277 OA
ENDROOT
BRANCH   4   7
HETATM    7  C3  UNL     1      28.828   2.494   5.142  1.00  0.00     0.120 C
BRANCH   7   8
HETATM    8  C4  UNL     1      29.417   1.916   6.414  1.00  0.00     0.048 A
HETATM    9  C5  UNL     1      29.150   2.492   7.625  1.00  0.00     0.133 A
HETATM   10  N3  UNL     1      29.693   1.952   8.760  1.00  0.00    -0.199 N
HETATM   11  C6  UNL     1      30.480   0.869   8.701  1.00  0.00     0.692 A
ATOM     12  H3  UNL     1      29.497   2.380   9.664  1.00  0.00     0.183 HD
HETATM   13  N5  UNL     1      30.722   0.329   7.492  1.00  0.00    -0.132 N
HETATM   14  N6  UNL     1      30.210   0.829   6.373  1.00  0.00    -0.289 N
ATOM     15  H5  UNL     1      31.321  -0.495   7.433  1.00  0.00     0.205 HD
ATOM     16  H6  UNL     1      30.419   0.387   5.478  1.00  0.00     0.187 HD
BRANCH  11  17
HETATM   17  N4  UNL     1      31.017   0.311   9.758  1.00  0.00    -0.224 N
ATOM     18  H4  UNL     1      32.026   0.319   9.912  1.00  0.00     0.177 HD
BRANCH  17  19
HETATM   19  C7  UNL     1      30.117  -0.313  10.692  1.00  0.00     0.142 C
BRANCH  19  20
HETATM   20  C8  UNL     1      29.975   0.367  12.002  1.00  0.00     0.004 C
HETATM   21  C9  UNL     1      28.562   0.469  12.544  1.00  0.00     0.006 C
HETATM   22  C10 UNL     1      28.955  -0.507  13.628  1.00  0.00     0.001 C
HETATM   23  C11 UNL     1      30.411  -0.331  13.241  1.00  0.00     0.006 C
ENDBRANCH  19  20
ENDBRANCH  17  19
ENDBRANCH  11  17
ENDBRANCH   7   8
ENDBRANCH   4   7
BRANCH   5  24
HETATM   24  C13 UNL     1      25.675   3.061   4.207  1.00  0.00     0.035 A
HETATM   25  C14 UNL     1      24.271   2.905   4.212  1.00  0.00     0.041 A
HETATM   26  C15 UNL     1      23.393   3.918   4.031  1.00  0.00     0.035 A
HETATM   27 CL1  UNL     1      21.658   3.605   4.051  1.00  0.00    -0.084 Cl
HETATM   28  C16 UNL     1      23.854   5.190   3.828  1.00  0.00     0.026 A
HETATM   29  C17 UNL     1      25.198   5.398   3.814  1.00  0.00     0.039 A
HETATM   30  C18 UNL     1      26.110   4.324   4.003  1.00  0.00     0.088 A
BRANCH  30  31
HETATM   31  O1  UNL     1      27.437   4.598   3.964  1.00  0.00    -0.289 OA
BRANCH  31  32
HETATM   32  C19 UNL     1      28.146   5.551   3.275  1.00  0.00     0.505 C
HETATM   33  F1  UNL     1      27.896   6.801   3.872  1.00  0.00    -0.184 F
HETATM   34  F2  UNL     1      27.673   5.605   1.966  1.00  0.00    -0.184 F
ENDBRANCH  31  32
ENDBRANCH  30  31
ENDBRANCH   5  24
BRANCH   1  35
HETATM   35  N1  UNL     1      26.631  -1.602   4.072  1.00  0.00    -0.365 N
ATOM     36  H12 UNL     1      27.206  -2.368   4.425  1.00  0.00     0.159 HD
ATOM     37  H11 UNL     1      25.859  -2.011   3.546  1.00  0.00     0.159 HD
ENDBRANCH   1  35
TORSDOF 9
ENDMDL