MODEL 5
REMARK VINA RESULT: -6.425618504      2.273      4.358
REMARK  0 active torsions:
REMARK  status: ('A' for Active; 'I' for Inactive)
ROOT
HETATM    1  C1  UNL     1      14.824  10.357  -6.649  1.00  0.00     0.003 C
HETATM    2  C2  UNL     1      15.774   9.258  -7.000  1.00  0.00     0.032 C
HETATM    3  C3  UNL     1      16.501   9.750  -8.218  1.00  0.00     0.129 C
HETATM    4  O1  UNL     1      15.693   9.972  -9.338  1.00  0.00    -0.374 OA
HETATM    5  C4  UNL     1      16.496  11.120  -9.569  1.00  0.00     0.070 C
HETATM    6  C5  UNL     1      15.748  12.234 -10.173  1.00  0.00     0.066 C
HETATM    7  C6  UNL     1      16.433  12.996 -11.245  1.00  0.00     0.235 C
HETATM    8  N1  UNL     1      17.278  12.191 -12.099  1.00  0.00    -0.075 N
ATOM      9  H11 UNL     1      17.651  12.702 -12.899  1.00  0.00     0.277 HD
ATOM     10  H12 UNL     1      16.766  11.487 -12.630  1.00  0.00     0.277 HD
HETATM   11  C7  UNL     1      18.304  11.634 -11.242  1.00  0.00     0.235 C
HETATM   12  C8  UNL     1      17.765  10.720 -10.207  1.00  0.00     0.066 C
HETATM   13  C9  UNL     1      16.530  11.241  -8.045  1.00  0.00     0.049 C
HETATM   14  C10 UNL     1      15.182  11.555  -7.510  1.00  0.00     0.010 C
ENDROOT
TORSDOF 0
ENDMDL