MODEL 1
REMARK VINA RESULT: -5.954174939      0.000      0.000
REMARK  0 active torsions:
REMARK  status: ('A' for Active; 'I' for Inactive)
ROOT
HETATM    1  C1  UNL     1      16.906  11.261  -8.239  1.00  0.00     0.016 C
HETATM    2  C2  UNL     1      15.446  11.593  -8.370  1.00  0.00     0.079 C
HETATM    3  S1  UNL     1      15.252  11.782 -10.185  1.00  0.00    -0.102 SA
HETATM    4  C3  UNL     1      16.919  11.180 -10.668  1.00  0.00     0.277 C
HETATM    5  C4  UNL     1      17.308  10.443  -9.428  1.00  0.00     0.082 C
HETATM    6  N1  UNL     1      17.745  12.290 -10.996  1.00  0.00    -0.026 N
ATOM      7  H11 UNL     1      18.520  12.406 -10.343  1.00  0.00     0.282 HD
ATOM      8  H12 UNL     1      17.283  13.183 -10.827  1.00  0.00     0.282 HD
HETATM    9  C5  UNL     1      18.186  12.150 -12.351  1.00  0.00     0.219 C
HETATM   10  C6  UNL     1      19.499  11.412 -12.421  1.00  0.00     0.038 C
HETATM   11  C7  UNL     1      18.807  10.327 -13.203  1.00  0.00     0.036 C
HETATM   12  C8  UNL     1      17.473  10.913 -12.818  1.00  0.00     0.156 C
HETATM   13  O1  UNL     1      16.853  10.334 -11.746  1.00  0.00    -0.339 OA
ENDROOT
TORSDOF 0
ENDMDL