MODEL 2
REMARK VINA RESULT: -4.892995540      1.831      4.135
REMARK  0 active torsions:
REMARK  status: ('A' for Active; 'I' for Inactive)
ROOT
HETATM    1  C1  UNL     1      17.877  11.723  -9.406  1.00  0.00     0.013 C
HETATM    2  C2  UNL     1      18.096  11.001 -10.705  1.00  0.00     0.074 C
HETATM    3  S1  UNL     1      16.519  11.074 -11.638  1.00  0.00    -0.166 SA
HETATM    4  C3  UNL     1      15.416  12.101 -10.625  1.00  0.00     0.124 C
HETATM    5  C4  UNL     1      15.378  11.506  -9.253  1.00  0.00     0.181 C
HETATM    6  C5  UNL     1      16.690  11.224  -8.643  1.00  0.00     0.052 C
HETATM    7  N1  UNL     1      14.570  10.282  -9.339  1.00  0.00    -0.056 N
ATOM      8  H11 UNL     1      15.036   9.523  -9.836  1.00  0.00     0.279 HD
ATOM      9  H12 UNL     1      13.769  10.369  -9.965  1.00  0.00     0.279 HD
HETATM   10  C6  UNL     1      14.202   9.939  -7.979  1.00  0.00     0.244 C
HETATM   11  C7  UNL     1      13.317  11.087  -7.481  1.00  0.00     0.104 C
HETATM   12  S2  UNL     1      14.313  12.493  -8.129  1.00  0.00    -0.128 SA
ENDROOT
TORSDOF 0
ENDMDL