MODEL 1
REMARK VINA RESULT: -6.375869523      0.000      0.000
REMARK  1 active torsions:
REMARK  status: ('A' for Active; 'I' for Inactive)
REMARK    1  A    between atoms: N1_1  and  C1_5
ROOT
HETATM    1  C1  UNL     1      14.246  10.466  -7.247  1.00  0.00     0.318 C
HETATM    2  C2  UNL     1      15.477   9.619  -7.351  1.00  0.00     0.061 C
HETATM    3  C3  UNL     1      16.729  10.403  -7.606  1.00  0.00     0.004 C
HETATM    4  C4  UNL     1      17.108  10.427  -9.082  1.00  0.00     0.000 C
HETATM    5  C5  UNL     1      17.680  11.791  -9.437  1.00  0.00     0.002 C
HETATM    6  C6  UNL     1      17.205  12.280 -10.773  1.00  0.00     0.026 C
HETATM    7  C7  UNL     1      15.827  12.845 -10.762  1.00  0.00     0.167 C
HETATM    8  O1  UNL     1      15.301  13.046  -9.502  1.00  0.00    -0.389 OA
HETATM    9  C8  UNL     1      13.901  12.942  -9.557  1.00  0.00     0.193 C
HETATM   10  C9  UNL     1      13.370  12.298  -8.284  1.00  0.00     0.196 C
HETATM   11  O2  UNL     1      14.466  11.801  -7.571  1.00  0.00    -0.357 OA
ENDROOT
BRANCH   1  12
HETATM   12  N1  UNL     1      13.683  10.459  -5.895  1.00  0.00    -0.053 N
ATOM     13  H13 UNL     1      13.922   9.599  -5.399  1.00  0.00     0.277 HD
ATOM     14  H12 UNL     1      14.161  11.130  -5.293  1.00  0.00     0.277 HD
ATOM     15  H11 UNL     1      12.675  10.617  -5.896  1.00  0.00     0.277 HD
ENDBRANCH   1  12
TORSDOF 1
ENDMDL