MODEL 3
REMARK VINA RESULT: -6.276993004      1.843      4.332
REMARK  0 active torsions:
REMARK  status: ('A' for Active; 'I' for Inactive)
ROOT
HETATM    1  C1  UNL     1      19.689  11.880 -12.287  1.00  0.00     0.036 C
HETATM    2  C2  UNL     1      18.342  11.218 -12.307  1.00  0.00     0.050 C
HETATM    3  C3  UNL     1      18.301  10.267 -13.463  1.00  0.00     0.036 C
HETATM    4  C4  UNL     1      17.279  12.309 -12.415  1.00  0.00     0.031 C
HETATM    5  C5  UNL     1      17.139  12.877 -10.998  1.00  0.00     0.044 C
HETATM    6  C6  UNL     1      16.392  11.792 -10.218  1.00  0.00     0.108 C
HETATM    7  C7  UNL     1      14.942  12.121 -10.239  1.00  0.00     0.068 C
HETATM    8  C8  UNL     1      14.565  12.247  -8.792  1.00  0.00     0.170 C
HETATM    9  O1  UNL     1      15.716  12.302  -8.045  1.00  0.00    -0.388 OA
HETATM   10  C9  UNL     1      16.752  11.773  -8.773  1.00  0.00     0.207 C
HETATM   11  O2  UNL     1      16.712  10.566 -10.774  1.00  0.00    -0.272 OA
HETATM   12  N1  UNL     1      18.050  10.531 -11.041  1.00  0.00    -0.090 NA
ENDROOT
TORSDOF 0
ENDMDL