MODEL 2
REMARK VINA RESULT: -6.650519539      1.993      4.002
REMARK  0 active torsions:
REMARK  status: ('A' for Active; 'I' for Inactive)
ROOT
HETATM    1  C1  UNL     1      13.836  14.212  -9.482  1.00  0.00     0.005 C
HETATM    2  C2  UNL     1      13.298  13.233  -8.456  1.00  0.00     0.030 C
HETATM    3  C3  UNL     1      13.966  11.913  -8.646  1.00  0.00     0.275 C
HETATM    4  N1  UNL     1      15.338  12.051  -9.163  1.00  0.00     0.113 N
HETATM    5  C4  UNL     1      15.906  10.716  -9.127  1.00  0.00     0.301 C
HETATM    6  C5  UNL     1      17.343  10.662  -9.514  1.00  0.00     0.131 C
HETATM    7  C6  UNL     1      17.498  10.950 -10.994  1.00  0.00     0.076 C
HETATM    8  C7  UNL     1      17.660  12.424 -10.978  1.00  0.00     0.196 C
HETATM    9  N2  UNL     1      18.321  12.645  -9.736  1.00  0.00    -0.317 N
ATOM     10  H2  UNL     1      18.868  13.477  -9.518  1.00  0.00     0.182 HD
HETATM   11  N3  UNL     1      18.150  11.706  -8.961  1.00  0.00    -0.332 N
ATOM     12  H3  UNL     1      18.543  11.675  -8.020  1.00  0.00     0.180 HD
HETATM   13  N4  UNL     1      16.442  13.171 -10.952  1.00  0.00    -0.372 N
ATOM     14  H4  UNL     1      16.417  14.161 -11.198  1.00  0.00     0.157 HD
HETATM   15  C8  UNL     1      15.276  12.474 -10.570  1.00  0.00     0.319 C
HETATM   16  C9  UNL     1      14.099  13.440 -10.766  1.00  0.00     0.057 C
ENDROOT
TORSDOF 0
ENDMDL