MODEL 5
REMARK VINA RESULT: -6.183112210      2.144      3.757
REMARK  0 active torsions:
REMARK  status: ('A' for Active; 'I' for Inactive)
ROOT
HETATM    1  C1  UNL     1      18.064  10.728 -11.078  1.00  0.00     0.019 C
HETATM    2  C2  UNL     1      16.996  11.761 -10.684  1.00  0.00    -0.004 C
HETATM    3  C3  UNL     1      17.091  12.850 -11.731  1.00  0.00     0.019 C
HETATM    4  C4  UNL     1      17.239  12.327  -9.333  1.00  0.00     0.184 C
HETATM    5  O1  UNL     1      16.265  12.243  -8.429  1.00  0.00    -0.332 OA
HETATM    6  C5  UNL     1      15.022  11.892  -8.736  1.00  0.00     0.337 C
HETATM    7  C6  UNL     1      14.083  13.061  -8.402  1.00  0.00     0.103 C
HETATM    8  C7  UNL     1      13.151  12.571  -7.349  1.00  0.00     0.035 C
HETATM    9  C8  UNL     1      13.228  11.069  -7.506  1.00  0.00     0.239 C
HETATM   10  N1  UNL     1      14.606  10.836  -7.796  1.00  0.00    -0.017 N
ATOM     11  H11 UNL     1      15.191  10.785  -6.961  1.00  0.00     0.283 HD
ATOM     12  H12 UNL     1      14.793   9.894  -8.139  1.00  0.00     0.283 HD
HETATM   13  O2  UNL     1      14.702  11.481  -9.984  1.00  0.00    -0.332 OA
HETATM   14  C9  UNL     1      15.675  11.043 -10.805  1.00  0.00     0.184 C
ENDROOT
TORSDOF 0
ENDMDL