MODEL 3
REMARK VINA RESULT: -6.381749958      2.085      4.703
REMARK  0 active torsions:
REMARK  status: ('A' for Active; 'I' for Inactive)
ROOT
HETATM    1  C1  UNL     1      14.501  10.070  -8.961  1.00  0.00     0.146 C
HETATM    2  N1  UNL     1      15.762  10.730  -8.586  1.00  0.00    -0.173 NA
HETATM    3  C2  UNL     1      15.546  12.152  -8.762  1.00  0.00     0.355 C
HETATM    4  N2  UNL     1      15.856  12.301 -10.190  1.00  0.00    -0.028 N
ATOM      5  H21 UNL     1      16.051  13.253 -10.500  1.00  0.00     0.282 HD
ATOM      6  H22 UNL     1      15.072  12.160 -10.826  1.00  0.00     0.282 HD
HETATM    7  C3  UNL     1      16.948  11.365 -10.331  1.00  0.00     0.246 C
HETATM    8  C4  UNL     1      18.264  12.070 -10.060  1.00  0.00     0.071 C
HETATM    9  C5  UNL     1      18.570  12.938 -11.235  1.00  0.00     0.005 C
HETATM   10  C6  UNL     1      19.600  12.384 -12.157  1.00  0.00     0.000 C
HETATM   11  C7  UNL     1      19.398  11.014 -12.640  1.00  0.00     0.000 C
HETATM   12  C8  UNL     1      18.352  10.190 -12.007  1.00  0.00     0.005 C
HETATM   13  C9  UNL     1      17.042  10.826 -11.762  1.00  0.00     0.071 C
HETATM   14  O1  UNL     1      16.690  10.341  -9.455  1.00  0.00    -0.262 OA
ENDROOT
TORSDOF 0
ENDMDL