MODEL 5
REMARK VINA RESULT: -6.630858842      1.907      2.435
REMARK  0 active torsions:
REMARK  status: ('A' for Active; 'I' for Inactive)
ROOT
HETATM    1  N1  UNL     1      17.688  14.023 -11.250  1.00  0.00    -0.195 NA
HETATM    2  C1  UNL     1      17.383  12.922 -11.029  1.00  0.00     0.084 C
HETATM    3  C2  UNL     1      16.992  11.533 -10.769  1.00  0.00     0.138 C
HETATM    4  C3  UNL     1      17.386  10.648 -11.848  1.00  0.00     0.084 C
HETATM    5  N2  UNL     1      17.686   9.923 -12.714  1.00  0.00    -0.195 NA
HETATM    6  C4  UNL     1      17.568  11.020  -9.469  1.00  0.00     0.045 C
HETATM    7  C5  UNL     1      16.521  11.264  -8.405  1.00  0.00    -0.005 C
HETATM    8  C6  UNL     1      16.656  10.218  -7.362  1.00  0.00     0.032 C
HETATM    9  C7  UNL     1      15.392   9.748  -6.741  1.00  0.00     0.232 C
HETATM   10  N3  UNL     1      14.239   9.788  -7.566  1.00  0.00    -0.075 N
ATOM     11  H31 UNL     1      13.594  10.506  -7.238  1.00  0.00     0.277 HD
ATOM     12  H32 UNL     1      13.668   8.956  -7.416  1.00  0.00     0.277 HD
HETATM   13  C8  UNL     1      14.506   9.961  -8.963  1.00  0.00     0.237 C
HETATM   14  C9  UNL     1      15.224  11.295  -9.125  1.00  0.00     0.018 C
HETATM   15  C10 UNL     1      15.504  11.486 -10.597  1.00  0.00     0.046 C
ENDROOT
TORSDOF 0
ENDMDL