MODEL 3
REMARK VINA RESULT: -6.603697223      2.042      4.194
REMARK  1 active torsions:
REMARK  status: ('A' for Active; 'I' for Inactive)
REMARK    1  A    between atoms: C2_2  and  N1_3
ROOT
HETATM    1  C1  UNL     1      17.315  12.594 -11.986  1.00  0.00     0.081 C
HETATM    2  C2  UNL     1      16.840  11.257 -11.506  1.00  0.00     0.255 C
HETATM    3  C3  UNL     1      17.619  10.924 -10.231  1.00  0.00     0.112 C
HETATM    4  C4  UNL     1      16.494  10.773  -9.241  1.00  0.00     0.101 C
HETATM    5  C5  UNL     1      16.060  12.069  -8.628  1.00  0.00     0.041 C
HETATM    6  C6  UNL     1      14.849  11.886  -7.796  1.00  0.00     0.003 C
HETATM    7  C7  UNL     1      14.813  10.679  -6.940  1.00  0.00     0.000 C
HETATM    8  C8  UNL     1      15.415   9.452  -7.526  1.00  0.00     0.003 C
HETATM    9  C9  UNL     1      16.769   9.796  -8.152  1.00  0.00     0.041 C
HETATM   10  O1  UNL     1      15.449  10.357 -10.095  1.00  0.00    -0.227 OA
HETATM   11  O2  UNL     1      15.545  11.267 -11.047  1.00  0.00    -0.200 OA
ENDROOT
BRANCH   2  12
HETATM   12  N1  UNL     1      17.045  10.293 -12.540  1.00  0.00    -0.044 N
ATOM     13  H13 UNL     1      16.209  10.146 -13.105  1.00  0.00     0.278 HD
ATOM     14  H12 UNL     1      17.657  10.640 -13.279  1.00  0.00     0.278 HD
ATOM     15  H11 UNL     1      17.390   9.429 -12.124  1.00  0.00     0.278 HD
ENDBRANCH   2  12
TORSDOF 1
ENDMDL