MODEL 4
REMARK VINA RESULT: -8.822734248      1.541      2.138
REMARK  10 active torsions:
REMARK  status: ('A' for Active; 'I' for Inactive)
REMARK       I    between atoms: C1_4  and  N3_6
REMARK    1  A    between atoms: C5_10  and  C6_11
REMARK       I    between atoms: C6_11  and  N4_13
REMARK    2  A    between atoms: N4_13  and  C7_15
REMARK    3  A    between atoms: C7_15  and  C8_16
REMARK    4  A    between atoms: C7_15  and  C11_21
REMARK    5  A    between atoms: C8_16  and  C9_17
REMARK    6  A    between atoms: C9_17  and  C10_18
REMARK    7  A    between atoms: C11_21  and  C12_22
REMARK    8  A    between atoms: C15_25  and  N5_26
REMARK    9  A    between atoms: C17_31  and  C18_32
REMARK   10  A    between atoms: C18_32  and  C19_33
ROOT
HETATM    1  C7  UNL     1      34.835   9.172   1.914  1.00  0.00     0.085 C
ENDROOT
BRANCH   1   2
HETATM    2  N4  UNL     1      33.770   8.758   1.088  1.00  0.00    -0.355 N
HETATM    3  C6  UNL     1      33.669   9.223  -0.268  1.00  0.00     0.241 C
HETATM    4  O1  UNL     1      34.513  10.005  -0.762  1.00  0.00    -0.271 OA
ATOM      5  H4  UNL     1      33.063   8.121   1.457  1.00  0.00     0.162 HD
BRANCH   3   6
HETATM    6  C5  UNL     1      32.540   8.754  -1.072  1.00  0.00     0.179 C
HETATM    7  N3  UNL     1      31.297   9.385  -0.762  1.00  0.00    -0.342 N
HETATM    8  C1  UNL     1      30.842   9.979   0.438  1.00  0.00     0.184 C
HETATM    9  C2  UNL     1      30.469   9.335  -1.967  1.00  0.00     0.126 C
HETATM   10  N1  UNL     1      30.712  11.257   0.549  1.00  0.00    -0.374 N
HETATM   11  N2  UNL     1      30.514   9.182   1.559  1.00  0.00    -0.064 NA
ATOM     12  H12 UNL     1      30.384  11.685   1.414  1.00  0.00     0.158 HD
ATOM     13  H11 UNL     1      30.949  11.832  -0.260  1.00  0.00     0.158 HD
HETATM   14  C3  UNL     1      31.377   8.967  -3.098  1.00  0.00     0.022 C
HETATM   15  C4  UNL     1      32.768   9.217  -2.516  1.00  0.00     0.037 C
ENDBRANCH   3   6
ENDBRANCH   1   2
BRANCH   1  16
HETATM   16  C8  UNL     1      35.233   8.089   2.931  1.00  0.00     0.035 C
BRANCH  16  17
HETATM   17  C9  UNL     1      35.693   6.875   2.152  1.00  0.00     0.115 C
BRANCH  17  18
HETATM   18  C10 UNL     1      34.708   5.792   2.201  1.00  0.00     0.172 C
HETATM   19  O2  UNL     1      33.814   5.733   1.335  1.00  0.00    -0.648 OA
HETATM   20  O3  UNL     1      34.758   4.825   3.202  1.00  0.00    -0.648 OA
ENDBRANCH  17  18
ENDBRANCH  16  17
ENDBRANCH   1  16
BRANCH   1  21
HETATM   21  C11 UNL     1      34.757  10.494   2.602  1.00  0.00     0.030 C
BRANCH  21  22
HETATM   22  C12 UNL     1      34.825  10.567   4.062  1.00  0.00    -0.008 C
HETATM   23  C13 UNL     1      33.561  10.603   4.855  1.00  0.00     0.007 C
HETATM   24  C14 UNL     1      33.855   9.905   6.185  1.00  0.00     0.033 C
HETATM   25  C15 UNL     1      35.162  10.452   6.723  1.00  0.00     0.183 C
HETATM   26  C16 UNL     1      35.559  11.763   6.091  1.00  0.00     0.037 C
HETATM   27  C17 UNL     1      35.697  11.693   4.585  1.00  0.00    -0.008 C
BRANCH  25  28
HETATM   28  N5  UNL     1      34.959  10.711   8.137  1.00  0.00    -0.075 N
ATOM     29  H53 UNL     1      35.271   9.946   8.736  1.00  0.00     0.274 HD
ATOM     30  H52 UNL     1      35.585  11.427   8.508  1.00  0.00     0.274 HD
ATOM     31  H51 UNL     1      33.972  10.940   8.257  1.00  0.00     0.274 HD
ENDBRANCH  25  28
BRANCH  27  32
HETATM   32  C18 UNL     1      35.325  13.032   4.042  1.00  0.00     0.010 C
BRANCH  32  33
HETATM   33  C19 UNL     1      36.349  14.030   4.570  1.00  0.00    -0.014 C
HETATM   34  C20 UNL     1      37.295  14.419   3.465  1.00  0.00     0.005 C
HETATM   35  C21 UNL     1      37.052  15.896   3.778  1.00  0.00     0.001 C
HETATM   36  C22 UNL     1      35.819  15.442   4.566  1.00  0.00     0.005 C
ENDBRANCH  32  33
ENDBRANCH  27  32
ENDBRANCH  21  22
ENDBRANCH   1  21
TORSDOF 10
ENDMDL