MODEL 5
REMARK VINA RESULT: -8.457741543      5.477      8.531
REMARK  12 active torsions:
REMARK  status: ('A' for Active; 'I' for Inactive)
REMARK    1  A    between atoms: C2_2  and  C3_3
REMARK    2  A    between atoms: C3_3  and  C4_4
REMARK    3  A    between atoms: C4_4  and  C5_5
REMARK    4  A    between atoms: C5_5  and  N1_6
REMARK       I    between atoms: N1_6  and  C6_8
REMARK       I    between atoms: C6_8  and  N2_10
REMARK    5  A    between atoms: N2_10  and  C7_12
REMARK    6  A    between atoms: C7_12  and  C8_13
REMARK    7  A    between atoms: C8_13  and  O2_14
REMARK    8  A    between atoms: C8_13  and  N3_16
REMARK    9  A    between atoms: C11_19  and  C12_20
REMARK   10  A    between atoms: C12_20  and  C13_21
REMARK   11  A    between atoms: C13_21  and  N4_22
REMARK   12  A    between atoms: C13_21  and  C14_26
ROOT
HETATM    1  C7  UNL     1      34.414  12.890   5.801  1.00  0.00     0.102 C
HETATM    2  C17 UNL     1      34.290  13.527   7.206  1.00  0.00     0.059 C
HETATM    3  C18 UNL     1      33.380  14.713   7.058  1.00  0.00     0.117 C
HETATM    4  N6  UNL     1      32.082  14.276   6.670  1.00  0.00    -0.417 N
ATOM      5  H6  UNL     1      31.253  14.543   7.202  1.00  0.00     0.153 HD
HETATM    6  C19 UNL     1      31.982  13.458   5.517  1.00  0.00     0.075 C
HETATM    7  C20 UNL     1      31.759  14.162   4.215  1.00  0.00     0.032 C
HETATM    8  C21 UNL     1      33.062  12.388   5.456  1.00  0.00     0.064 C
ENDROOT
BRANCH   1   9
HETATM    9  N2  UNL     1      34.873  13.952   4.924  1.00  0.00    -0.326 N
HETATM   10  C6  UNL     1      36.046  14.699   4.945  1.00  0.00     0.317 C
HETATM   11  N1  UNL     1      36.272  15.664   3.903  1.00  0.00    -0.343 N
HETATM   12  O1  UNL     1      36.944  14.614   5.791  1.00  0.00    -0.247 OA
ATOM     13  H1  UNL     1      35.549  15.771   3.191  1.00  0.00     0.164 HD
ATOM     14  H2  UNL     1      34.230  14.189   4.169  1.00  0.00     0.165 HD
BRANCH  11  15
HETATM   15  C5  UNL     1      37.441  16.487   3.795  1.00  0.00     0.124 C
BRANCH  15  16
HETATM   16  C4  UNL     1      37.154  17.910   4.118  1.00  0.00     0.020 C
BRANCH  16  17
HETATM   17  C3  UNL     1      38.315  18.792   3.723  1.00  0.00     0.001 C
BRANCH  17  18
HETATM   18  C2  UNL     1      38.585  19.902   4.693  1.00  0.00    -0.004 C
HETATM   19  C1  UNL     1      38.053  19.566   6.076  1.00  0.00     0.005 C
ENDBRANCH  17  18
ENDBRANCH  16  17
ENDBRANCH  15  16
ENDBRANCH  11  15
ENDBRANCH   1   9
BRANCH   1  20
HETATM   20  C8  UNL     1      35.434  11.843   5.938  1.00  0.00     0.142 C
BRANCH  20  21
HETATM   21  O2  UNL     1      36.171  12.012   7.015  1.00  0.00    -0.348 OA
ATOM     22  H2  UNL     1      36.001  11.345   7.670  1.00  0.00     0.219 HD
ENDBRANCH  20  21
BRANCH  20  23
HETATM   23  N3  UNL     1      35.804  10.732   5.207  1.00  0.00    -0.363 N
HETATM   24  C9  UNL     1      35.224   9.439   5.642  1.00  0.00     0.129 C
HETATM   25  C10 UNL     1      34.770   8.580   4.497  1.00  0.00     0.053 C
HETATM   26  C11 UNL     1      35.746   8.585   3.394  1.00  0.00    -0.078 C
HETATM   27  C15 UNL     1      37.046   9.202   3.804  1.00  0.00     0.053 C
HETATM   28  C16 UNL     1      36.727  10.707   4.104  1.00  0.00     0.129 C
BRANCH  26  29
HETATM   29  C12 UNL     1      35.887   7.418   2.533  1.00  0.00     0.017 C
BRANCH  29  30
HETATM   30  C13 UNL     1      34.792   6.828   1.763  1.00  0.00     0.295 C
BRANCH  30  31
HETATM   31  N4  UNL     1      35.331   6.773   0.355  1.00  0.00    -0.064 N
ATOM     32  H43 UNL     1      36.341   6.905   0.285  1.00  0.00     0.275 HD
ATOM     33  H42 UNL     1      35.314   5.844  -0.066  1.00  0.00     0.275 HD
ATOM     34  H41 UNL     1      34.780   7.471  -0.145  1.00  0.00     0.275 HD
ENDBRANCH  30  31
BRANCH  30  35
HETATM   35  C14 UNL     1      34.452   5.441   2.062  1.00  0.00     0.265 C
HETATM   36  N5  UNL     1      33.772   4.579   1.140  1.00  0.00    -0.060 NA
HETATM   37  O3  UNL     1      34.754   4.939   3.168  1.00  0.00    -0.274 OA
ENDBRANCH  30  35
ENDBRANCH  29  30
ENDBRANCH  26  29
ENDBRANCH  20  23
ENDBRANCH   1  20
TORSDOF 12
ENDMDL