MODEL 3
REMARK VINA RESULT: -7.961314499      1.683      2.672
REMARK  12 active torsions:
REMARK  status: ('A' for Active; 'I' for Inactive)
REMARK    1  A    between atoms: N1_1  and  C1_5
REMARK    2  A    between atoms: C1_5  and  C2_6
REMARK    3  A    between atoms: C2_6  and  C3_7
REMARK    4  A    between atoms: C3_7  and  C4_8
REMARK    5  A    between atoms: C4_8  and  C5_9
REMARK    6  A    between atoms: C5_9  and  N2_10
REMARK    7  A    between atoms: C5_9  and  C11_20
REMARK    8  A    between atoms: N2_10  and  C6_12
REMARK    9  A    between atoms: C6_12  and  N3_14
REMARK   10  A    between atoms: N3_14  and  C7_16
REMARK   11  A    between atoms: C7_16  and  C8_17
REMARK       I    between atoms: C11_20  and  N4_22
REMARK   12  A    between atoms: N4_22  and  C12_24
ROOT
HETATM    1  C5  UNL     1      33.783  11.807   6.258  1.00  0.00     0.176 C
ENDROOT
BRANCH   1   2
HETATM    2  C4  UNL     1      34.166  10.632   7.092  1.00  0.00     0.035 C
BRANCH   2   3
HETATM    3  C3  UNL     1      34.730   9.462   6.365  1.00  0.00     0.004 C
BRANCH   3   4
HETATM    4  C2  UNL     1      35.863   9.788   5.427  1.00  0.00     0.027 C
BRANCH   4   5
HETATM    5  C1  UNL     1      35.983   8.801   4.282  1.00  0.00     0.229 C
BRANCH   5   6
HETATM    6  N1  UNL     1      37.314   8.884   3.677  1.00  0.00    -0.079 N
ATOM      7  H13 UNL     1      37.816   7.999   3.741  1.00  0.00     0.274 HD
ATOM      8  H12 UNL     1      37.266   8.958   2.661  1.00  0.00     0.274 HD
ATOM      9  H11 UNL     1      37.843   9.653   4.090  1.00  0.00     0.274 HD
ENDBRANCH   5   6
ENDBRANCH   4   5
ENDBRANCH   3   4
ENDBRANCH   2   3
ENDBRANCH   1   2
BRANCH   1  10
HETATM   10  N2  UNL     1      32.329  11.986   6.373  1.00  0.00    -0.354 N
ATOM     11  H2  UNL     1      31.970  12.091   7.323  1.00  0.00     0.162 HD
BRANCH  10  12
HETATM   12  C6  UNL     1      31.378  12.032   5.360  1.00  0.00     0.168 C
HETATM   13  S1  UNL     1      31.026  13.293   4.409  1.00  0.00    -0.041 SA
BRANCH  12  14
HETATM   14  N3  UNL     1      30.626  10.814   5.137  1.00  0.00    -0.367 N
ATOM     15  H3  UNL     1      29.978  10.461   5.841  1.00  0.00     0.161 HD
BRANCH  14  16
HETATM   16  C7  UNL     1      30.818  10.120   3.897  1.00  0.00     0.126 C
BRANCH  16  17
HETATM   17  C8  UNL     1      32.241   9.668   3.711  1.00  0.00     0.003 A
HETATM   18  C9  UNL     1      32.508   8.812   2.505  1.00  0.00     0.007 A
HETATM   19  C10 UNL     1      33.030  10.226   2.604  1.00  0.00     0.007 A
ENDBRANCH  16  17
ENDBRANCH  14  16
ENDBRANCH  12  14
ENDBRANCH  10  12
ENDBRANCH   1  10
BRANCH   1  20
HETATM   20  C11 UNL     1      34.374  13.103   6.574  1.00  0.00     0.241 C
HETATM   21  O1  UNL     1      34.843  13.291   7.756  1.00  0.00    -0.271 OA
HETATM   22  N4  UNL     1      34.480  14.189   5.708  1.00  0.00    -0.346 N
ATOM     23  H4  UNL     1      34.114  14.101   4.761  1.00  0.00     0.163 HD
BRANCH  22  24
HETATM   24  C12 UNL     1      35.109  15.467   6.121  1.00  0.00     0.176 C
HETATM   25  C13 UNL     1      34.035  16.503   6.014  1.00  0.00     0.035 C
HETATM   26  C14 UNL     1      33.584  16.823   7.445  1.00  0.00     0.002 C
HETATM   27  C15 UNL     1      34.021  18.211   7.862  1.00  0.00     0.000 C
HETATM   28  C16 UNL     1      35.110  18.186   8.906  1.00  0.00     0.000 C
HETATM   29  C17 UNL     1      36.097  19.301   8.771  1.00  0.00     0.000 C
HETATM   30  C18 UNL     1      36.730  19.429   7.436  1.00  0.00     0.002 C
HETATM   31  C19 UNL     1      37.213  18.133   6.839  1.00  0.00     0.020 C
HETATM   32  C20 UNL     1      36.939  18.210   5.356  1.00  0.00     0.122 C
HETATM   33  N5  UNL     1      36.725  16.929   4.726  1.00  0.00    -0.359 N
HETATM   34  C21 UNL     1      36.310  15.730   5.290  1.00  0.00     0.240 C
ATOM     35  H5  UNL     1      36.903  16.902   3.722  1.00  0.00     0.162 HD
HETATM   36  O2  UNL     1      37.035  14.687   5.088  1.00  0.00    -0.271 OA
ENDBRANCH  22  24
ENDBRANCH   1  20
TORSDOF 12
ENDMDL