MODEL 2
REMARK VINA RESULT: -8.974912110      1.841      2.830
REMARK  9 active torsions:
REMARK  status: ('A' for Active; 'I' for Inactive)
REMARK       I    between atoms: C1_4  and  N2_5
REMARK       I    between atoms: C1_4  and  N4_19
REMARK       I    between atoms: N2_5  and  C2_7
REMARK       I    between atoms: C2_7  and  N3_9
REMARK    1  A    between atoms: N3_9  and  C3_11
REMARK    2  A    between atoms: C3_11  and  C4_12
REMARK    3  A    between atoms: C4_12  and  C5_13
REMARK    4  A    between atoms: C5_13  and  C6_14
REMARK    5  A    between atoms: C6_14  and  C7_15
REMARK    6  A    between atoms: C7_15  and  C8_16
REMARK    7  A    between atoms: C10_21  and  C11_22
REMARK       I    between atoms: N5_25  and  C12_26
REMARK    8  A    between atoms: C12_26  and  C13_28
REMARK    9  A    between atoms: C13_28  and  C14_29
ROOT
HETATM    1  N1  UNL     1      36.792   8.956   1.148  1.00  0.00    -0.234 N
ATOM      2  H11 UNL     1      36.606   9.958   1.116  1.00  0.00     0.174 HD
ATOM      3  H12 UNL     1      37.675   8.505   0.908  1.00  0.00     0.174 HD
HETATM    4  C1  UNL     1      35.793   8.177   1.542  1.00  0.00     0.679 C
HETATM    5  N2  UNL     1      36.045   6.818   1.585  1.00  0.00    -0.142 N
ATOM      6  H2  UNL     1      36.983   6.532   1.303  1.00  0.00     0.189 HD
HETATM    7  C2  UNL     1      35.165   5.760   1.972  1.00  0.00     0.334 C
HETATM    8  O1  UNL     1      34.013   6.070   2.331  1.00  0.00    -0.247 OA
HETATM    9  N3  UNL     1      35.578   4.413   1.949  1.00  0.00    -0.342 N
ATOM     10  H3  UNL     1      36.536   4.195   1.673  1.00  0.00     0.164 HD
HETATM   11  N4  UNL     1      34.559   8.807   1.876  1.00  0.00    -0.199 N
HETATM   12  C9  UNL     1      33.437   8.954   1.015  1.00  0.00     0.179 C
HETATM   13  C10 UNL     1      32.264   9.182   1.920  1.00  0.00     0.208 C
HETATM   14  N5  UNL     1      32.809   9.588   3.160  1.00  0.00    -0.319 N
HETATM   15  C12 UNL     1      32.100  10.046   4.292  1.00  0.00     0.222 C
HETATM   16  O6  UNL     1      30.852  10.091   4.263  1.00  0.00    -0.273 OA
HETATM   17  C19 UNL     1      34.233   9.436   3.128  1.00  0.00     0.271 C
ENDROOT
BRANCH   9  18
HETATM   18  C3  UNL     1      34.701   3.343   2.299  1.00  0.00     0.124 C
BRANCH  18  19
HETATM   19  C4  UNL     1      34.303   2.568   1.072  1.00  0.00     0.020 C
BRANCH  19  20
HETATM   20  C5  UNL     1      33.228   3.290   0.284  1.00  0.00     0.002 C
BRANCH  20  21
HETATM   21  C6  UNL     1      31.919   2.580   0.494  1.00  0.00     0.010 C
BRANCH  21  22
HETATM   22  C7  UNL     1      31.454   1.778  -0.696  1.00  0.00     0.113 C
BRANCH  22  23
HETATM   23  C8  UNL     1      30.017   1.373  -0.528  1.00  0.00     0.172 C
HETATM   24  O2  UNL     1      29.105   1.821  -1.262  1.00  0.00    -0.648 OA
HETATM   25  O3  UNL     1      29.661   0.476   0.459  1.00  0.00    -0.648 OA
ENDBRANCH  22  23
ENDBRANCH  21  22
ENDBRANCH  20  21
ENDBRANCH  19  20
ENDBRANCH  18  19
ENDBRANCH   9  18
BRANCH  13  26
HETATM   26  C11 UNL     1      31.318  10.152   1.305  1.00  0.00     0.198 C
HETATM   27  O4  UNL     1      31.685  11.305   1.048  1.00  0.00    -0.646 OA
HETATM   28  O5  UNL     1      30.029   9.757   1.025  1.00  0.00    -0.646 OA
ENDBRANCH  13  26
BRANCH  15  29
HETATM   29  C13 UNL     1      32.771  10.488   5.541  1.00  0.00     0.107 C
BRANCH  29  30
HETATM   30  C14 UNL     1      32.723  11.999   5.680  1.00  0.00    -0.006 C
HETATM   31  C15 UNL     1      33.759  12.405   6.689  1.00  0.00     0.005 C
HETATM   32  C16 UNL     1      34.633  13.439   6.005  1.00  0.00     0.000 C
HETATM   33  C17 UNL     1      34.550  12.979   4.565  1.00  0.00     0.000 C
HETATM   34  C18 UNL     1      33.093  12.685   4.388  1.00  0.00     0.005 C
ENDBRANCH  29  30
ENDBRANCH  15  29
TORSDOF 9
ENDMDL