MODEL 4
REMARK VINA RESULT: -8.980451745      5.046      6.202
REMARK  10 active torsions:
REMARK  status: ('A' for Active; 'I' for Inactive)
REMARK    1  A    between atoms: C1_2  and  C2_3
REMARK       I    between atoms: C1_2  and  N1_11
REMARK    2  A    between atoms: C2_3  and  C3_4
REMARK    3  A    between atoms: C3_4  and  C4_5
REMARK    4  A    between atoms: C4_5  and  C5_6
REMARK    5  A    between atoms: C5_6  and  C6_7
REMARK    6  A    between atoms: C6_7  and  C7_8
REMARK    7  A    between atoms: C7_8  and  C8_9
REMARK    8  A    between atoms: N1_11  and  C9_12
REMARK    9  A    between atoms: C9_12  and  C10_13
REMARK   10  A    between atoms: C20_31  and  O4_32
ROOT
HETATM    1  C10 UNL     1      31.957   9.228   2.379  1.00  0.00     0.019 C
HETATM    2  C11 UNL     1      31.377   9.563   3.676  1.00  0.00    -0.013 C
HETATM    3  C12 UNL     1      32.000  10.353   4.717  1.00  0.00     0.028 C
HETATM    4  C13 UNL     1      32.501  11.701   4.320  1.00  0.00     0.005 C
HETATM    5  C14 UNL     1      32.695  12.602   5.546  1.00  0.00     0.020 C
HETATM    6  C15 UNL     1      34.093  13.130   5.520  1.00  0.00     0.122 C
HETATM    7  N2  UNL     1      34.805  12.906   6.759  1.00  0.00    -0.360 N
ATOM      8  H2  UNL     1      35.031  13.740   7.302  1.00  0.00     0.162 HD
HETATM    9  C16 UNL     1      35.217  11.699   7.300  1.00  0.00     0.235 C
HETATM   10  O2  UNL     1      35.269  11.624   8.581  1.00  0.00    -0.272 OA
HETATM   11  C17 UNL     1      35.614  10.460   6.593  1.00  0.00     0.225 C
HETATM   12  N3  UNL     1      36.228  10.707   5.313  1.00  0.00    -0.351 N
ATOM     13  H3  UNL     1      36.846  11.516   5.250  1.00  0.00     0.163 HD
HETATM   14  C18 UNL     1      36.063   9.952   4.151  1.00  0.00     0.235 C
HETATM   15  O3  UNL     1      36.707  10.306   3.115  1.00  0.00    -0.272 OA
HETATM   16  C19 UNL     1      35.197   8.753   3.984  1.00  0.00     0.224 C
HETATM   17  N4  UNL     1      34.527   8.739   2.710  1.00  0.00    -0.362 N
ATOM     18  H4  UNL     1      35.154   8.951   1.935  1.00  0.00     0.162 HD
HETATM   19  C20 UNL     1      33.227   8.505   2.294  1.00  0.00     0.144 C
ENDROOT
BRANCH   1  20
HETATM   20  C9  UNL     1      31.802  10.317   1.291  1.00  0.00     0.264 C
BRANCH  20  21
HETATM   21  N1  UNL     1      32.633  10.125   0.207  1.00  0.00    -0.411 NA
HETATM   22  C1  UNL     1      33.456   9.936  -0.863  1.00  0.00     0.286 C
HETATM   23  O1  UNL     1      34.666  10.175  -0.948  1.00  0.00    -0.258 OA
BRANCH  22  24
HETATM   24  C2  UNL     1      32.843   9.366  -2.140  1.00  0.00     0.119 C
BRANCH  24  25
HETATM   25  C3  UNL     1      31.468   8.815  -1.803  1.00  0.00     0.010 C
BRANCH  25  26
HETATM   26  C4  UNL     1      30.662   8.515  -3.027  1.00  0.00     0.001 C
BRANCH  26  27
HETATM   27  C5  UNL     1      29.341   9.278  -2.910  1.00  0.00     0.000 C
BRANCH  27  28
HETATM   28  C6  UNL     1      29.308  10.030  -1.630  1.00  0.00     0.001 C
BRANCH  28  29
HETATM   29  C7  UNL     1      27.976  10.067  -0.994  1.00  0.00     0.011 C
BRANCH  29  30
HETATM   30  C8  UNL     1      27.820  10.405   0.429  1.00  0.00     0.086 C
HETATM   31  S1  UNL     1      26.536  11.599   0.785  1.00  0.00    -0.098 SA
ENDBRANCH  29  30
ENDBRANCH  28  29
ENDBRANCH  27  28
ENDBRANCH  26  27
ENDBRANCH  25  26
ENDBRANCH  24  25
ENDBRANCH  22  24
ENDBRANCH  20  21
ENDBRANCH   1  20
BRANCH  19  32
HETATM   32  O4  UNL     1      33.090   7.347   1.657  1.00  0.00    -0.346 OA
ATOM     33  H4  UNL     1      32.244   6.951   1.830  1.00  0.00     0.219 HD
ENDBRANCH  19  32
TORSDOF 10
ENDMDL