MODEL 2
REMARK VINA RESULT: -8.233901951      0.535      1.447
REMARK  11 active torsions:
REMARK  status: ('A' for Active; 'I' for Inactive)
REMARK    1  A    between atoms: C4_11  and  C5_12
REMARK    2  A    between atoms: C5_12  and  C6_13
REMARK    3  A    between atoms: C6_13  and  N4_14
REMARK    4  A    between atoms: C9_17  and  C10_18
REMARK    5  A    between atoms: C10_18  and  N5_19
REMARK    6  A    between atoms: N5_19  and  C11_21
REMARK    7  A    between atoms: C11_21  and  N6_23
REMARK    8  A    between atoms: N6_23  and  C12_25
REMARK    9  A    between atoms: C12_25  and  C13_26
REMARK   10  A    between atoms: C13_26  and  C14_27
REMARK   11  A    between atoms: C14_27  and  N7_28
ROOT
HETATM    1  N4  UNL     1      30.273  10.356   1.799  1.00  0.00    -0.374 N
HETATM    2  C7  UNL     1      30.532   9.406   2.867  1.00  0.00     0.127 C
HETATM    3  C8  UNL     1      31.996   9.002   2.819  1.00  0.00     0.027 C
HETATM    4  C9  UNL     1      32.869  10.175   3.129  1.00  0.00     0.010 C
HETATM    5  C20 UNL     1      32.381  11.437   2.560  1.00  0.00     0.051 C
HETATM    6  C21 UNL     1      31.101  11.480   1.833  1.00  0.00     0.063 C
ENDROOT
BRANCH   4   7
HETATM    7  C10 UNL     1      33.075  10.266   4.639  1.00  0.00     0.127 C
BRANCH   7   8
HETATM    8  N5  UNL     1      34.222   9.548   5.099  1.00  0.00    -0.367 N
ATOM      9  H5  UNL     1      34.355   8.614   4.712  1.00  0.00     0.161 HD
BRANCH   8  10
HETATM   10  C11 UNL     1      35.190   9.984   6.024  1.00  0.00     0.167 C
HETATM   11  S1  UNL     1      34.677  10.779   7.367  1.00  0.00    -0.041 SA
BRANCH  10  12
HETATM   12  N6  UNL     1      36.572   9.772   5.813  1.00  0.00    -0.367 N
ATOM     13  H6  UNL     1      37.148   9.356   6.544  1.00  0.00     0.161 HD
BRANCH  12  14
HETATM   14  C12 UNL     1      37.157  10.153   4.546  1.00  0.00     0.123 C
BRANCH  14  15
HETATM   15  C13 UNL     1      37.389   9.022   3.631  1.00  0.00     0.050 C
BRANCH  15  16
HETATM   16  C14 UNL     1      36.750   8.970   2.315  1.00  0.00     0.274 C
BRANCH  16  17
HETATM   17  N7  UNL     1      36.327   7.711   1.766  1.00  0.00     0.088 N
HETATM   18  C15 UNL     1      35.138   8.103   0.931  1.00  0.00     0.272 C
HETATM   19  C16 UNL     1      34.797   6.896   0.108  1.00  0.00     0.030 C
HETATM   20  C17 UNL     1      34.193   5.876   1.048  1.00  0.00     0.003 C
HETATM   21  C18 UNL     1      34.969   5.693   2.296  1.00  0.00     0.030 C
HETATM   22  C19 UNL     1      35.773   6.872   2.773  1.00  0.00     0.272 C
ENDBRANCH  16  17
ENDBRANCH  15  16
ENDBRANCH  14  15
ENDBRANCH  12  14
ENDBRANCH  10  12
ENDBRANCH   8  10
ENDBRANCH   7   8
ENDBRANCH   4   7
BRANCH   1  23
HETATM   23  C6  UNL     1      29.900   9.753   0.586  1.00  0.00     0.068 C
BRANCH  23  24
HETATM   24  C5  UNL     1      30.116  10.594  -0.645  1.00  0.00     0.089 C
BRANCH  24  25
HETATM   25  C4  UNL     1      30.827   9.784  -1.703  1.00  0.00     0.015 A
HETATM   26  C2  UNL     1      30.251   9.100  -2.745  1.00  0.00     0.032 A
HETATM   27  C1  UNL     1      28.792   9.024  -3.041  1.00  0.00     0.070 C
HETATM   28  N1  UNL     1      31.253   8.516  -3.442  1.00  0.00    -0.303 N
HETATM   29  N2  UNL     1      32.420   8.802  -2.885  1.00  0.00    -0.285 N
ATOM     30  H1  UNL     1      31.128   7.939  -4.274  1.00  0.00     0.186 HD
HETATM   31  C3  UNL     1      32.187   9.592  -1.800  1.00  0.00     0.122 A
ATOM     32  H2  UNL     1      33.333   8.487  -3.213  1.00  0.00     0.188 HD
HETATM   33  N3  UNL     1      33.085  10.065  -1.007  1.00  0.00    -0.384 N
ATOM     34  H32 UNL     1      34.092   9.923  -1.079  1.00  0.00     0.157 HD
ATOM     35  H31 UNL     1      32.911  10.656  -0.194  1.00  0.00     0.157 HD
ENDBRANCH  24  25
ENDBRANCH  23  24
ENDBRANCH   1  23
TORSDOF 11
ENDMDL