MODEL 1
REMARK VINA RESULT: -9.261100241      0.000      0.000
REMARK  12 active torsions:
REMARK  status: ('A' for Active; 'I' for Inactive)
REMARK    1  A    between atoms: C2_2  and  C3_3
REMARK    2  A    between atoms: C3_3  and  C4_4
REMARK    3  A    between atoms: C5_7  and  N2_8
REMARK    4  A    between atoms: C6_13  and  N4_14
REMARK    5  A    between atoms: C7_17  and  C8_18
REMARK    6  A    between atoms: C8_18  and  C9_19
REMARK    7  A    between atoms: C9_19  and  C10_20
REMARK    8  A    between atoms: C10_20  and  C11_21
REMARK    9  A    between atoms: C11_21  and  C12_22
REMARK   10  A    between atoms: C12_22  and  N5_23
REMARK   11  A    between atoms: C17_29  and  C18_30
REMARK   12  A    between atoms: C18_30  and  O1_31
ROOT
HETATM    1  N5  UNL     1      34.229  12.608   6.427  1.00  0.00    -0.364 N
HETATM    2  C13 UNL     1      33.153  12.610   5.665  1.00  0.00     0.113 A
HETATM    3  C14 UNL     1      32.291  13.665   5.591  1.00  0.00     0.061 A
HETATM    4  C15 UNL     1      31.124  13.625   4.748  1.00  0.00     0.101 C
HETATM    5  N6  UNL     1      30.168  13.593   4.077  1.00  0.00    -0.191 NA
HETATM    6  C16 UNL     1      32.572  14.795   6.360  1.00  0.00     0.041 A
HETATM    7  C17 UNL     1      33.660  14.855   7.159  1.00  0.00     0.032 A
HETATM    8  C23 UNL     1      34.475  13.727   7.167  1.00  0.00     0.106 A
ENDROOT
BRANCH   1   9
HETATM    9  C12 UNL     1      35.241  11.585   6.551  1.00  0.00     0.128 C
BRANCH   9  10
HETATM   10  C11 UNL     1      34.700  10.233   6.794  1.00  0.00     0.020 C
BRANCH  10  11
HETATM   11  C10 UNL     1      34.781   9.336   5.614  1.00  0.00     0.002 C
BRANCH  11  12
HETATM   12  C9  UNL     1      36.120   9.368   4.901  1.00  0.00     0.005 C
BRANCH  12  13
HETATM   13  C8  UNL     1      35.879   9.638   3.446  1.00  0.00     0.044 C
BRANCH  13  14
HETATM   14  C7  UNL     1      35.336   8.455   2.729  1.00  0.00     0.009 A
HETATM   15  C4  UNL     1      34.003   8.382   2.449  1.00  0.00     0.036 A
HETATM   16  N1  UNL     1      33.519   7.235   1.894  1.00  0.00    -0.195 N
HETATM   17  C5  UNL     1      34.379   6.234   1.650  1.00  0.00     0.677 A
ATOM     18  H1  UNL     1      32.528   7.140   1.671  1.00  0.00     0.184 HD
HETATM   19  N3  UNL     1      35.712   6.309   1.930  1.00  0.00    -0.177 N
HETATM   20  C6  UNL     1      36.223   7.432   2.479  1.00  0.00     0.122 A
ATOM     21  H3  UNL     1      36.322   5.518   1.725  1.00  0.00     0.185 HD
BRANCH  15  22
HETATM   22  C3  UNL     1      33.072   9.529   2.650  1.00  0.00     0.058 C
BRANCH  22  23
HETATM   23  C2  UNL     1      31.652   9.052   2.836  1.00  0.00     0.002 C
HETATM   24  C1  UNL     1      31.035   9.933   3.917  1.00  0.00     0.005 C
ENDBRANCH  22  23
ENDBRANCH  15  22
BRANCH  17  25
HETATM   25  N2  UNL     1      33.900   5.137   1.111  1.00  0.00    -0.234 N
ATOM     26  H22 UNL     1      33.813   4.299   1.685  1.00  0.00     0.174 HD
ATOM     27  H21 UNL     1      33.635   5.171   0.127  1.00  0.00     0.174 HD
ENDBRANCH  17  25
BRANCH  20  28
HETATM   28  N4  UNL     1      37.474   7.468   2.744  1.00  0.00    -0.385 N
ATOM     29  H42 UNL     1      38.209   7.118   2.130  1.00  0.00     0.157 HD
ATOM     30  H41 UNL     1      37.773   7.887   3.624  1.00  0.00     0.157 HD
ENDBRANCH  20  28
ENDBRANCH  13  14
ENDBRANCH  12  13
ENDBRANCH  11  12
ENDBRANCH  10  11
ENDBRANCH   9  10
ENDBRANCH   1   9
BRANCH   7  31
HETATM   31  C18 UNL     1      34.116  15.984   7.929  1.00  0.00     0.149 C
HETATM   32  N7  UNL     1      34.608  17.184   7.510  1.00  0.00    -0.361 N
HETATM   33  C19 UNL     1      34.980  18.272   8.480  1.00  0.00     0.125 C
HETATM   34  C22 UNL     1      34.983  17.724   6.224  1.00  0.00     0.125 C
HETATM   35  C20 UNL     1      36.321  18.694   7.972  1.00  0.00     0.021 C
HETATM   36  C21 UNL     1      36.375  18.282   6.556  1.00  0.00     0.021 C
BRANCH  31  37
HETATM   37  O1  UNL     1      34.063  15.836   9.239  1.00  0.00    -0.346 OA
ATOM     38  H1  UNL     1      33.934  16.635   9.736  1.00  0.00     0.219 HD
ENDBRANCH  31  37
ENDBRANCH   7  31
TORSDOF 12
ENDMDL