MODEL 2
REMARK VINA RESULT: -8.272096423      3.042      6.837
REMARK  13 active torsions:
REMARK  status: ('A' for Active; 'I' for Inactive)
REMARK    1  A    between atoms: C2_2  and  N1_5
REMARK       I    between atoms: N1_5  and  C5_7
REMARK    2  A    between atoms: C5_7  and  C6_9
REMARK    3  A    between atoms: N2_15  and  C12_16
REMARK    4  A    between atoms: C12_16  and  O2_17
REMARK    5  A    between atoms: C12_16  and  C13_19
REMARK    6  A    between atoms: C13_19  and  N3_22
REMARK    7  A    between atoms: N3_22  and  C16_24
REMARK    8  A    between atoms: C16_24  and  C17_25
REMARK    9  A    between atoms: C17_25  and  N4_26
REMARK   10  A    between atoms: C17_25  and  C18_30
REMARK   11  A    between atoms: C18_30  and  C19_31
REMARK   12  A    between atoms: C19_31  and  C20_32
REMARK   13  A    between atoms: C20_32  and  N5_33
REMARK       I    between atoms: N5_33  and  C21_35
ROOT
HETATM    1  C13 UNL     1      33.388   9.501  -0.370  1.00  0.00     0.084 C
HETATM    2  C14 UNL     1      34.019   8.103  -0.267  1.00  0.00     0.046 C
HETATM    3  C15 UNL     1      33.540  10.037  -1.769  1.00  0.00     0.046 C
ENDROOT
BRANCH   1   4
HETATM    4  C12 UNL     1      31.999   9.399   0.080  1.00  0.00     0.142 C
BRANCH   4   5
HETATM    5  N2  UNL     1      31.383   9.958   1.231  1.00  0.00    -0.350 N
HETATM    6  C6  UNL     1      30.912  11.335   1.057  1.00  0.00     0.178 C
HETATM    7  C7  UNL     1      31.084  12.221   2.225  1.00  0.00     0.035 C
HETATM    8  C8  UNL     1      32.134  11.852   3.212  1.00  0.00     0.002 C
HETATM    9  C9  UNL     1      31.687  10.775   4.173  1.00  0.00     0.002 C
HETATM   10  C10 UNL     1      30.648   9.872   3.551  1.00  0.00     0.020 C
HETATM   11  C11 UNL     1      31.257   9.098   2.377  1.00  0.00     0.125 C
BRANCH   6  12
HETATM   12  C5  UNL     1      29.521  11.384   0.553  1.00  0.00     0.241 C
HETATM   13  N1  UNL     1      29.207  11.111  -0.795  1.00  0.00    -0.351 N
ATOM     14  H1  UNL     1      29.973  10.874  -1.426  1.00  0.00     0.163 HD
HETATM   15  O1  UNL     1      28.606  11.678   1.349  1.00  0.00    -0.271 OA
BRANCH  13  16
HETATM   16  C2  UNL     1      27.873  11.145  -1.338  1.00  0.00     0.022 C
HETATM   17  C1  UNL     1      26.934  10.207  -0.636  1.00  0.00     0.037 C
HETATM   18  C3  UNL     1      27.281  12.545  -1.268  1.00  0.00     0.037 C
HETATM   19  C4  UNL     1      27.943  10.727  -2.791  1.00  0.00     0.037 C
ENDBRANCH  13  16
ENDBRANCH   6  12
ENDBRANCH   4   5
BRANCH   4  20
HETATM   20  O2  UNL     1      31.199   8.695  -0.675  1.00  0.00    -0.348 OA
ATOM     21  H2  UNL     1      30.585   9.211  -1.186  1.00  0.00     0.219 HD
ENDBRANCH   4  20
ENDBRANCH   1   4
BRANCH   1  22
HETATM   22  N3  UNL     1      34.174  10.312   0.534  1.00  0.00    -0.405 N
ATOM     23  H3  UNL     1      33.952  11.298   0.675  1.00  0.00     0.154 HD
BRANCH  22  24
HETATM   24  C16 UNL     1      35.247   9.717   1.214  1.00  0.00     0.147 C
BRANCH  24  25
HETATM   25  C17 UNL     1      35.244  10.059   2.716  1.00  0.00     0.200 C
BRANCH  25  26
HETATM   26  N4  UNL     1      36.455  10.656   3.164  1.00  0.00    -0.073 N
ATOM     27  H43 UNL     1      37.121  10.742   2.395  1.00  0.00     0.274 HD
ATOM     28  H42 UNL     1      36.314  11.643   3.377  1.00  0.00     0.274 HD
ATOM     29  H41 UNL     1      36.878  10.173   3.956  1.00  0.00     0.274 HD
ENDBRANCH  25  26
BRANCH  25  30
HETATM   30  C18 UNL     1      34.919   8.829   3.509  1.00  0.00     0.036 C
BRANCH  30  31
HETATM   31  C19 UNL     1      35.616   7.597   3.098  1.00  0.00     0.022 C
BRANCH  31  32
HETATM   32  C20 UNL     1      34.766   6.421   2.774  1.00  0.00     0.122 C
BRANCH  32  33
HETATM   33  N5  UNL     1      35.623   5.413   2.112  1.00  0.00    -0.365 N
HETATM   34  C21 UNL     1      35.368   4.022   2.281  1.00  0.00     0.181 C
HETATM   35  N6  UNL     1      36.263   3.132   1.975  1.00  0.00    -0.374 N
HETATM   36  N7  UNL     1      34.132   3.549   2.788  1.00  0.00    -0.064 NA
ATOM     37  H62 UNL     1      37.152   3.473   1.609  1.00  0.00     0.158 HD
ATOM     38  H61 UNL     1      36.080   2.136   2.096  1.00  0.00     0.158 HD
ATOM     39  H5  UNL     1      36.403   5.717   1.530  1.00  0.00     0.162 HD
ENDBRANCH  32  33
ENDBRANCH  31  32
ENDBRANCH  30  31
ENDBRANCH  25  30
ENDBRANCH  24  25
ENDBRANCH  22  24
ENDBRANCH   1  22
TORSDOF 13
ENDMDL