MODEL 4
REMARK VINA RESULT: -9.086898804      2.804      7.386
REMARK  9 active torsions:
REMARK  status: ('A' for Active; 'I' for Inactive)
REMARK       I    between atoms: C1_4  and  N3_6
REMARK    1  A    between atoms: N3_6  and  C2_8
REMARK    2  A    between atoms: C2_8  and  C3_9
REMARK    3  A    between atoms: C3_9  and  C4_10
REMARK    4  A    between atoms: C4_10  and  C5_11
REMARK    5  A    between atoms: C5_11  and  N4_12
REMARK    6  A    between atoms: C5_11  and  C10_22
REMARK       I    between atoms: N4_12  and  C6_14
REMARK    7  A    between atoms: C6_14  and  C7_16
REMARK       I    between atoms: C10_22  and  N6_24
REMARK    8  A    between atoms: C13_27  and  C14_28
REMARK    9  A    between atoms: C14_28  and  C15_29
ROOT
HETATM    1  C5  UNL     1      34.367   7.096   1.441  1.00  0.00     0.176 C
ENDROOT
BRANCH   1   2
HETATM    2  C4  UNL     1      34.564   5.664   1.172  1.00  0.00     0.036 C
BRANCH   2   3
HETATM    3  C3  UNL     1      35.073   4.802   2.266  1.00  0.00     0.022 C
BRANCH   3   4
HETATM    4  C2  UNL     1      34.665   3.378   2.197  1.00  0.00     0.122 C
BRANCH   4   5
HETATM    5  N3  UNL     1      34.444   3.012   0.804  1.00  0.00    -0.365 N
HETATM    6  C1  UNL     1      33.170   2.746   0.274  1.00  0.00     0.181 C
HETATM    7  N1  UNL     1      32.059   3.073   0.820  1.00  0.00    -0.374 N
HETATM    8  N2  UNL     1      33.089   2.053  -0.981  1.00  0.00    -0.064 NA
ATOM      9  H12 UNL     1      31.134   2.880   0.435  1.00  0.00     0.158 HD
ATOM     10  H11 UNL     1      32.116   3.566   1.711  1.00  0.00     0.158 HD
ATOM     11  H3  UNL     1      35.252   2.946   0.184  1.00  0.00     0.162 HD
ENDBRANCH   4   5
ENDBRANCH   3   4
ENDBRANCH   2   3
ENDBRANCH   1   2
BRANCH   1  12
HETATM   12  N4  UNL     1      33.881   7.899   0.358  1.00  0.00    -0.346 N
HETATM   13  C6  UNL     1      32.762   8.765   0.464  1.00  0.00     0.249 C
HETATM   14  O1  UNL     1      32.158   8.843   1.550  1.00  0.00    -0.271 OA
ATOM     15  H4  UNL     1      34.365   7.845  -0.538  1.00  0.00     0.163 HD
BRANCH  13  16
HETATM   16  C7  UNL     1      32.330   9.552  -0.694  1.00  0.00     0.278 C
HETATM   17  C8  UNL     1      31.573   8.775  -1.752  1.00  0.00     0.070 C
HETATM   18  C9  UNL     1      32.577   9.354  -2.725  1.00  0.00     0.236 C
HETATM   19  N5  UNL     1      33.427   9.728  -1.634  1.00  0.00    -0.062 N
ATOM     20  H52 UNL     1      33.928  10.616  -1.666  1.00  0.00     0.278 HD
ATOM     21  H51 UNL     1      34.306   9.231  -1.485  1.00  0.00     0.278 HD
ENDBRANCH  13  16
ENDBRANCH   1  12
BRANCH   1  22
HETATM   22  C10 UNL     1      35.643   7.758   1.903  1.00  0.00     0.242 C
HETATM   23  O2  UNL     1      36.576   7.820   1.058  1.00  0.00    -0.271 OA
HETATM   24  N6  UNL     1      35.834   8.293   3.190  1.00  0.00    -0.350 N
HETATM   25  C11 UNL     1      34.758   8.300   4.144  1.00  0.00     0.126 C
HETATM   26  C22 UNL     1      37.132   8.815   3.521  1.00  0.00     0.126 C
HETATM   27  C12 UNL     1      34.746   9.649   4.852  1.00  0.00     0.024 C
HETATM   28  C13 UNL     1      36.073   9.876   5.543  1.00  0.00    -0.011 C
HETATM   29  C21 UNL     1      37.144   9.933   4.506  1.00  0.00     0.024 C
BRANCH  28  30
HETATM   30  C14 UNL     1      35.964  11.191   6.256  1.00  0.00     0.009 C
BRANCH  30  31
HETATM   31  C15 UNL     1      35.046  12.192   5.676  1.00  0.00    -0.014 C
HETATM   32  C16 UNL     1      35.677  13.215   4.793  1.00  0.00     0.005 C
HETATM   33  C17 UNL     1      34.851  14.484   4.899  1.00  0.00     0.000 C
HETATM   34  C18 UNL     1      35.263  15.147   6.210  1.00  0.00     0.000 C
HETATM   35  C19 UNL     1      35.333  14.063   7.252  1.00  0.00     0.000 C
HETATM   36  C20 UNL     1      34.394  12.943   6.845  1.00  0.00     0.005 C
ENDBRANCH  30  31
ENDBRANCH  28  30
ENDBRANCH   1  22
TORSDOF 9
ENDMDL