MODEL 3
REMARK VINA RESULT: -8.229153470      0.743      1.743
REMARK  13 active torsions:
REMARK  status: ('A' for Active; 'I' for Inactive)
REMARK    1  A    between atoms: C2_2  and  N1_3
REMARK    2  A    between atoms: N1_3  and  C3_4
REMARK    3  A    between atoms: N1_3  and  C5_10
REMARK    4  A    between atoms: C3_4  and  C4_5
REMARK    5  A    between atoms: C4_5  and  N2_6
REMARK    6  A    between atoms: C5_10  and  C6_14
REMARK    7  A    between atoms: C14_22  and  O1_23
REMARK    8  A    between atoms: C15_27  and  C16_28
REMARK    9  A    between atoms: C16_28  and  C17_29
REMARK   10  A    between atoms: C17_29  and  N5_30
REMARK   11  A    between atoms: N5_30  and  C20_33
REMARK   12  A    between atoms: C20_33  and  C21_34
REMARK   13  A    between atoms: C21_34  and  O2_35
ROOT
HETATM    1  C6  UNL     1      28.360  10.389  -0.899  1.00  0.00     0.009 A
HETATM    2  C7  UNL     1      29.075   9.774  -1.881  1.00  0.00     0.024 A
HETATM    3  C8  UNL     1      30.457   9.577  -1.880  1.00  0.00    -0.033 A
HETATM    4  C9  UNL     1      31.135   8.894  -2.985  1.00  0.00     0.050 C
HETATM    5  C10 UNL     1      31.165  10.046  -0.794  1.00  0.00     0.052 A
HETATM    6  C11 UNL     1      30.472  10.687   0.242  1.00  0.00     0.009 A
HETATM    7  C12 UNL     1      29.109  10.859   0.200  1.00  0.00     0.030 A
HETATM    8  C13 UNL     1      31.400  11.052   1.199  1.00  0.00     0.056 A
HETATM    9  C14 UNL     1      31.532  11.657   2.406  1.00  0.00     0.154 A
HETATM   10  N4  UNL     1      32.831  11.633   2.729  1.00  0.00    -0.338 N
ATOM     11  H4  UNL     1      33.227  12.020   3.586  1.00  0.00     0.168 HD
HETATM   12  C15 UNL     1      33.541  11.021   1.750  1.00  0.00     0.041 A
HETATM   13  C22 UNL     1      32.642  10.649   0.776  1.00  0.00     0.073 A
HETATM   14  N6  UNL     1      32.453  10.054  -0.419  1.00  0.00    -0.348 N
HETATM   15  C23 UNL     1      33.507   9.473  -1.259  1.00  0.00     0.156 C
ENDROOT
BRANCH   1  16
HETATM   16  C5  UNL     1      26.922  10.569  -0.891  1.00  0.00     0.107 C
HETATM   17  N3  UNL     1      26.232   9.424  -0.983  1.00  0.00    -0.385 N
ATOM     18  H32 UNL     1      25.220   9.550  -0.978  1.00  0.00     0.157 HD
ATOM     19  H31 UNL     1      26.821   8.593  -1.040  1.00  0.00     0.157 HD
BRANCH  16  20
HETATM   20  N1  UNL     1      26.122  11.700  -0.812  1.00  0.00    -0.366 N
BRANCH  20  21
HETATM   21  C2  UNL     1      25.532  12.000   0.533  1.00  0.00     0.120 C
HETATM   22  C1  UNL     1      26.279  13.155   1.106  1.00  0.00     0.026 C
ENDBRANCH  20  21
BRANCH  20  23
HETATM   23  C3  UNL     1      25.819  12.714  -1.785  1.00  0.00     0.151 C
BRANCH  23  24
HETATM   24  C4  UNL     1      25.966  12.312  -3.210  1.00  0.00     0.249 C
BRANCH  24  25
HETATM   25  N2  UNL     1      27.205  12.492  -3.857  1.00  0.00    -0.078 N
ATOM     26  H23 UNL     1      27.909  12.717  -3.154  1.00  0.00     0.274 HD
ATOM     27  H22 UNL     1      27.533  11.585  -4.190  1.00  0.00     0.274 HD
ATOM     28  H21 UNL     1      27.280  13.166  -4.620  1.00  0.00     0.274 HD
ENDBRANCH  24  25
ENDBRANCH  23  24
ENDBRANCH  20  23
ENDBRANCH  16  20
ENDBRANCH   1  16
BRANCH   9  29
HETATM   29  O1  UNL     1      30.468  12.198   3.146  1.00  0.00    -0.345 OA
ATOM     30  H1  UNL     1      30.254  13.123   3.183  1.00  0.00     0.219 HD
ENDBRANCH   9  29
BRANCH  12  31
HETATM   31  C16 UNL     1      35.004  10.783   1.739  1.00  0.00     0.087 C
BRANCH  31  32
HETATM   32  C17 UNL     1      35.529  10.302   3.042  1.00  0.00     0.242 C
BRANCH  32  33
HETATM   33  N5  UNL     1      35.925   8.886   2.890  1.00  0.00    -0.072 N
HETATM   34  C18 UNL     1      35.051   8.128   3.719  1.00  0.00     0.272 C
HETATM   35  C19 UNL     1      37.279   8.760   3.441  1.00  0.00     0.272 C
BRANCH  33  36
HETATM   36  C20 UNL     1      35.978   8.537   1.509  1.00  0.00     0.262 C
BRANCH  36  37
HETATM   37  C21 UNL     1      35.537   7.148   1.237  1.00  0.00     0.192 C
BRANCH  37  38
HETATM   38  O2  UNL     1      35.545   6.771  -0.099  1.00  0.00    -0.399 OA
ATOM     39  H2  UNL     1      34.694   6.740  -0.519  1.00  0.00     0.209 HD
ENDBRANCH  37  38
ENDBRANCH  36  37
ENDBRANCH  33  36
ENDBRANCH  32  33
ENDBRANCH  31  32
ENDBRANCH  12  31
TORSDOF 13
ENDMDL