MODEL 2
REMARK VINA RESULT: -7.211109265      1.639      2.666
REMARK  8 active torsions:
REMARK  status: ('A' for Active; 'I' for Inactive)
REMARK    1  A    between atoms: C2_2  and  N1_3
REMARK    2  A    between atoms: C3_5  and  C4_7
REMARK    3  A    between atoms: C4_7  and  N3_8
REMARK    4  A    between atoms: C7_11  and  C8_12
REMARK    5  A    between atoms: C8_12  and  N4_13
REMARK    6  A    between atoms: N4_13  and  C9_16
REMARK    7  A    between atoms: C9_16  and  C10_17
REMARK    8  A    between atoms: C14_21  and  N5_22
ROOT
HETATM    1  N4  UNL     1      35.582   8.493   4.606  1.00  0.00    -0.074 N
ATOM      2  H41 UNL     1      35.883   7.792   5.283  1.00  0.00     0.277 HD
ATOM      3  H42 UNL     1      34.885   7.933   4.117  1.00  0.00     0.277 HD
ENDROOT
BRANCH   1   4
HETATM    4  C8  UNL     1      36.641   8.905   3.750  1.00  0.00     0.238 C
BRANCH   4   5
HETATM    5  C7  UNL     1      36.635   8.377   2.360  1.00  0.00     0.041 C
HETATM    6  C6  UNL     1      35.685   7.173   2.359  1.00  0.00     0.038 C
HETATM    7  C5  UNL     1      35.363   7.134   0.868  1.00  0.00     0.273 C
HETATM    8  N3  UNL     1      35.107   8.495   0.513  1.00  0.00     0.095 N
HETATM    9  C16 UNL     1      36.029   9.302   1.327  1.00  0.00     0.279 C
BRANCH   8  10
HETATM   10  C4  UNL     1      33.765   8.944   0.661  1.00  0.00     0.345 C
BRANCH  10  11
HETATM   11  C3  UNL     1      33.288   9.797  -0.435  1.00  0.00     0.121 C
HETATM   12  N1  UNL     1      32.117  10.208  -0.527  1.00  0.00    -0.360 N
ATOM     13  H1  UNL     1      32.022  10.775  -1.370  1.00  0.00     0.165 HD
HETATM   14  N2  UNL     1      34.182  10.205  -1.489  1.00  0.00    -0.086 NA
BRANCH  12  15
HETATM   15  C2  UNL     1      30.905  10.152   0.129  1.00  0.00     0.057 C
HETATM   16  C1  UNL     1      30.413  11.481   0.678  1.00  0.00     0.054 C
ENDBRANCH  12  15
ENDBRANCH  10  11
ENDBRANCH   8  10
ENDBRANCH   4   5
ENDBRANCH   1   4
BRANCH   1  17
HETATM   17  C9  UNL     1      35.005   9.650   5.241  1.00  0.00     0.237 C
BRANCH  17  18
HETATM   18  C10 UNL     1      33.531   9.751   5.201  1.00  0.00     0.013 C
HETATM   19  C11 UNL     1      33.056  10.255   3.825  1.00  0.00     0.006 C
HETATM   20  C12 UNL     1      31.615   9.796   3.727  1.00  0.00     0.002 C
HETATM   21  C13 UNL     1      30.802  10.450   4.783  1.00  0.00     0.033 C
HETATM   22  C14 UNL     1      31.526  11.087   5.907  1.00  0.00     0.183 C
HETATM   23  C15 UNL     1      32.838  10.462   6.292  1.00  0.00     0.039 C
BRANCH  22  24
HETATM   24  N5  UNL     1      31.633  12.517   5.699  1.00  0.00    -0.075 N
ATOM     25  H53 UNL     1      31.306  12.791   4.773  1.00  0.00     0.274 HD
ATOM     26  H52 UNL     1      30.955  13.033   6.260  1.00  0.00     0.274 HD
ATOM     27  H51 UNL     1      32.587  12.835   5.872  1.00  0.00     0.274 HD
ENDBRANCH  22  24
ENDBRANCH  17  18
ENDBRANCH   1  17
TORSDOF 8
ENDMDL