MODEL 3
REMARK VINA RESULT: -7.160304209      1.662      2.011
REMARK  10 active torsions:
REMARK  status: ('A' for Active; 'I' for Inactive)
REMARK    1  A    between atoms: N1_1  and  C1_5
REMARK    2  A    between atoms: C1_5  and  C2_6
REMARK    3  A    between atoms: C2_6  and  C3_7
REMARK    4  A    between atoms: C3_7  and  C4_8
REMARK    5  A    between atoms: C4_8  and  C5_9
REMARK    6  A    between atoms: C5_9  and  C6_10
REMARK    7  A    between atoms: C6_10  and  N2_11
REMARK    8  A    between atoms: N2_11  and  C7_13
REMARK    9  A    between atoms: C9_20  and  N5_21
REMARK   10  A    between atoms: N5_21  and  C10_23
ROOT
HETATM    1  C7  UNL     1      35.403   8.385   2.656  1.00  0.00     0.696 A
HETATM    2  N3  UNL     1      35.417   7.149   3.175  1.00  0.00    -0.140 N
ATOM      3  H3  UNL     1      35.939   6.951   4.029  1.00  0.00     0.189 HD
HETATM    4  C8  UNL     1      34.719   6.157   2.542  1.00  0.00     0.352 A
HETATM    5  O1  UNL     1      34.758   5.005   3.065  1.00  0.00    -0.246 OA
HETATM    6  N4  UNL     1      34.025   6.400   1.416  1.00  0.00    -0.140 N
ATOM      7  H4  UNL     1      33.513   5.643   0.962  1.00  0.00     0.189 HD
HETATM    8  C9  UNL     1      34.003   7.635   0.886  1.00  0.00     0.697 A
HETATM    9  N6  UNL     1      34.689   8.590   1.516  1.00  0.00    -0.022 N
ATOM     10  H6  UNL     1      34.677   9.530   1.120  1.00  0.00     0.203 HD
ENDROOT
BRANCH   1  11
HETATM   11  N2  UNL     1      36.043   9.343   3.217  1.00  0.00    -0.225 N
ATOM     12  H2  UNL     1      36.190  10.196   2.677  1.00  0.00     0.177 HD
BRANCH  11  13
HETATM   13  C6  UNL     1      36.567   9.300   4.546  1.00  0.00     0.138 C
BRANCH  13  14
HETATM   14  C5  UNL     1      35.758  10.259   5.434  1.00  0.00     0.020 C
BRANCH  14  15
HETATM   15  C4  UNL     1      34.703   9.466   6.152  1.00  0.00     0.002 C
BRANCH  15  16
HETATM   16  C3  UNL     1      33.393  10.187   6.144  1.00  0.00     0.002 C
BRANCH  16  17
HETATM   17  C2  UNL     1      32.788  10.141   4.782  1.00  0.00     0.027 C
BRANCH  17  18
HETATM   18  C1  UNL     1      31.314  10.571   4.821  1.00  0.00     0.229 C
BRANCH  18  19
HETATM   19  N1  UNL     1      31.035  11.298   6.030  1.00  0.00    -0.079 N
ATOM     20  H13 UNL     1      30.833  12.280   5.844  1.00  0.00     0.274 HD
ATOM     21  H12 UNL     1      30.138  11.033   6.434  1.00  0.00     0.274 HD
ATOM     22  H11 UNL     1      31.799  11.187   6.696  1.00  0.00     0.274 HD
ENDBRANCH  18  19
ENDBRANCH  17  18
ENDBRANCH  16  17
ENDBRANCH  15  16
ENDBRANCH  14  15
ENDBRANCH  13  14
ENDBRANCH  11  13
ENDBRANCH   1  11
BRANCH   8  23
HETATM   23  N5  UNL     1      33.327   7.867  -0.207  1.00  0.00    -0.221 N
ATOM     24  H5  UNL     1      33.087   7.092  -0.825  1.00  0.00     0.178 HD
BRANCH  23  25
HETATM   25  C10 UNL     1      32.915   9.212  -0.551  1.00  0.00     0.099 C
HETATM   26  C11 UNL     1      31.418   9.265  -0.690  1.00  0.00     0.026 C
HETATM   27  C12 UNL     1      31.228   8.669  -2.091  1.00  0.00     0.002 C
HETATM   28  C13 UNL     1      32.255   9.448  -2.874  1.00  0.00     0.002 C
HETATM   29  C14 UNL     1      33.435   9.495  -1.961  1.00  0.00     0.026 C
ENDBRANCH  23  25
ENDBRANCH   8  23
TORSDOF 10
ENDMDL