MODEL 5
REMARK VINA RESULT: -7.325560198      3.534      4.660
REMARK  9 active torsions:
REMARK  status: ('A' for Active; 'I' for Inactive)
REMARK    1  A    between atoms: N2_3  and  C2_5
REMARK    2  A    between atoms: N3_11  and  C8_12
REMARK    3  A    between atoms: C8_12  and  C9_13
REMARK    4  A    between atoms: C9_13  and  C10_14
REMARK    5  A    between atoms: C10_14  and  C11_15
REMARK    6  A    between atoms: C11_15  and  C12_16
REMARK    7  A    between atoms: C12_16  and  C13_17
REMARK    8  A    between atoms: C13_17  and  C14_18
REMARK    9  A    between atoms: C14_18  and  O1_19
ROOT
HETATM    1  N1  UNL     1      34.600   4.033   2.828  1.00  0.00    -0.172 NA
HETATM    2  C1  UNL     1      35.133   4.887   2.235  1.00  0.00     0.179 C
HETATM    3  N2  UNL     1      35.767   5.906   1.501  1.00  0.00    -0.293 N
ATOM      4  H2  UNL     1      36.336   5.678   0.686  1.00  0.00     0.174 HD
ENDROOT
BRANCH   3   5
HETATM    5  C2  UNL     1      35.601   7.282   1.914  1.00  0.00     0.230 C
HETATM    6  C3  UNL     1      36.361   7.474   3.217  1.00  0.00     0.070 C
HETATM    7  C4  UNL     1      36.014   8.847   3.713  1.00  0.00     0.018 C
HETATM    8  C5  UNL     1      36.549   9.839   2.681  1.00  0.00     0.041 C
HETATM    9  C15 UNL     1      34.527   9.024   3.926  1.00  0.00     0.242 C
HETATM   10  C6  UNL     1      35.817   9.552   1.388  1.00  0.00     0.215 C
HETATM   11  C7  UNL     1      34.335   9.783   1.669  1.00  0.00     0.270 C
HETATM   12  N4  UNL     1      36.090   8.221   0.948  1.00  0.00    -0.040 N
HETATM   13  N3  UNL     1      33.853   8.842   2.665  1.00  0.00    -0.061 N
HETATM   14  C16 UNL     1      34.134   7.510   2.156  1.00  0.00     0.299 C
ATOM     15  H42 UNL     1      37.079   8.079   0.742  1.00  0.00     0.280 HD
ATOM     16  H41 UNL     1      35.718   8.041   0.015  1.00  0.00     0.280 HD
BRANCH  13  17
HETATM   17  C8  UNL     1      32.424   8.936   2.755  1.00  0.00     0.237 C
BRANCH  17  18
HETATM   18  C9  UNL     1      31.861  10.236   3.116  1.00  0.00     0.028 C
BRANCH  18  19
HETATM   19  C10 UNL     1      30.708  10.103   4.147  1.00  0.00     0.002 C
BRANCH  19  20
HETATM   20  C11 UNL     1      31.015  10.863   5.379  1.00  0.00     0.000 C
BRANCH  20  21
HETATM   21  C12 UNL     1      32.396  11.294   5.660  1.00  0.00     0.002 C
BRANCH  21  22
HETATM   22  C13 UNL     1      33.223  10.663   6.705  1.00  0.00     0.026 C
BRANCH  22  23
HETATM   23  C14 UNL     1      34.621  11.155   6.885  1.00  0.00     0.164 C
BRANCH  23  24
HETATM   24  O1  UNL     1      35.002  11.012   8.240  1.00  0.00    -0.401 OA
ATOM     25  H1  UNL     1      34.295  10.606   8.727  1.00  0.00     0.209 HD
ENDBRANCH  23  24
ENDBRANCH  22  23
ENDBRANCH  21  22
ENDBRANCH  20  21
ENDBRANCH  19  20
ENDBRANCH  18  19
ENDBRANCH  17  18
ENDBRANCH  13  17
ENDBRANCH   3   5
TORSDOF 9
ENDMDL