MODEL 1
REMARK VINA RESULT: -7.905323061      0.000      0.000
REMARK  9 active torsions:
REMARK  status: ('A' for Active; 'I' for Inactive)
REMARK    1  A    between atoms: N1_1  and  C1_4
REMARK    2  A    between atoms: C3_11  and  N4_12
REMARK    3  A    between atoms: N4_12  and  C4_14
REMARK    4  A    between atoms: C4_14  and  C5_15
REMARK    5  A    between atoms: C5_15  and  C6_16
REMARK    6  A    between atoms: C6_16  and  C7_17
REMARK    7  A    between atoms: C7_17  and  C8_18
REMARK    8  A    between atoms: C8_18  and  C9_19
REMARK    9  A    between atoms: C9_19  and  N5_20
ROOT
HETATM    1  N4  UNL     1      35.160   6.805   0.447  1.00  0.00    -0.225 N
ATOM      2  H4  UNL     1      35.344   6.908  -0.551  1.00  0.00     0.177 HD
ENDROOT
BRANCH   1   3
HETATM    3  C3  UNL     1      34.826   5.642   0.890  1.00  0.00     0.696 A
HETATM    4  N3  UNL     1      35.574   5.001   1.801  1.00  0.00    -0.140 N
HETATM    5  C2  UNL     1      35.226   3.779   2.272  1.00  0.00     0.352 A
ATOM      6  H3  UNL     1      36.426   5.444   2.146  1.00  0.00     0.189 HD
HETATM    7  N2  UNL     1      34.107   3.162   1.839  1.00  0.00    -0.141 N
HETATM    8  O1  UNL     1      35.949   3.202   3.126  1.00  0.00    -0.246 OA
HETATM    9  C1  UNL     1      33.353   3.802   0.925  1.00  0.00     0.694 A
ATOM     10  H2  UNL     1      33.841   2.243   2.192  1.00  0.00     0.189 HD
HETATM   11  N6  UNL     1      33.713   5.013   0.467  1.00  0.00    -0.022 N
ATOM     12  H6  UNL     1      33.122   5.473  -0.226  1.00  0.00     0.203 HD
BRANCH   9  13
HETATM   13  N1  UNL     1      32.280   3.220   0.502  1.00  0.00    -0.234 N
ATOM     14  H12 UNL     1      32.307   2.273   0.123  1.00  0.00     0.174 HD
ATOM     15  H11 UNL     1      31.399   3.732   0.556  1.00  0.00     0.174 HD
ENDBRANCH   9  13
ENDBRANCH   1   3
BRANCH   1  16
HETATM   16  C4  UNL     1      35.286   7.971   1.293  1.00  0.00     0.138 C
BRANCH  16  17
HETATM   17  C5  UNL     1      36.699   8.295   1.626  1.00  0.00     0.020 C
BRANCH  17  18
HETATM   18  C6  UNL     1      36.955   8.134   3.092  1.00  0.00     0.002 C
BRANCH  18  19
HETATM   19  C7  UNL     1      36.976   9.458   3.775  1.00  0.00     0.002 C
BRANCH  19  20
HETATM   20  C8  UNL     1      36.209   9.427   5.089  1.00  0.00     0.019 C
BRANCH  20  21
HETATM   21  C9  UNL     1      34.835   8.875   4.811  1.00  0.00     0.117 C
BRANCH  21  22
HETATM   22  N5  UNL     1      33.991   9.913   4.332  1.00  0.00    -0.412 N
HETATM   23  C10 UNL     1      33.701  10.981   5.212  1.00  0.00     0.117 C
HETATM   24  C11 UNL     1      32.512  10.584   6.067  1.00  0.00     0.019 C
HETATM   25  C12 UNL     1      31.328  10.552   5.133  1.00  0.00     0.003 C
HETATM   26  C13 UNL     1      31.546   9.802   3.876  1.00  0.00     0.019 C
HETATM   27  C14 UNL     1      32.932   9.493   3.480  1.00  0.00     0.117 C
ENDBRANCH  21  22
ENDBRANCH  20  21
ENDBRANCH  19  20
ENDBRANCH  18  19
ENDBRANCH  17  18
ENDBRANCH  16  17
ENDBRANCH   1  16
TORSDOF 9
ENDMDL