MODEL 2
REMARK VINA RESULT: -6.761630997      3.191      4.710
REMARK  9 active torsions:
REMARK  status: ('A' for Active; 'I' for Inactive)
REMARK    1  A    between atoms: C2_2  and  N1_3
REMARK    2  A    between atoms: N1_3  and  C3_5
REMARK    3  A    between atoms: C6_13  and  N4_14
REMARK    4  A    between atoms: N4_14  and  C7_16
REMARK    5  A    between atoms: C7_16  and  C8_17
REMARK    6  A    between atoms: C8_17  and  C9_18
REMARK    7  A    between atoms: C9_18  and  C10_19
REMARK    8  A    between atoms: C10_19  and  C11_20
REMARK    9  A    between atoms: C11_20  and  O2_21
ROOT
HETATM    1  C3  UNL     1      35.327   5.732   1.871  1.00  0.00     0.682 A
HETATM    2  N2  UNL     1      36.354   6.553   1.608  1.00  0.00    -0.154 N
ATOM      3  H2  UNL     1      37.303   6.187   1.529  1.00  0.00     0.187 HD
HETATM    4  C4  UNL     1      36.115   7.866   1.449  1.00  0.00     0.290 A
HETATM    5  O1  UNL     1      37.067   8.638   1.204  1.00  0.00    -0.265 OA
HETATM    6  C5  UNL     1      34.818   8.326   1.562  1.00  0.00     0.162 A
HETATM    7  N3  UNL     1      34.247   9.536   1.464  1.00  0.00    -0.182 N
ATOM      8  H3  UNL     1      34.754  10.399   1.267  1.00  0.00     0.184 HD
HETATM    9  C6  UNL     1      32.929   9.462   1.659  1.00  0.00     0.680 A
HETATM   10  N5  UNL     1      32.649   8.168   1.886  1.00  0.00    -0.174 N
ATOM     11  H5  UNL     1      31.721   7.787   2.069  1.00  0.00     0.186 HD
HETATM   12  C13 UNL     1      33.783   7.457   1.833  1.00  0.00     0.169 A
HETATM   13  N6  UNL     1      34.046   6.151   1.987  1.00  0.00    -0.174 N
ATOM     14  H6  UNL     1      33.297   5.488   2.188  1.00  0.00     0.186 HD
ENDROOT
BRANCH   9  15
HETATM   15  N4  UNL     1      32.059  10.399   1.643  1.00  0.00    -0.226 N
ATOM     16  H4  UNL     1      31.748  10.789   2.532  1.00  0.00     0.177 HD
BRANCH  15  17
HETATM   17  C7  UNL     1      31.494  10.935   0.416  1.00  0.00     0.138 C
BRANCH  17  18
HETATM   18  C8  UNL     1      30.377  10.049  -0.027  1.00  0.00     0.020 C
BRANCH  18  19
HETATM   19  C9  UNL     1      29.569  10.634  -1.187  1.00  0.00     0.004 C
BRANCH  19  20
HETATM   20  C10 UNL     1      29.428   9.676  -2.301  1.00  0.00     0.026 C
BRANCH  20  21
HETATM   21  C11 UNL     1      30.600   8.882  -2.714  1.00  0.00     0.167 C
BRANCH  21  22
HETATM   22  O2  UNL     1      31.699   9.387  -3.234  1.00  0.00    -0.396 OA
HETATM   23  C12 UNL     1      32.918   9.439  -2.720  1.00  0.00     0.201 C
ENDBRANCH  21  22
ENDBRANCH  20  21
ENDBRANCH  19  20
ENDBRANCH  18  19
ENDBRANCH  17  18
ENDBRANCH  15  17
ENDBRANCH   9  15
BRANCH   1  24
HETATM   24  N1  UNL     1      35.586   4.464   2.020  1.00  0.00    -0.226 N
ATOM     25  H1  UNL     1      36.553   4.147   2.080  1.00  0.00     0.177 HD
BRANCH  24  26
HETATM   26  C2  UNL     1      34.507   3.506   2.100  1.00  0.00     0.133 C
HETATM   27  C1  UNL     1      34.392   2.773   0.787  1.00  0.00     0.027 C
ENDBRANCH  24  26
ENDBRANCH   1  24
TORSDOF 9
ENDMDL