MODEL 2
REMARK VINA RESULT: -7.479791610      2.035      2.885
REMARK  8 active torsions:
REMARK  status: ('A' for Active; 'I' for Inactive)
REMARK    1  A    between atoms: C2_2  and  C3_3
REMARK    2  A    between atoms: C3_3  and  C4_4
REMARK    3  A    between atoms: C4_4  and  O1_5
REMARK    4  A    between atoms: O1_5  and  C5_6
REMARK    5  A    between atoms: C5_6  and  C6_7
REMARK    6  A    between atoms: C6_7  and  C7_8
REMARK    7  A    between atoms: C7_8  and  N1_9
REMARK    8  A    between atoms: N1_9  and  C8_10
ROOT
HETATM    1  C6  UNL     1      35.200   8.503   2.581  1.00  0.00     0.116 C
HETATM    2  C11 UNL     1      36.584   8.408   1.939  1.00  0.00     0.164 C
HETATM    3  N5  UNL     1      37.412   8.382   3.140  1.00  0.00    -0.340 N
ATOM      4  H5  UNL     1      38.295   7.887   3.269  1.00  0.00     0.164 HD
HETATM    5  C12 UNL     1      36.734   9.190   4.095  1.00  0.00     0.317 C
HETATM    6  O2  UNL     1      37.153   9.543   5.223  1.00  0.00    -0.247 OA
HETATM    7  N6  UNL     1      35.443   9.549   3.528  1.00  0.00    -0.324 N
ATOM      8  H6  UNL     1      34.854  10.351   3.751  1.00  0.00     0.165 HD
ENDROOT
BRANCH   1   9
HETATM    9  C5  UNL     1      34.153   8.677   1.574  1.00  0.00     0.207 C
BRANCH   9  10
HETATM   10  O1  UNL     1      32.868   8.415   1.893  1.00  0.00    -0.388 OA
BRANCH  10  11
HETATM   11  C4  UNL     1      32.029   9.448   2.039  1.00  0.00     0.167 C
BRANCH  11  12
HETATM   12  C3  UNL     1      31.271   9.424   3.371  1.00  0.00     0.026 C
BRANCH  12  13
HETATM   13  C2  UNL     1      31.976  10.181   4.445  1.00  0.00    -0.002 C
HETATM   14  C1  UNL     1      30.925  10.901   5.263  1.00  0.00     0.005 C
ENDBRANCH  12  13
ENDBRANCH  11  12
ENDBRANCH  10  11
ENDBRANCH   9  10
ENDBRANCH   1   9
BRANCH   1  15
HETATM   15  C7  UNL     1      34.928   7.212   3.370  1.00  0.00     0.194 C
BRANCH  15  16
HETATM   16  N1  UNL     1      34.861   6.082   2.661  1.00  0.00    -0.384 NA
BRANCH  16  17
HETATM   17  C8  UNL     1      34.802   5.075   2.030  1.00  0.00     0.274 A
HETATM   18  N2  UNL     1      33.937   4.687   1.030  1.00  0.00    -0.304 N
HETATM   19  C9  UNL     1      34.253   3.461   0.614  1.00  0.00     0.095 A
ATOM     20  H2  UNL     1      33.170   5.253   0.664  1.00  0.00     0.171 HD
HETATM   21  C10 UNL     1      33.574   2.671  -0.448  1.00  0.00     0.091 C
HETATM   22  N3  UNL     1      35.310   3.046   1.328  1.00  0.00    -0.286 N
HETATM   23  N4  UNL     1      35.628   3.991   2.154  1.00  0.00    -0.258 N
ATOM     24  H3  UNL     1      35.781   2.146   1.237  1.00  0.00     0.188 HD
ATOM     25  H4  UNL     1      36.401   3.934   2.817  1.00  0.00     0.191 HD
ENDBRANCH  16  17
ENDBRANCH  15  16
ENDBRANCH   1  15
TORSDOF 8
ENDMDL