MODEL 5
REMARK VINA RESULT: -7.058933747      3.088      6.294
REMARK  9 active torsions:
REMARK  status: ('A' for Active; 'I' for Inactive)
REMARK    1  A    between atoms: C2_2  and  C3_3
REMARK    2  A    between atoms: C3_3  and  C4_4
REMARK    3  A    between atoms: C4_4  and  C5_5
REMARK    4  A    between atoms: C5_5  and  C6_6
REMARK    5  A    between atoms: C6_6  and  C7_7
REMARK    6  A    between atoms: C7_7  and  C8_8
REMARK    7  A    between atoms: C8_8  and  N1_9
REMARK    8  A    between atoms: C14_18  and  N3_19
REMARK    9  A    between atoms: N3_19  and  C15_21
ROOT
HETATM    1  N1  UNL     1      34.200   8.544   0.983  1.00  0.00    -0.343 N
HETATM    2  C9  UNL     1      35.157   9.554   0.895  1.00  0.00     0.166 C
HETATM    3  C10 UNL     1      35.100  10.548   2.013  1.00  0.00     0.257 C
HETATM    4  O1  UNL     1      35.016  11.744   1.646  1.00  0.00    -0.267 OA
HETATM    5  N2  UNL     1      35.132  10.247   3.391  1.00  0.00    -0.352 N
ATOM      6  H2  UNL     1      35.091  11.050   4.019  1.00  0.00     0.163 HD
HETATM    7  C11 UNL     1      35.216   8.958   4.035  1.00  0.00     0.084 C
HETATM    8  C12 UNL     1      34.828   9.079   5.496  1.00  0.00     0.032 C
HETATM    9  C13 UNL     1      34.470   7.869   3.327  1.00  0.00     0.072 C
HETATM   10  C14 UNL     1      33.542   8.367   2.248  1.00  0.00     0.207 C
ENDROOT
BRANCH   1  11
HETATM   11  C8  UNL     1      33.460   8.235  -0.158  1.00  0.00     0.066 C
BRANCH  11  12
HETATM   12  C7  UNL     1      33.035   9.374  -1.032  1.00  0.00     0.045 C
BRANCH  12  13
HETATM   13  C6  UNL     1      32.568   9.068  -2.396  1.00  0.00     0.005 C
BRANCH  13  14
HETATM   14  C5  UNL     1      31.037   9.048  -2.423  1.00  0.00     0.000 C
BRANCH  14  15
HETATM   15  C4  UNL     1      30.466   9.929  -1.373  1.00  0.00     0.000 C
BRANCH  15  16
HETATM   16  C3  UNL     1      29.043  10.367  -1.715  1.00  0.00    -0.000 C
BRANCH  16  17
HETATM   17  C2  UNL     1      28.521   9.691  -2.941  1.00  0.00    -0.005 C
HETATM   18  C1  UNL     1      27.447  10.579  -3.587  1.00  0.00     0.005 C
ENDBRANCH  16  17
ENDBRANCH  15  16
ENDBRANCH  14  15
ENDBRANCH  13  14
ENDBRANCH  12  13
ENDBRANCH  11  12
ENDBRANCH   1  11
BRANCH  10  19
HETATM   19  N3  UNL     1      32.755   9.492   2.667  1.00  0.00    -0.202 N
ATOM     20  H3  UNL     1      33.248  10.344   2.931  1.00  0.00     0.180 HD
BRANCH  19  21
HETATM   21  C15 UNL     1      31.467   9.501   2.732  1.00  0.00     0.706 A
HETATM   22  N4  UNL     1      30.515  10.135   3.403  1.00  0.00    -0.115 N
HETATM   23  N5  UNL     1      29.550   9.474   2.786  1.00  0.00     0.007 NA
ATOM     24  H4  UNL     1      30.523  10.858   4.122  1.00  0.00     0.203 HD
HETATM   25  N6  UNL     1      30.486   8.828   2.105  1.00  0.00    -0.115 N
ATOM     26  H6  UNL     1      30.468   8.104   1.386  1.00  0.00     0.203 HD
ENDBRANCH  19  21
ENDBRANCH  10  19
TORSDOF 9
ENDMDL