MODEL 3
REMARK VINA RESULT: -6.726047400      1.786      2.532
REMARK  9 active torsions:
REMARK  status: ('A' for Active; 'I' for Inactive)
REMARK    1  A    between atoms: N1_1  and  C1_4
REMARK    2  A    between atoms: N4_15  and  C7_16
REMARK    3  A    between atoms: C7_16  and  C8_17
REMARK    4  A    between atoms: C8_17  and  C9_18
REMARK    5  A    between atoms: C9_18  and  C10_19
REMARK    6  A    between atoms: C10_19  and  C11_20
REMARK    7  A    between atoms: C11_20  and  C12_21
REMARK    8  A    between atoms: C12_21  and  C13_22
REMARK    9  A    between atoms: C13_22  and  O2_23
ROOT
HETATM    1  C1  UNL     1      35.448   5.530   1.768  1.00  0.00     0.679 A
HETATM    2  N2  UNL     1      36.032   6.461   2.534  1.00  0.00    -0.195 N
ATOM      3  H2  UNL     1      36.575   6.143   3.337  1.00  0.00     0.184 HD
HETATM    4  C2  UNL     1      35.951   7.785   2.320  1.00  0.00     0.040 A
HETATM    5  C3  UNL     1      35.219   8.219   1.241  1.00  0.00     0.035 A
HETATM    6  C4  UNL     1      34.598   7.279   0.424  1.00  0.00     0.267 A
HETATM    7  O1  UNL     1      33.927   7.635  -0.562  1.00  0.00    -0.267 OA
HETATM    8  N3  UNL     1      34.733   5.974   0.714  1.00  0.00    -0.156 N
ATOM      9  H3  UNL     1      34.275   5.290   0.111  1.00  0.00     0.187 HD
HETATM   10  C5  UNL     1      34.966   9.577   0.774  1.00  0.00     0.076 C
HETATM   11  C6  UNL     1      34.450  10.528   1.825  1.00  0.00     0.277 C
HETATM   12  N4  UNL     1      34.919  10.253   3.136  1.00  0.00     0.089 N
HETATM   13  C14 UNL     1      36.336  10.047   3.264  1.00  0.00     0.278 C
HETATM   14  C15 UNL     1      36.706   8.585   3.339  1.00  0.00     0.088 C
ENDROOT
BRANCH  12  15
HETATM   15  C7  UNL     1      34.513  11.296   4.039  1.00  0.00     0.272 C
BRANCH  15  16
HETATM   16  C8  UNL     1      33.021  11.586   4.013  1.00  0.00     0.030 C
BRANCH  16  17
HETATM   17  C9  UNL     1      32.335  10.600   4.932  1.00  0.00     0.002 C
BRANCH  17  18
HETATM   18  C10 UNL     1      31.030  10.161   4.333  1.00  0.00     0.000 C
BRANCH  18  19
HETATM   19  C11 UNL     1      31.243   9.319   3.114  1.00  0.00     0.002 C
BRANCH  19  20
HETATM   20  C12 UNL     1      29.982   9.347   2.259  1.00  0.00     0.026 C
BRANCH  20  21
HETATM   21  C13 UNL     1      30.311   9.729   0.828  1.00  0.00     0.164 C
BRANCH  21  22
HETATM   22  O2  UNL     1      31.439   9.022   0.372  1.00  0.00    -0.401 OA
ATOM     23  H2  UNL     1      31.274   8.087   0.378  1.00  0.00     0.209 HD
ENDBRANCH  21  22
ENDBRANCH  20  21
ENDBRANCH  19  20
ENDBRANCH  18  19
ENDBRANCH  17  18
ENDBRANCH  16  17
ENDBRANCH  15  16
ENDBRANCH  12  15
BRANCH   1  24
HETATM   24  N1  UNL     1      35.575   4.259   2.043  1.00  0.00    -0.234 N
ATOM     25  H12 UNL     1      35.348   3.874   2.959  1.00  0.00     0.174 HD
ATOM     26  H11 UNL     1      35.910   3.602   1.338  1.00  0.00     0.174 HD
ENDBRANCH   1  24
TORSDOF 9
ENDMDL