MODEL 2
REMARK VINA RESULT: -7.334865957      2.907      5.949
REMARK  9 active torsions:
REMARK  status: ('A' for Active; 'I' for Inactive)
REMARK    1  A    between atoms: C4_10  and  O1_11
REMARK    2  A    between atoms: C6_15  and  C7_16
REMARK    3  A    between atoms: C7_16  and  C8_17
REMARK    4  A    between atoms: C8_17  and  C9_18
REMARK    5  A    between atoms: C9_18  and  C10_19
REMARK    6  A    between atoms: C10_19  and  C11_20
REMARK    7  A    between atoms: C11_20  and  C12_21
REMARK    8  A    between atoms: C12_21  and  C13_22
REMARK    9  A    between atoms: C13_22  and  N4_23
ROOT
HETATM    1  C1  UNL     1      33.652  10.806   0.215  1.00  0.00     0.153 C
HETATM    2  N1  UNL     1      33.834   9.389   0.558  1.00  0.00    -0.351 N
HETATM    3  C2  UNL     1      33.081   8.368  -0.085  1.00  0.00     0.171 C
HETATM    4  N2  UNL     1      32.076   8.526  -0.916  1.00  0.00    -0.371 N
ATOM      5  H21 UNL     1      31.535   7.794  -1.377  1.00  0.00     0.159 HD
ATOM      6  H22 UNL     1      31.677   9.410  -1.231  1.00  0.00     0.159 HD
HETATM    7  N3  UNL     1      33.637   7.135   0.353  1.00  0.00    -0.353 N
ATOM      8  H3  UNL     1      33.607   6.242  -0.138  1.00  0.00     0.163 HD
HETATM    9  C3  UNL     1      34.243   7.398   1.615  1.00  0.00     0.138 C
HETATM   10  C4  UNL     1      35.425   6.500   1.912  1.00  0.00     0.166 C
HETATM   11  C5  UNL     1      36.157   7.207   3.064  1.00  0.00     0.202 C
HETATM   12  O2  UNL     1      35.226   7.511   3.996  1.00  0.00    -0.383 OA
HETATM   13  C6  UNL     1      34.760   8.790   4.077  1.00  0.00     0.123 C
HETATM   14  C14 UNL     1      34.698   9.576   2.814  1.00  0.00     0.059 C
HETATM   15  C15 UNL     1      34.743   8.821   1.535  1.00  0.00     0.114 C
ENDROOT
BRANCH  13  16
HETATM   16  C7  UNL     1      35.471   9.536   5.209  1.00  0.00     0.036 C
BRANCH  16  17
HETATM   17  C8  UNL     1      34.699   9.582   6.456  1.00  0.00     0.029 C
BRANCH  17  18
HETATM   18  C9  UNL     1      33.698  10.651   6.639  1.00  0.00    -0.031 C
BRANCH  18  19
HETATM   19  C10 UNL     1      32.323  10.548   6.171  1.00  0.00    -0.031 C
BRANCH  19  20
HETATM   20  C11 UNL     1      31.899  11.061   4.857  1.00  0.00     0.028 C
BRANCH  20  21
HETATM   21  C12 UNL     1      30.691  10.198   4.362  1.00  0.00     0.031 C
BRANCH  21  22
HETATM   22  C13 UNL     1      31.118   9.434   3.133  1.00  0.00     0.230 C
BRANCH  22  23
HETATM   23  N4  UNL     1      30.016   9.078   2.292  1.00  0.00    -0.079 N
ATOM     24  H43 UNL     1      29.162   9.549   2.591  1.00  0.00     0.274 HD
ATOM     25  H42 UNL     1      30.116   9.489   1.365  1.00  0.00     0.274 HD
ATOM     26  H41 UNL     1      29.875   8.069   2.232  1.00  0.00     0.274 HD
ENDBRANCH  22  23
ENDBRANCH  21  22
ENDBRANCH  20  21
ENDBRANCH  19  20
ENDBRANCH  18  19
ENDBRANCH  17  18
ENDBRANCH  16  17
ENDBRANCH  13  16
BRANCH  10  27
HETATM   27  O1  UNL     1      36.248   6.384   0.795  1.00  0.00    -0.391 OA
ATOM     28  H1  UNL     1      36.800   5.613   0.863  1.00  0.00     0.210 HD
ENDBRANCH  10  27
TORSDOF 9
ENDMDL