MODEL 3
REMARK VINA RESULT: -7.311229565      3.039      4.199
REMARK  9 active torsions:
REMARK  status: ('A' for Active; 'I' for Inactive)
REMARK    1  A    between atoms: C2_7  and  N3_8
REMARK    2  A    between atoms: N3_8  and  C3_10
REMARK    3  A    between atoms: N4_13  and  C6_14
REMARK    4  A    between atoms: C6_14  and  C7_15
REMARK    5  A    between atoms: C7_15  and  C8_16
REMARK    6  A    between atoms: C8_16  and  C9_17
REMARK    7  A    between atoms: C9_17  and  C10_18
REMARK    8  A    between atoms: C10_18  and  C11_19
REMARK    9  A    between atoms: C11_19  and  O2_20
ROOT
HETATM    1  C3  UNL     1      35.495   7.085   2.308  1.00  0.00     0.102 C
HETATM    2  C4  UNL     1      36.273   8.096   1.503  1.00  0.00     0.045 C
HETATM    3  C5  UNL     1      35.315   9.094   0.836  1.00  0.00     0.119 C
HETATM    4  N4  UNL     1      34.485   9.623   1.863  1.00  0.00    -0.412 N
HETATM    5  C12 UNL     1      33.607   8.712   2.506  1.00  0.00     0.119 C
HETATM    6  C13 UNL     1      34.009   7.293   2.157  1.00  0.00     0.045 C
ENDROOT
BRANCH   1   7
HETATM    7  N3  UNL     1      35.786   5.723   1.959  1.00  0.00    -0.220 N
ATOM      8  H3  UNL     1      36.768   5.446   1.956  1.00  0.00     0.178 HD
BRANCH   7   9
HETATM    9  C2  UNL     1      34.927   4.824   1.651  1.00  0.00     0.697 A
HETATM   10  N2  UNL     1      34.428   3.960   2.554  1.00  0.00    -0.128 N
HETATM   11  N1  UNL     1      33.565   3.164   1.906  1.00  0.00    -0.237 N
ATOM     12  H2  UNL     1      34.663   3.919   3.547  1.00  0.00     0.205 HD
HETATM   13  C1  UNL     1      33.529   3.526   0.620  1.00  0.00     0.353 A
ATOM     14  H1  UNL     1      33.025   2.407   2.325  1.00  0.00     0.192 HD
HETATM   15  O1  UNL     1      32.824   2.994  -0.294  1.00  0.00    -0.245 OA
HETATM   16  N5  UNL     1      34.382   4.563   0.463  1.00  0.00    -0.139 N
ATOM     17  H5  UNL     1      34.573   5.058  -0.408  1.00  0.00     0.189 HD
ENDBRANCH   7   9
ENDBRANCH   1   7
BRANCH   4  18
HETATM   18  C6  UNL     1      33.864  10.909   1.519  1.00  0.00     0.117 C
BRANCH  18  19
HETATM   19  C7  UNL     1      32.405  10.779   1.327  1.00  0.00     0.019 C
BRANCH  19  20
HETATM   20  C8  UNL     1      31.880  10.666  -0.039  1.00  0.00     0.002 C
BRANCH  20  21
HETATM   21  C9  UNL     1      31.515   9.395  -0.655  1.00  0.00     0.002 C
BRANCH  21  22
HETATM   22  C10 UNL     1      32.469   8.619  -1.467  1.00  0.00     0.026 C
BRANCH  22  23
HETATM   23  C11 UNL     1      33.015   9.610  -2.550  1.00  0.00     0.164 C
BRANCH  23  24
HETATM   24  O2  UNL     1      32.328   9.444  -3.740  1.00  0.00    -0.401 OA
ATOM     25  H2  UNL     1      32.286  10.267  -4.211  1.00  0.00     0.209 HD
ENDBRANCH  23  24
ENDBRANCH  22  23
ENDBRANCH  21  22
ENDBRANCH  20  21
ENDBRANCH  19  20
ENDBRANCH  18  19
ENDBRANCH   4  18
TORSDOF 9
ENDMDL