MODEL 2
REMARK VINA RESULT: -7.054070763      2.757      7.273
REMARK  7 active torsions:
REMARK  status: ('A' for Active; 'I' for Inactive)
REMARK    1  A    between atoms: C2_2  and  N1_4
REMARK       I    between atoms: N1_4  and  C4_6
REMARK    2  A    between atoms: C4_6  and  C5_8
REMARK    3  A    between atoms: C5_8  and  C6_9
REMARK    4  A    between atoms: C5_8  and  O3_11
REMARK    5  A    between atoms: O3_11  and  C7_12
REMARK    6  A    between atoms: C7_12  and  C8_14
REMARK    7  A    between atoms: C8_14  and  C9_15
ROOT
HETATM    1  O3  UNL     1       1.059  58.414  85.628  1.00  0.00    -0.299 OA
ENDROOT
BRANCH   1   2
HETATM    2  C5  UNL     1       0.665  57.200  85.012  1.00  0.00     0.284 C
BRANCH   2   3
HETATM    3  C4  UNL     1       1.770  56.211  85.023  1.00  0.00     0.254 C
HETATM    4  N1  UNL     1       1.754  55.070  84.192  1.00  0.00    -0.355 N
ATOM      5  H1  UNL     1       0.952  54.939  83.576  1.00  0.00     0.162 HD
HETATM    6  O1  UNL     1       2.767  56.367  85.787  1.00  0.00    -0.270 OA
BRANCH   4   7
HETATM    7  C2  UNL     1       2.795  54.080  84.159  1.00  0.00     0.076 C
HETATM    8  C1  UNL     1       2.608  53.043  85.226  1.00  0.00     0.032 C
HETATM    9  C3  UNL     1       2.956  53.449  82.797  1.00  0.00     0.032 C
ENDBRANCH   4   7
ENDBRANCH   2   3
BRANCH   2  10
HETATM   10  C6  UNL     1       0.221  57.453  83.605  1.00  0.00     0.273 C
HETATM   11  O2  UNL     1       1.021  57.747  82.746  1.00  0.00    -0.304 OA
ENDBRANCH   2  10
ENDBRANCH   1   2
BRANCH   1  12
HETATM   12  C7  UNL     1       0.198  59.499  85.633  1.00  0.00     0.260 C
HETATM   13  O4  UNL     1      -0.902  59.346  86.216  1.00  0.00    -0.265 OA
BRANCH  12  14
HETATM   14  C8  UNL     1       0.509  60.782  85.002  1.00  0.00     0.115 C
BRANCH  14  15
HETATM   15  C9  UNL     1      -0.377  61.929  85.467  1.00  0.00    -0.005 C
HETATM   16  C10 UNL     1      -1.100  62.517  84.294  1.00  0.00     0.005 C
HETATM   17  C11 UNL     1      -1.236  63.999  84.391  1.00  0.00     0.000 C
HETATM   18  C12 UNL     1      -2.075  64.401  85.586  1.00  0.00     0.000 C
HETATM   19  C13 UNL     1      -1.215  64.801  86.761  1.00  0.00     0.000 C
HETATM   20  C14 UNL     1      -0.271  63.754  87.205  1.00  0.00     0.000 C
HETATM   21  C15 UNL     1       0.447  62.999  86.133  1.00  0.00     0.005 C
ENDBRANCH  14  15
ENDBRANCH  12  14
ENDBRANCH   1  12
TORSDOF 7
ENDMDL