MODEL 3
REMARK VINA RESULT: -7.442953503      0.842      1.642
REMARK  7 active torsions:
REMARK  status: ('A' for Active; 'I' for Inactive)
REMARK    1  A    between atoms: C4_4  and  C5_5
REMARK    2  A    between atoms: C5_5  and  N1_6
REMARK    3  A    between atoms: N1_6  and  C6_7
REMARK    4  A    between atoms: N1_6  and  C9_12
REMARK    5  A    between atoms: C6_7  and  C7_8
REMARK    6  A    between atoms: C7_8  and  O1_10
REMARK    7  A    between atoms: C9_12  and  C10_13
ROOT
HETATM    1  N1  UNL     1       1.211  57.695  84.270  1.00  0.00    -0.367 N
ENDROOT
BRANCH   1   2
HETATM    2  C5  UNL     1       0.129  57.568  83.392  1.00  0.00     0.090 C
BRANCH   2   3
HETATM    3  C4  UNL     1      -0.643  56.332  83.552  1.00  0.00     0.019 C
HETATM    4  C2  UNL     1      -1.893  56.322  83.930  1.00  0.00    -0.086 C
HETATM    5  C1  UNL     1      -2.667  55.043  84.086  1.00  0.00     0.043 C
HETATM    6  C3  UNL     1      -2.582  57.599  84.233  1.00  0.00     0.043 C
ENDBRANCH   2   3
ENDBRANCH   1   2
BRANCH   1   7
HETATM    7  C6  UNL     1       1.575  56.737  85.207  1.00  0.00     0.094 C
BRANCH   7   8
HETATM    8  C7  UNL     1       2.875  56.058  84.951  1.00  0.00     0.152 C
HETATM    9  C8  UNL     1       3.068  54.710  85.532  1.00  0.00     0.045 C
BRANCH   8  10
HETATM   10  O1  UNL     1       3.925  56.904  85.378  1.00  0.00    -0.391 OA
ATOM     11  H1  UNL     1       4.549  56.391  85.879  1.00  0.00     0.210 HD
ENDBRANCH   8  10
ENDBRANCH   7   8
ENDBRANCH   1   7
BRANCH   1  12
HETATM   12  C9  UNL     1       1.526  59.052  84.658  1.00  0.00     0.132 C
BRANCH  12  13
HETATM   13  C10 UNL     1       0.397  60.008  84.685  1.00  0.00     0.009 C
HETATM   14  C11 UNL     1      -0.260  59.860  86.067  1.00  0.00     0.011 C
HETATM   15  C12 UNL     1      -0.750  61.221  86.447  1.00  0.00     0.069 C
HETATM   16  C13 UNL     1      -0.026  62.222  85.600  1.00  0.00     0.164 C
HETATM   17  C14 UNL     1       0.866  61.423  84.704  1.00  0.00     0.074 C
HETATM   18  O2  UNL     1      -0.868  63.080  84.918  1.00  0.00    -0.353 OA
HETATM   19  O3  UNL     1       0.704  63.127  86.393  1.00  0.00    -0.353 OA
HETATM   20  C15 UNL     1      -1.407  63.849  85.959  1.00  0.00     0.197 C
HETATM   21  C16 UNL     1      -0.294  63.905  86.972  1.00  0.00     0.197 C
ENDBRANCH  12  13
ENDBRANCH   1  12
TORSDOF 7
ENDMDL