MODEL 1
REMARK VINA RESULT: -6.597118926      0.000      0.000
REMARK  8 active torsions:
REMARK  status: ('A' for Active; 'I' for Inactive)
REMARK    1  A    between atoms: C2_2  and  C3_3
REMARK    2  A    between atoms: C3_3  and  N1_4
REMARK    3  A    between atoms: N1_4  and  N2_5
REMARK    4  A    between atoms: N1_4  and  C4_9
REMARK    5  A    between atoms: N2_5  and  O1_7
REMARK    6  A    between atoms: C4_9  and  C5_10
REMARK    7  A    between atoms: C4_9  and  C12_18
REMARK    8  A    between atoms: C5_10  and  N3_11
ROOT
HETATM    1  C4  UNL     1      -1.049  57.044  84.150  1.00  0.00     0.051 C
ENDROOT
BRANCH   1   2
HETATM    2  N1  UNL     1       0.078  56.227  84.422  1.00  0.00    -0.276 N
BRANCH   2   3
HETATM    3  C3  UNL     1       1.068  55.790  83.484  1.00  0.00     0.150 C
BRANCH   3   4
HETATM    4  C2  UNL     1       1.082  54.256  83.470  1.00  0.00     0.017 C
HETATM    5  C1  UNL     1       2.379  53.668  83.031  1.00  0.00     0.007 C
ENDBRANCH   3   4
ENDBRANCH   2   3
BRANCH   2   6
HETATM    6  N2  UNL     1       0.258  55.771  85.765  1.00  0.00    -0.208 N
ATOM      7  H2  UNL     1      -0.307  54.992  86.105  1.00  0.00     0.216 HD
BRANCH   6   8
HETATM    8  O1  UNL     1       1.086  56.299  86.531  1.00  0.00    -0.274 OA
ATOM      9  H1  UNL     1       1.468  55.823  87.259  1.00  0.00     0.246 HD
ENDBRANCH   6   8
ENDBRANCH   2   6
ENDBRANCH   1   2
BRANCH   1  10
HETATM   10  C5  UNL     1      -1.058  58.486  84.384  1.00  0.00     0.117 C
BRANCH  10  11
HETATM   11  N3  UNL     1      -0.007  59.213  84.895  1.00  0.00    -0.368 N
HETATM   12  C6  UNL     1       1.119  59.570  84.109  1.00  0.00     0.127 C
HETATM   13  C7  UNL     1       1.498  61.038  84.343  1.00  0.00     0.020 C
HETATM   14  C8  UNL     1       0.267  61.860  84.648  1.00  0.00     0.002 C
HETATM   15  C9  UNL     1       0.005  62.066  86.100  1.00  0.00     0.005 C
HETATM   16  C10 UNL     1      -0.793  60.847  86.595  1.00  0.00     0.044 C
HETATM   17  C11 UNL     1       0.046  59.653  86.231  1.00  0.00     0.063 C
ENDBRANCH  10  11
ENDBRANCH   1  10
BRANCH   1  18
HETATM   18  C12 UNL     1      -2.334  56.318  84.562  1.00  0.00     0.066 C
HETATM   19  C13 UNL     1      -3.565  57.130  84.441  1.00  0.00     0.040 C
HETATM   20  C14 UNL     1      -4.643  56.073  84.213  1.00  0.00     0.233 C
HETATM   21  N4  UNL     1      -4.011  55.138  83.344  1.00  0.00    -0.074 N
HETATM   22  C15 UNL     1      -2.604  55.151  83.629  1.00  0.00     0.243 C
ATOM     23  H42 UNL     1      -4.417  54.205  83.405  1.00  0.00     0.277 HD
ATOM     24  H41 UNL     1      -4.216  55.312  82.360  1.00  0.00     0.277 HD
ENDBRANCH   1  18
TORSDOF 8
ENDMDL