MODEL 1
REMARK VINA RESULT: -6.632567084      0.000      0.000
REMARK  6 active torsions:
REMARK  status: ('A' for Active; 'I' for Inactive)
REMARK    1  A    between atoms: C2_2  and  O1_4
REMARK    2  A    between atoms: O1_4  and  C4_5
REMARK    3  A    between atoms: C4_5  and  C5_6
REMARK    4  A    between atoms: C4_5  and  C7_10
REMARK    5  A    between atoms: C5_6  and  C6_7
REMARK       I    between atoms: C7_10  and  N1_12
REMARK    6  A    between atoms: N1_12  and  C9_14
ROOT
HETATM    1  C7  UNL     1       1.557  56.207  85.082  1.00  0.00     0.249 C
HETATM    2  O4  UNL     1       2.449  56.528  85.960  1.00  0.00    -0.270 OA
HETATM    3  N1  UNL     1       0.811  57.274  84.590  1.00  0.00    -0.350 N
HETATM    4  C8  UNL     1      -0.259  57.063  83.653  1.00  0.00     0.153 C
ENDROOT
BRANCH   1   5
HETATM    5  C4  UNL     1       1.468  54.787  84.749  1.00  0.00     0.223 C
BRANCH   5   6
HETATM    6  O1  UNL     1       1.449  54.097  86.001  1.00  0.00    -0.371 OA
BRANCH   6   7
HETATM    7  C2  UNL     1       0.187  53.949  86.494  1.00  0.00     0.114 C
HETATM    8  C1  UNL     1      -0.757  53.227  85.559  1.00  0.00     0.039 C
HETATM    9  C3  UNL     1       0.135  53.300  87.859  1.00  0.00     0.039 C
ENDBRANCH   6   7
ENDBRANCH   5   6
BRANCH   5  10
HETATM   10  C5  UNL     1       2.668  54.187  84.070  1.00  0.00     0.154 C
BRANCH  10  11
HETATM   11  C6  UNL     1       2.492  53.416  82.874  1.00  0.00     0.175 C
HETATM   12  O2  UNL     1       3.418  53.405  81.988  1.00  0.00    -0.648 OA
HETATM   13  O3  UNL     1       1.370  52.649  82.575  1.00  0.00    -0.648 OA
ENDBRANCH  10  11
ENDBRANCH   5  10
ENDBRANCH   1   5
BRANCH   3  14
HETATM   14  C9  UNL     1       1.092  58.627  85.007  1.00  0.00     0.086 C
HETATM   15  C10 UNL     1       1.113  59.583  83.819  1.00  0.00     0.025 C
HETATM   16  C11 UNL     1       1.667  60.885  84.295  1.00  0.00     0.002 C
HETATM   17  C12 UNL     1       0.539  61.866  84.466  1.00  0.00     0.000 C
HETATM   18  C13 UNL     1      -0.283  61.549  85.694  1.00  0.00     0.000 C
HETATM   19  C14 UNL     1      -0.822  60.124  85.660  1.00  0.00     0.002 C
HETATM   20  C15 UNL     1       0.196  59.121  86.105  1.00  0.00     0.025 C
ENDBRANCH   3  14
TORSDOF 6
ENDMDL