MODEL 2
REMARK VINA RESULT: -6.390423120      1.593      2.653
REMARK  7 active torsions:
REMARK  status: ('A' for Active; 'I' for Inactive)
REMARK    1  A    between atoms: C4_5  and  N2_6
REMARK    2  A    between atoms: C6_11  and  C7_12
REMARK    3  A    between atoms: C7_12  and  O1_13
REMARK    4  A    between atoms: O1_13  and  C8_14
REMARK    5  A    between atoms: C8_14  and  C9_15
REMARK    6  A    between atoms: C9_15  and  O2_16
REMARK    7  A    between atoms: O2_16  and  C10_17
ROOT
HETATM    1  C1  UNL     1      -2.497  53.129  83.334  1.00  0.00     0.310 C
HETATM    2  N1  UNL     1      -2.584  54.557  83.481  1.00  0.00     0.089 N
HETATM    3  C2  UNL     1      -3.840  54.974  84.096  1.00  0.00     0.274 C
HETATM    4  C3  UNL     1      -3.669  56.056  85.105  1.00  0.00     0.063 C
HETATM    5  C4  UNL     1      -2.770  57.186  84.620  1.00  0.00     0.191 C
HETATM    6  C5  UNL     1      -1.557  56.653  83.950  1.00  0.00     0.055 C
HETATM    7  C6  UNL     1      -0.261  57.090  84.538  1.00  0.00     0.018 C
HETATM    8  C14 UNL     1       0.687  55.925  84.352  1.00  0.00     0.009 C
HETATM    9  C15 UNL     1      -0.150  54.793  83.763  1.00  0.00     0.037 C
HETATM   10  C16 UNL     1      -1.520  55.142  84.220  1.00  0.00     0.229 C
ENDROOT
BRANCH   7  11
HETATM   11  C7  UNL     1       0.335  58.266  83.721  1.00  0.00     0.172 C
BRANCH  11  12
HETATM   12  O1  UNL     1       0.135  59.438  84.390  1.00  0.00    -0.389 OA
BRANCH  12  13
HETATM   13  C8  UNL     1       1.294  60.220  84.495  1.00  0.00     0.193 C
BRANCH  13  14
HETATM   14  C9  UNL     1       0.952  61.654  84.590  1.00  0.00     0.195 C
BRANCH  14  15
HETATM   15  O2  UNL     1       0.824  62.164  85.807  1.00  0.00    -0.379 OA
BRANCH  15  16
HETATM   16  C10 UNL     1      -0.224  62.776  86.286  1.00  0.00     0.050 C
HETATM   17  C11 UNL     1       0.007  64.026  87.049  1.00  0.00     0.045 C
HETATM   18  C12 UNL     1      -1.221  63.019  85.132  1.00  0.00     0.045 C
HETATM   19  C13 UNL     1      -0.926  61.801  87.277  1.00  0.00     0.045 C
ENDBRANCH  15  16
ENDBRANCH  14  15
ENDBRANCH  13  14
ENDBRANCH  12  13
ENDBRANCH  11  12
ENDBRANCH   7  11
BRANCH   5  20
HETATM   20  N2  UNL     1      -3.561  57.907  83.610  1.00  0.00    -0.075 N
ATOM     21  H23 UNL     1      -3.969  58.777  83.952  1.00  0.00     0.274 HD
ATOM     22  H22 UNL     1      -2.998  58.323  82.867  1.00  0.00     0.274 HD
ATOM     23  H21 UNL     1      -4.250  57.234  83.275  1.00  0.00     0.274 HD
ENDBRANCH   5  20
TORSDOF 7
ENDMDL