MODEL 2
REMARK VINA RESULT: -6.936362475      3.091      6.152
REMARK  6 active torsions:
REMARK  status: ('A' for Active; 'I' for Inactive)
REMARK       I    between atoms: C2_2  and  N1_4
REMARK    1  A    between atoms: N1_4  and  C3_6
REMARK    2  A    between atoms: C3_6  and  C4_7
REMARK    3  A    between atoms: C4_7  and  O2_8
REMARK    4  A    between atoms: O2_8  and  C5_9
REMARK    5  A    between atoms: N2_16  and  C11_17
REMARK    6  A    between atoms: C11_17  and  C12_18
ROOT
HETATM    1  C5  UNL     1       0.557  60.172  85.283  1.00  0.00     0.180 C
HETATM    2  C6  UNL     1       0.985  60.429  83.868  1.00  0.00     0.038 C
HETATM    3  C7  UNL     1       1.677  59.265  83.223  1.00  0.00     0.041 C
HETATM    4  C8  UNL     1       1.085  57.927  83.675  1.00  0.00     0.250 C
HETATM    5  C9  UNL     1      -0.416  58.094  83.582  1.00  0.00     0.206 C
HETATM    6  O3  UNL     1      -0.868  58.355  84.875  1.00  0.00    -0.353 OA
HETATM    7  C10 UNL     1       0.266  58.735  85.584  1.00  0.00     0.389 C
HETATM    8  N2  UNL     1       1.281  57.853  85.083  1.00  0.00     0.130 N
ENDROOT
BRANCH   1   9
HETATM    9  O2  UNL     1      -0.580  60.916  85.576  1.00  0.00    -0.380 OA
BRANCH   9  10
HETATM   10  C4  UNL     1      -0.306  61.751  86.667  1.00  0.00     0.188 C
BRANCH  10  11
HETATM   11  C3  UNL     1       0.108  63.103  86.193  1.00  0.00     0.148 C
BRANCH  11  12
HETATM   12  N1  UNL     1      -0.517  63.461  84.950  1.00  0.00    -0.359 N
HETATM   13  C2  UNL     1      -1.782  64.083  84.858  1.00  0.00     0.213 C
HETATM   14  C1  UNL     1      -2.388  64.429  83.538  1.00  0.00     0.117 C
HETATM   15  O1  UNL     1      -2.408  64.349  85.909  1.00  0.00    -0.274 OA
ATOM     16  H1  UNL     1      -0.018  63.255  84.084  1.00  0.00     0.162 HD
ENDBRANCH  11  12
ENDBRANCH  10  11
ENDBRANCH   9  10
ENDBRANCH   1   9
BRANCH   8  17
HETATM   17  C11 UNL     1       1.335  56.568  85.667  1.00  0.00     0.304 C
BRANCH  17  18
HETATM   18  C12 UNL     1       1.455  55.437  84.749  1.00  0.00     0.005 C
HETATM   19  C13 UNL     1       2.613  54.824  84.599  1.00  0.00    -0.090 C
HETATM   20  C14 UNL     1       2.738  53.676  83.667  1.00  0.00     0.042 C
HETATM   21  C15 UNL     1       3.809  55.265  85.357  1.00  0.00     0.042 C
ENDBRANCH  17  18
ENDBRANCH   8  17
TORSDOF 6
ENDMDL