MODEL 2
REMARK VINA RESULT: -6.653657115      0.920      1.116
REMARK  7 active torsions:
REMARK  status: ('A' for Active; 'I' for Inactive)
REMARK    1  A    between atoms: C2_2  and  O1_3
REMARK    2  A    between atoms: O1_3  and  C3_4
REMARK    3  A    between atoms: C3_4  and  C4_6
REMARK    4  A    between atoms: C4_6  and  C5_7
REMARK    5  A    between atoms: C5_7  and  N1_8
REMARK    6  A    between atoms: N1_8  and  C6_11
REMARK    7  A    between atoms: N2_18  and  C13_19
ROOT
HETATM    1  C4  UNL     1       0.520  58.425  84.606  1.00  0.00     0.076 C
HETATM    2  C10 UNL     1       0.966  59.471  83.643  1.00  0.00     0.027 C
HETATM    3  C11 UNL     1       1.679  60.627  84.308  1.00  0.00     0.046 C
HETATM    4  C12 UNL     1       0.631  61.679  84.611  1.00  0.00     0.068 C
HETATM    5  N2  UNL     1      -0.069  61.389  85.775  1.00  0.00    -0.355 N
HETATM    6  C15 UNL     1      -0.715  60.166  85.933  1.00  0.00     0.069 C
HETATM    7  C16 UNL     1       0.152  58.949  85.959  1.00  0.00     0.066 C
ENDROOT
BRANCH   1   8
HETATM    8  C3  UNL     1      -0.524  57.594  83.982  1.00  0.00     0.269 C
HETATM    9  O2  UNL     1      -0.830  57.653  82.764  1.00  0.00    -0.264 OA
BRANCH   8  10
HETATM   10  O1  UNL     1      -1.219  56.691  84.766  1.00  0.00    -0.321 OA
BRANCH  10  11
HETATM   11  C2  UNL     1      -2.347  55.967  84.317  1.00  0.00     0.174 C
HETATM   12  C1  UNL     1      -3.637  56.603  84.769  1.00  0.00     0.034 C
ENDBRANCH  10  11
ENDBRANCH   8  10
ENDBRANCH   1   8
BRANCH   1  13
HETATM   13  C5  UNL     1       1.716  57.484  84.849  1.00  0.00     0.252 C
BRANCH  13  14
HETATM   14  N1  UNL     1       1.704  56.465  83.824  1.00  0.00    -0.070 N
ATOM     15  H12 UNL     1       0.806  56.445  83.342  1.00  0.00     0.277 HD
ATOM     16  H11 UNL     1       2.307  56.727  83.044  1.00  0.00     0.277 HD
BRANCH  14  17
HETATM   17  C6  UNL     1       2.047  55.165  84.321  1.00  0.00     0.186 C
HETATM   18  C7  UNL     1       1.676  54.946  85.775  1.00  0.00     0.033 C
HETATM   19  C8  UNL     1       0.705  53.896  85.354  1.00  0.00     0.004 C
HETATM   20  C9  UNL     1       1.175  54.022  83.938  1.00  0.00     0.033 C
ENDBRANCH  14  17
ENDBRANCH  13  14
ENDBRANCH   1  13
BRANCH   5  21
HETATM   21  C13 UNL     1      -0.237  62.391  86.749  1.00  0.00     0.064 C
HETATM   22  C14 UNL     1      -0.734  63.654  86.081  1.00  0.00     0.055 C
ENDBRANCH   5  21
TORSDOF 7
ENDMDL