MODEL 4
REMARK VINA RESULT: -7.649780165      5.440      9.122
REMARK  6 active torsions:
REMARK  status: ('A' for Active; 'I' for Inactive)
REMARK    1  A    between atoms: C1_2  and  C2_3
REMARK       I    between atoms: C1_2  and  N1_11
REMARK    2  A    between atoms: C2_3  and  C3_4
REMARK    3  A    between atoms: N1_11  and  C10_13
REMARK    4  A    between atoms: C10_13  and  C11_14
REMARK    5  A    between atoms: C11_14  and  C12_15
REMARK    6  A    between atoms: C13_18  and  C14_19
ROOT
HETATM    1  O1  UNL     1       1.403  59.053  85.103  1.00  0.00    -0.274 OA
HETATM    2  C1  UNL     1       0.198  58.767  85.221  1.00  0.00     0.217 C
HETATM    3  N1  UNL     1      -0.233  57.430  85.125  1.00  0.00    -0.361 N
ATOM      4  H1  UNL     1      -1.225  57.215  85.221  1.00  0.00     0.162 HD
ENDROOT
BRANCH   3   5
HETATM    5  C10 UNL     1       0.700  56.366  84.894  1.00  0.00     0.130 C
BRANCH   5   6
HETATM    6  C11 UNL     1       0.991  56.199  83.443  1.00  0.00     0.106 C
BRANCH   6   7
HETATM    7  C12 UNL     1       1.257  54.732  83.224  1.00  0.00     0.149 A
HETATM    8  N2  UNL     1       2.440  54.159  82.992  1.00  0.00    -0.326 N
HETATM    9  C13 UNL     1       2.283  52.833  82.849  1.00  0.00     0.108 A
ATOM     10  H2  UNL     1       3.330  54.654  82.932  1.00  0.00     0.169 HD
HETATM   11  N3  UNL     1       0.960  52.632  83.004  1.00  0.00    -0.247 N
HETATM   12  O2  UNL     1       0.366  53.766  83.226  1.00  0.00    -0.223 OA
ATOM     13  H3  UNL     1       0.495  51.726  82.954  1.00  0.00     0.196 HD
BRANCH   9  14
HETATM   14  C14 UNL     1       3.332  51.816  82.579  1.00  0.00     0.055 A
HETATM   15  C15 UNL     1       3.006  50.382  82.615  1.00  0.00     0.013 A
HETATM   16  C16 UNL     1       3.703  50.991  83.775  1.00  0.00     0.013 A
ENDBRANCH   9  14
ENDBRANCH   6   7
ENDBRANCH   5   6
ENDBRANCH   3   5
BRANCH   2  17
HETATM   17  C2  UNL     1      -0.793  59.836  85.466  1.00  0.00     0.107 C
BRANCH  17  18
HETATM   18  C3  UNL     1      -0.122  61.107  85.972  1.00  0.00    -0.005 C
HETATM   19  C4  UNL     1      -0.766  61.624  87.216  1.00  0.00     0.009 C
HETATM   20  C5  UNL     1      -0.964  63.107  87.224  1.00  0.00    -0.013 C
HETATM   21  C6  UNL     1      -1.647  63.613  85.977  1.00  0.00     0.009 C
HETATM   22  C9  UNL     1       0.327  63.729  86.672  1.00  0.00     0.009 C
HETATM   23  C7  UNL     1      -0.302  63.509  85.289  1.00  0.00    -0.013 C
HETATM   24  C8  UNL     1       0.022  62.107  84.877  1.00  0.00     0.009 C
ENDBRANCH  17  18
ENDBRANCH   2  17
TORSDOF 6
ENDMDL