MODEL 4
REMARK VINA RESULT: -7.048948036      1.111      1.399
REMARK  6 active torsions:
REMARK  status: ('A' for Active; 'I' for Inactive)
REMARK    1  A    between atoms: N2_5  and  C3_6
REMARK    2  A    between atoms: C3_6  and  C4_7
REMARK    3  A    between atoms: C4_7  and  N3_8
REMARK    4  A    between atoms: N3_8  and  C5_10
REMARK    5  A    between atoms: C5_10  and  C6_11
REMARK    6  A    between atoms: N4_15  and  C10_16
ROOT
HETATM    1  C6  UNL     1       0.526  58.114  84.783  1.00  0.00     0.042 C
HETATM    2  C7  UNL     1       0.941  58.547  83.384  1.00  0.00     0.016 C
HETATM    3  C8  UNL     1       1.850  59.743  83.562  1.00  0.00     0.045 C
HETATM    4  C9  UNL     1       0.933  60.864  84.018  1.00  0.00     0.063 C
HETATM    5  N4  UNL     1       0.350  60.552  85.252  1.00  0.00    -0.369 N
HETATM    6  C16 UNL     1       0.044  59.232  85.613  1.00  0.00     0.069 C
ENDROOT
BRANCH   1   7
HETATM    7  C5  UNL     1       1.705  57.361  85.420  1.00  0.00     0.123 C
BRANCH   7   8
HETATM    8  N3  UNL     1       2.356  56.533  84.479  1.00  0.00    -0.419 N
ATOM      9  H3  UNL     1       2.814  56.946  83.667  1.00  0.00     0.153 HD
BRANCH   8  10
HETATM   10  C4  UNL     1       2.374  55.130  84.660  1.00  0.00     0.135 C
BRANCH  10  11
HETATM   11  C3  UNL     1       1.476  54.388  83.686  1.00  0.00     0.167 C
BRANCH  11  12
HETATM   12  N2  UNL     1       0.090  54.594  83.996  1.00  0.00    -0.302 N
HETATM   13  N1  UNL     1      -0.849  55.110  83.208  1.00  0.00    -0.310 N
HETATM   14  C2  UNL     1      -2.029  55.120  83.820  1.00  0.00     0.108 A
ATOM     15  H1  UNL     1      -0.686  55.452  82.261  1.00  0.00     0.186 HD
HETATM   16  C1  UNL     1      -1.823  54.573  85.076  1.00  0.00     0.037 A
HETATM   17  C17 UNL     1      -0.493  54.248  85.178  1.00  0.00     0.111 A
ENDBRANCH  11  12
ENDBRANCH  10  11
ENDBRANCH   8  10
ENDBRANCH   7   8
ENDBRANCH   1   7
BRANCH   5  18
HETATM   18  C10 UNL     1      -0.721  61.464  85.635  1.00  0.00     0.088 C
HETATM   19  C11 UNL     1      -0.793  61.743  87.096  1.00  0.00     0.026 C
HETATM   20  C12 UNL     1      -0.152  63.024  87.549  1.00  0.00     0.002 C
HETATM   21  C13 UNL     1      -0.432  64.208  86.692  1.00  0.00     0.000 C
HETATM   22  C14 UNL     1      -1.412  63.814  85.621  1.00  0.00     0.002 C
HETATM   23  C15 UNL     1      -0.756  62.717  84.804  1.00  0.00     0.026 C
ENDBRANCH   5  18
TORSDOF 6
ENDMDL