MODEL 3
REMARK VINA RESULT: -6.634336730      2.176      3.502
REMARK  6 active torsions:
REMARK  status: ('A' for Active; 'I' for Inactive)
REMARK    1  A    between atoms: C2_2  and  N1_3
REMARK    2  A    between atoms: N1_3  and  C3_4
REMARK    3  A    between atoms: N1_3  and  C5_6
REMARK    4  A    between atoms: C5_6  and  C6_7
REMARK    5  A    between atoms: C6_7  and  N2_9
REMARK       I    between atoms: N2_9  and  C8_11
REMARK    6  A    between atoms: C8_11  and  C9_13
ROOT
HETATM    1  N2  UNL     1       2.604  56.613  84.518  1.00  0.00    -0.353 N
ATOM      2  H2  UNL     1       2.784  56.761  83.524  1.00  0.00     0.163 HD
HETATM    3  C8  UNL     1       1.601  57.340  85.188  1.00  0.00     0.250 C
HETATM    4  O1  UNL     1       1.369  57.164  86.422  1.00  0.00    -0.271 OA
ENDROOT
BRANCH   3   5
HETATM    5  C9  UNL     1       0.783  58.329  84.498  1.00  0.00     0.255 C
HETATM    6  C10 UNL     1       1.144  59.727  84.945  1.00  0.00     0.086 C
HETATM    7  C11 UNL     1      -0.223  60.331  85.168  1.00  0.00     0.099 C
HETATM    8  C12 UNL     1      -0.209  61.701  84.521  1.00  0.00     0.041 C
HETATM    9  C15 UNL     1      -0.582  60.499  86.609  1.00  0.00     0.041 C
HETATM   10  O2  UNL     1      -1.056  59.452  84.501  1.00  0.00    -0.229 OA
HETATM   11  C13 UNL     1      -0.610  62.634  85.626  1.00  0.00     0.003 C
HETATM   12  C14 UNL     1      -0.172  61.919  86.908  1.00  0.00     0.003 C
HETATM   13  O3  UNL     1      -0.583  58.247  84.743  1.00  0.00    -0.225 OA
ENDBRANCH   3   5
BRANCH   1  14
HETATM   14  C6  UNL     1       3.383  55.637  85.284  1.00  0.00     0.108 C
HETATM   15  C7  UNL     1       4.835  56.046  85.097  1.00  0.00     0.034 C
BRANCH  14  16
HETATM   16  C5  UNL     1       3.080  54.306  84.716  1.00  0.00     0.296 C
BRANCH  16  17
HETATM   17  N1  UNL     1       2.300  54.206  83.542  1.00  0.00     0.089 N
BRANCH  17  18
HETATM   18  C2  UNL     1       2.851  53.423  82.476  1.00  0.00     0.268 C
HETATM   19  C1  UNL     1       3.224  52.022  82.752  1.00  0.00     0.037 C
ENDBRANCH  17  18
BRANCH  17  20
HETATM   20  C3  UNL     1       1.072  53.468  83.944  1.00  0.00     0.268 C
HETATM   21  C4  UNL     1      -0.132  54.347  83.966  1.00  0.00     0.037 C
ENDBRANCH  17  20
ENDBRANCH  16  17
ENDBRANCH  14  16
ENDBRANCH   1  14
TORSDOF 6
ENDMDL