MODEL 1
REMARK VINA RESULT: -8.089561404      0.000      0.000
REMARK  11 active torsions:
REMARK  status: ('A' for Active; 'I' for Inactive)
REMARK    1  A    between atoms: N1_1  and  C1_4
REMARK    2  A    between atoms: C2_7  and  C3_8
REMARK    3  A    between atoms: C3_8  and  N3_9
REMARK    4  A    between atoms: N4_11  and  C4_13
REMARK    5  A    between atoms: C5_16  and  N6_17
REMARK    6  A    between atoms: N6_17  and  N7_19
REMARK    7  A    between atoms: C6_24  and  N9_25
REMARK    8  A    between atoms: N9_25  and  O3_26
REMARK    9  A    between atoms: C7_28  and  N10_29
REMARK       I    between atoms: N13_40  and  C11_42
REMARK   10  A    between atoms: C11_42  and  C12_44
REMARK   11  A    between atoms: C12_44  and  N14_45
ROOT
HETATM    1  C1  UNL     1      25.097  30.687  31.607  1.00  0.00     0.676 A
HETATM    2  N2  UNL     1      24.426  31.836  31.779  1.00  0.00    -0.192 N
ATOM      3  H2  UNL     1      23.719  31.906  32.510  1.00  0.00     0.184 HD
HETATM    4  C2  UNL     1      24.682  32.896  30.990  1.00  0.00     0.074 A
HETATM    5  C8  UNL     1      25.643  32.764  30.014  1.00  0.00     0.089 A
HETATM    6  N11 UNL     1      25.889  33.834  29.231  1.00  0.00    -0.349 N
ATOM      7  H11 UNL     1      25.373  34.703  29.370  1.00  0.00     0.167 HD
HETATM    8  C9  UNL     1      26.818  33.747  28.268  1.00  0.00     0.182 A
HETATM    9  N12 UNL     1      27.492  32.588  28.098  1.00  0.00    -0.337 N
ATOM     10  H12 UNL     1      28.196  32.537  27.362  1.00  0.00     0.168 HD
HETATM   11  C10 UNL     1      27.278  31.500  28.854  1.00  0.00     0.139 A
HETATM   12  N13 UNL     1      27.909  30.402  28.700  1.00  0.00    -0.310 N
ATOM     13  H13 UNL     1      27.669  29.636  29.329  1.00  0.00     0.170 HD
HETATM   14  C11 UNL     1      28.907  30.154  27.742  1.00  0.00     0.248 C
HETATM   15  O4  UNL     1      29.948  30.856  27.673  1.00  0.00    -0.271 OA
HETATM   16  C13 UNL     1      26.326  31.571  29.849  1.00  0.00     0.122 A
HETATM   17  N15 UNL     1      26.039  30.547  30.654  1.00  0.00    -0.186 N
ATOM     18  H15 UNL     1      26.531  29.661  30.548  1.00  0.00     0.184 HD
ENDROOT
BRANCH   4  19
HETATM   19  C3  UNL     1      23.932  34.181  31.183  1.00  0.00     0.199 C
BRANCH  19  20
HETATM   20  N3  UNL     1      22.535  33.964  31.157  1.00  0.00    -0.333 N
HETATM   21  N4  UNL     1      21.677  34.723  31.625  1.00  0.00    -0.314 N
ATOM     22  H4  UNL     1      20.701  34.444  31.537  1.00  0.00     0.182 HD
ATOM     23  H3  UNL     1      22.205  33.107  30.714  1.00  0.00     0.180 HD
BRANCH  21  24
HETATM   24  C4  UNL     1      21.953  35.966  32.282  1.00  0.00     0.248 C
HETATM   25  N5  UNL     1      21.521  37.098  31.472  1.00  0.00    -0.200 N
HETATM   26  C5  UNL     1      21.584  38.247  32.092  1.00  0.00     0.696 C
ATOM     27  H5  UNL     1      21.198  37.002  30.509  1.00  0.00     0.180 HD
HETATM   28  N8  UNL     1      22.040  38.325  33.436  1.00  0.00    -0.202 N
HETATM   29  C6  UNL     1      21.869  37.232  34.367  1.00  0.00     0.255 C
ATOM     30  H8  UNL     1      22.501  39.178  33.753  1.00  0.00     0.179 HD
HETATM   31  C7  UNL     1      21.263  36.074  33.615  1.00  0.00     0.268 C
BRANCH  26  32
HETATM   32  N6  UNL     1      21.193  39.430  31.424  1.00  0.00    -0.072 N
ATOM     33  H6  UNL     1      21.771  39.762  30.651  1.00  0.00     0.212 HD
BRANCH  32  34
HETATM   34  N7  UNL     1      20.057  40.169  31.766  1.00  0.00    -0.024 N
HETATM   35  O1  UNL     1      19.233  39.705  32.576  1.00  0.00    -0.516 OA
HETATM   36  O2  UNL     1      19.813  41.404  31.232  1.00  0.00    -0.516 OA
ENDBRANCH  32  34
ENDBRANCH  26  32
BRANCH  29  37
HETATM   37  N9  UNL     1      23.154  36.822  34.953  1.00  0.00    -0.075 NA
BRANCH  37  38
HETATM   38  O3  UNL     1      22.849  35.723  35.717  1.00  0.00    -0.294 OA
ATOM     39  H3  UNL     1      22.587  36.081  36.557  1.00  0.00     0.238 HD
ENDBRANCH  37  38
ENDBRANCH  29  37
BRANCH  31  40
HETATM   40  N10 UNL     1      19.858  36.434  33.375  1.00  0.00    -0.068 N
ATOM     41 3H10 UNL     1      19.471  37.023  34.112  1.00  0.00     0.275 HD
ATOM     42 2H10 UNL     1      19.746  37.090  32.601  1.00  0.00     0.275 HD
ATOM     43 1H10 UNL     1      19.328  35.573  33.241  1.00  0.00     0.275 HD
ENDBRANCH  31  40
ENDBRANCH  21  24
ENDBRANCH  19  20
ENDBRANCH   4  19
BRANCH   1  44
HETATM   44  N1  UNL     1      24.857  29.655  32.365  1.00  0.00    -0.234 N
ATOM     45  H12 UNL     1      24.742  29.825  33.365  1.00  0.00     0.174 HD
ATOM     46  H11 UNL     1      24.790  28.718  31.967  1.00  0.00     0.174 HD
ENDBRANCH   1  44
BRANCH  14  47
HETATM   47  C12 UNL     1      28.785  29.038  26.747  1.00  0.00     0.332 C
BRANCH  47  48
HETATM   48  N14 UNL     1      28.120  27.899  27.362  1.00  0.00    -0.071 N
ATOM     49 3H14 UNL     1      27.592  28.166  28.192  1.00  0.00     0.274 HD
ATOM     50 2H14 UNL     1      27.344  27.558  26.796  1.00  0.00     0.274 HD
ATOM     51 1H14 UNL     1      28.802  27.166  27.559  1.00  0.00     0.274 HD
ENDBRANCH  47  48
ENDBRANCH  14  47
TORSDOF 11
ENDMDL