MODEL 5
REMARK VINA RESULT: -8.001644989      3.616      5.854
REMARK  10 active torsions:
REMARK  status: ('A' for Active; 'I' for Inactive)
REMARK    1  A    between atoms: N1_1  and  C1_5
REMARK    2  A    between atoms: C1_5  and  O1_6
REMARK    3  A    between atoms: C1_5  and  C2_8
REMARK    4  A    between atoms: C3_13  and  N5_14
REMARK    5  A    between atoms: N5_14  and  C4_16
REMARK    6  A    between atoms: C6_27  and  S1_28
REMARK    7  A    between atoms: S1_28  and  C7_29
REMARK    8  A    between atoms: C7_29  and  C8_30
REMARK       I    between atoms: C8_30  and  N10_32
REMARK    9  A    between atoms: N10_32  and  C9_34
REMARK   10  A    between atoms: C10_39  and  O4_40
ROOT
HETATM    1  C2  UNL     1      20.951  39.879  31.213  1.00  0.00     0.126 A
HETATM    2  N2  UNL     1      19.870  40.676  31.334  1.00  0.00    -0.279 N
ATOM      3  H2  UNL     1      19.745  41.563  30.845  1.00  0.00     0.184 HD
HETATM    4  N3  UNL     1      18.994  40.150  32.174  1.00  0.00     0.002 NA
HETATM    5  N4  UNL     1      19.507  39.007  32.602  1.00  0.00    -0.051 N
HETATM    6  C3  UNL     1      18.984  38.117  33.468  1.00  0.00     0.720 A
HETATM    7  N9  UNL     1      19.732  37.025  33.729  1.00  0.00    -0.168 N
ATOM      8  H9  UNL     1      19.370  36.330  34.381  1.00  0.00     0.186 HD
HETATM    9  C6  UNL     1      20.919  36.818  33.172  1.00  0.00     0.161 A
HETATM   10  N13 UNL     1      21.441  37.698  32.311  1.00  0.00    -0.319 N
ATOM     11  H13 UNL     1      22.353  37.543  31.881  1.00  0.00     0.169 HD
HETATM   12  C13 UNL     1      20.715  38.798  32.035  1.00  0.00     0.174 A
ENDROOT
BRANCH   9  13
HETATM   13  S1  UNL     1      21.831  35.352  33.573  1.00  0.00    -0.084 SA
BRANCH  13  14
HETATM   14  C7  UNL     1      22.837  34.827  32.168  1.00  0.00     0.185 C
BRANCH  14  15
HETATM   15  C8  UNL     1      23.563  33.562  32.548  1.00  0.00     0.232 C
HETATM   16  O3  UNL     1      23.800  33.435  33.800  1.00  0.00    -0.272 OA
HETATM   17  N10 UNL     1      23.915  32.653  31.573  1.00  0.00    -0.315 N
ATOM     18  H10 UNL     1      23.659  32.889  30.614  1.00  0.00     0.170 HD
BRANCH  17  19
HETATM   19  C9  UNL     1      24.594  31.429  31.761  1.00  0.00     0.098 C
HETATM   20  N11 UNL     1      24.511  30.813  32.940  1.00  0.00    -0.291 N
HETATM   21  N12 UNL     1      25.206  29.606  33.061  1.00  0.00    -0.306 N
ATOM     22  H11 UNL     1      23.970  31.202  33.712  1.00  0.00     0.188 HD
HETATM   23  C10 UNL     1      24.927  28.607  32.026  1.00  0.00     0.233 C
ATOM     24  H12 UNL     1      25.864  29.433  33.820  1.00  0.00     0.183 HD
HETATM   25  C11 UNL     1      24.977  29.248  30.655  1.00  0.00     0.062 C
HETATM   26  C12 UNL     1      25.416  30.715  30.784  1.00  0.00     0.082 C
BRANCH  23  27
HETATM   27  O4  UNL     1      25.824  27.545  32.104  1.00  0.00    -0.376 OA
ATOM     28  H4  UNL     1      26.474  27.599  31.413  1.00  0.00     0.212 HD
ENDBRANCH  23  27
ENDBRANCH  17  19
ENDBRANCH  14  15
ENDBRANCH  13  14
ENDBRANCH   9  13
BRANCH   6  29
HETATM   29  N5  UNL     1      17.836  38.300  34.019  1.00  0.00    -0.019 N
ATOM     30  H5  UNL     1      17.773  38.640  34.978  1.00  0.00     0.203 HD
BRANCH  29  31
HETATM   31  C4  UNL     1      16.662  38.023  33.280  1.00  0.00     0.715 A
HETATM   32  N6  UNL     1      15.876  38.865  32.585  1.00  0.00    -0.138 N
HETATM   33  C5  UNL     1      14.867  38.167  32.040  1.00  0.00     0.353 A
ATOM     34  H6  UNL     1      16.023  39.870  32.489  1.00  0.00     0.189 HD
HETATM   35  O2  UNL     1      13.939  38.631  31.323  1.00  0.00    -0.245 OA
HETATM   36  N7  UNL     1      15.028  36.892  32.396  1.00  0.00    -0.237 N
HETATM   37  N8  UNL     1      16.104  36.793  33.143  1.00  0.00    -0.127 N
ATOM     38  H7  UNL     1      14.415  36.120  32.132  1.00  0.00     0.192 HD
ATOM     39  H8  UNL     1      16.462  35.931  33.553  1.00  0.00     0.205 HD
ENDBRANCH  29  31
ENDBRANCH   6  29
BRANCH   1  40
HETATM   40  C1  UNL     1      22.141  40.152  30.350  1.00  0.00     0.372 C
BRANCH  40  41
HETATM   41  N1  UNL     1      22.777  41.359  30.844  1.00  0.00    -0.047 N
ATOM     42  H13 UNL     1      22.381  41.641  31.740  1.00  0.00     0.277 HD
ATOM     43  H12 UNL     1      23.736  41.172  31.139  1.00  0.00     0.277 HD
ATOM     44  H11 UNL     1      22.744  42.126  30.172  1.00  0.00     0.277 HD
ENDBRANCH  40  41
BRANCH  40  45
HETATM   45  O1  UNL     1      22.974  39.059  30.384  1.00  0.00    -0.365 OA
ATOM     46  H1  UNL     1      22.804  38.490  31.125  1.00  0.00     0.212 HD
ENDBRANCH  40  45
ENDBRANCH   1  40
TORSDOF 10
ENDMDL