MODEL 1
REMARK VINA RESULT: -7.835429378      0.000      0.000
REMARK  11 active torsions:
REMARK  status: ('A' for Active; 'I' for Inactive)
REMARK    1  A    between atoms: C2_2  and  C8_16
REMARK       I    between atoms: N1_3  and  C3_5
REMARK    2  A    between atoms: C3_5  and  C4_7
REMARK    3  A    between atoms: C8_16  and  C11_26
REMARK    4  A    between atoms: N5_17  and  O2_19
REMARK    5  A    between atoms: O2_19  and  C9_20
REMARK    6  A    between atoms: C9_20  and  O3_21
REMARK    7  A    between atoms: C9_20  and  C10_23
REMARK    8  A    between atoms: C11_26  and  N8_30
REMARK    9  A    between atoms: N9_32  and  C12_34
REMARK   10  A    between atoms: C13_35  and  O5_36
REMARK   11  A    between atoms: C14_40  and  N11_41
ROOT
HETATM    1  C8  UNL     1      21.102  37.674  32.018  1.00  0.00     0.121 C
HETATM    2  N5  UNL     1      20.975  38.385  33.072  1.00  0.00    -0.258 N
ATOM      3  H5  UNL     1      21.232  39.370  33.012  1.00  0.00     0.194 HD
ENDROOT
BRANCH   1   4
HETATM    4  C2  UNL     1      21.599  38.297  30.800  1.00  0.00     0.040 C
HETATM    5  C1  UNL     1      20.779  38.254  29.534  1.00  0.00     0.071 C
HETATM    6  N1  UNL     1      22.727  38.900  30.738  1.00  0.00    -0.327 N
HETATM    7  C3  UNL     1      23.159  39.486  29.534  1.00  0.00     0.244 C
ATOM      8  H1  UNL     1      23.316  38.956  31.569  1.00  0.00     0.168 HD
HETATM    9  O1  UNL     1      22.411  40.299  28.942  1.00  0.00    -0.271 OA
BRANCH   7  10
HETATM   10  C4  UNL     1      24.475  39.142  28.987  1.00  0.00     0.178 C
HETATM   11  C5  UNL     1      24.953  40.148  27.968  1.00  0.00     0.054 C
HETATM   12  C6  UNL     1      26.408  39.840  27.674  1.00  0.00     0.125 C
HETATM   13  N2  UNL     1      26.652  38.401  27.715  1.00  0.00    -0.365 N
HETATM   14  C7  UNL     1      25.544  37.479  27.733  1.00  0.00     0.184 C
ATOM     15  H2  UNL     1      27.609  38.047  27.732  1.00  0.00     0.162 HD
HETATM   16  N3  UNL     1      25.658  36.227  27.080  1.00  0.00    -0.064 NA
HETATM   17  N4  UNL     1      24.468  37.835  28.357  1.00  0.00    -0.351 N
ATOM     18  H4  UNL     1      23.651  37.225  28.403  1.00  0.00     0.163 HD
ENDBRANCH   7  10
ENDBRANCH   1   4
BRANCH   1  19
HETATM   19  C11 UNL     1      20.760  36.278  32.030  1.00  0.00     0.144 C
HETATM   20  N7  UNL     1      19.585  35.904  32.357  1.00  0.00    -0.382 N
ATOM     21  H72 UNL     1      18.883  36.599  32.610  1.00  0.00     0.157 HD
ATOM     22  H71 UNL     1      19.343  34.913  32.365  1.00  0.00     0.157 HD
BRANCH  19  23
HETATM   23  N8  UNL     1      21.735  35.314  31.678  1.00  0.00    -0.283 N
HETATM   24  N9  UNL     1      22.869  35.280  32.265  1.00  0.00    -0.290 N
ATOM     25  H9  UNL     1      23.111  35.943  33.001  1.00  0.00     0.187 HD
ATOM     26  H8  UNL     1      21.528  34.636  30.945  1.00  0.00     0.188 HD
BRANCH  24  27
HETATM   27  C12 UNL     1      23.782  34.271  31.840  1.00  0.00     0.168 A
HETATM   28  C13 UNL     1      24.234  33.307  32.700  1.00  0.00     0.189 A
HETATM   29  N10 UNL     1      25.085  32.382  32.267  1.00  0.00    -0.168 N
HETATM   30  C14 UNL     1      25.509  32.381  30.991  1.00  0.00     0.680 A
ATOM     31  H10 UNL     1      25.420  31.666  32.911  1.00  0.00     0.186 HD
HETATM   32  N12 UNL     1      25.081  33.325  30.104  1.00  0.00    -0.154 N
HETATM   33  C15 UNL     1      24.228  34.252  30.541  1.00  0.00     0.292 A
ATOM     34  H12 UNL     1      25.404  33.321  29.136  1.00  0.00     0.187 HD
HETATM   35  O6  UNL     1      23.817  35.137  29.739  1.00  0.00    -0.265 OA
BRANCH  28  36
HETATM   36  O5  UNL     1      23.824  33.267  34.030  1.00  0.00    -0.344 OA
ATOM     37  H5  UNL     1      23.489  32.469  34.424  1.00  0.00     0.219 HD
ENDBRANCH  28  36
BRANCH  30  38
HETATM   38  N11 UNL     1      26.332  31.491  30.561  1.00  0.00    -0.234 N
ATOM     39 2H11 UNL     1      25.939  30.669  30.103  1.00  0.00     0.174 HD
ATOM     40 1H11 UNL     1      27.340  31.603  30.672  1.00  0.00     0.174 HD
ENDBRANCH  30  38
ENDBRANCH  24  27
ENDBRANCH  19  23
ENDBRANCH   1  19
BRANCH   2  41
HETATM   41  O2  UNL     1      20.521  37.921  34.273  1.00  0.00    -0.238 OA
BRANCH  41  42
HETATM   42  C9  UNL     1      21.475  37.658  35.301  1.00  0.00     0.376 C
BRANCH  42  43
HETATM   43  O3  UNL     1      22.679  38.271  35.007  1.00  0.00    -0.362 OA
ATOM     44  H3  UNL     1      22.826  39.006  35.591  1.00  0.00     0.213 HD
ENDBRANCH  42  43
BRANCH  42  45
HETATM   45  C10 UNL     1      21.657  36.192  35.376  1.00  0.00     0.288 C
HETATM   46  N6  UNL     1      20.568  35.294  35.459  1.00  0.00    -0.057 NA
HETATM   47  O4  UNL     1      22.824  35.694  35.366  1.00  0.00    -0.271 OA
ENDBRANCH  42  45
ENDBRANCH  41  42
ENDBRANCH   2  41
TORSDOF 11
ENDMDL