MODEL 4
REMARK VINA RESULT: -7.354063830      3.671      6.330
REMARK  12 active torsions:
REMARK  status: ('A' for Active; 'I' for Inactive)
REMARK    1  A    between atoms: N3_7  and  N4_8
REMARK    2  A    between atoms: C5_16  and  N7_17
REMARK    3  A    between atoms: N8_19  and  N9_21
REMARK    4  A    between atoms: C7_26  and  O1_27
REMARK    5  A    between atoms: C8_29  and  C9_30
REMARK    6  A    between atoms: C9_30  and  C10_31
REMARK    7  A    between atoms: C10_31  and  O2_32
REMARK    8  A    between atoms: N11_34  and  C11_35
REMARK    9  A    between atoms: C11_35  and  C12_36
REMARK   10  A    between atoms: C12_36  and  O3_37
REMARK   11  A    between atoms: C12_36  and  O4_39
REMARK   12  A    between atoms: O4_39  and  N12_40
ROOT
HETATM    1  N7  UNL     1      24.643  29.021  30.495  1.00  0.00    -0.266 N
ATOM      2  H7  UNL     1      23.840  29.238  29.905  1.00  0.00     0.190 HD
HETATM    3  N8  UNL     1      25.127  29.912  31.258  1.00  0.00    -0.227 N
ATOM      4  H8  UNL     1      25.930  29.699  31.850  1.00  0.00     0.209 HD
ENDROOT
BRANCH   3   5
HETATM    5  N9  UNL     1      24.550  31.194  31.284  1.00  0.00    -0.117 N
HETATM    6  C6  UNL     1      25.038  32.163  30.580  1.00  0.00     0.702 A
HETATM    7  N10 UNL     1      26.124  32.032  29.771  1.00  0.00    -0.167 N
HETATM    8  N11 UNL     1      24.641  33.424  30.473  1.00  0.00    -0.176 N
HETATM    9  C7  UNL     1      26.396  33.203  29.172  1.00  0.00     0.179 A
ATOM     10  H10 UNL     1      26.655  31.171  29.639  1.00  0.00     0.186 HD
HETATM   11  C8  UNL     1      25.448  34.085  29.622  1.00  0.00     0.082 A
ATOM     12  H9  UNL     1      23.731  31.363  31.868  1.00  0.00     0.207 HD
BRANCH   9  13
HETATM   13  O1  UNL     1      27.444  33.394  28.286  1.00  0.00    -0.344 OA
ATOM     14  H1  UNL     1      28.207  33.929  28.474  1.00  0.00     0.219 HD
ENDBRANCH   9  13
BRANCH  11  15
HETATM   15  C9  UNL     1      25.375  35.507  29.207  1.00  0.00     0.088 C
BRANCH  15  16
HETATM   16  C10 UNL     1      25.349  35.658  27.693  1.00  0.00     0.170 C
BRANCH  16  17
HETATM   17  O2  UNL     1      24.284  36.488  27.375  1.00  0.00    -0.400 OA
ATOM     18  H2  UNL     1      24.646  37.301  27.041  1.00  0.00     0.209 HD
ENDBRANCH  16  17
ENDBRANCH  15  16
ENDBRANCH  11  15
BRANCH   8  19
HETATM   19  C11 UNL     1      23.526  34.010  31.156  1.00  0.00     0.210 C
BRANCH  19  20
HETATM   20  C12 UNL     1      23.741  34.057  32.662  1.00  0.00     0.303 C
BRANCH  20  21
HETATM   21  O3  UNL     1      25.092  33.920  32.973  1.00  0.00    -0.367 OA
ATOM     22  H3  UNL     1      25.571  34.710  32.753  1.00  0.00     0.212 HD
ENDBRANCH  20  21
BRANCH  20  23
HETATM   23  O4  UNL     1      23.047  33.044  33.300  1.00  0.00    -0.253 OA
BRANCH  23  24
HETATM   24  N12 UNL     1      21.724  33.179  33.034  1.00  0.00    -0.308 N
ATOM     25 2H12 UNL     1      21.311  33.964  32.532  1.00  0.00     0.184 HD
ATOM     26 1H12 UNL     1      21.225  32.376  33.417  1.00  0.00     0.184 HD
ENDBRANCH  23  24
ENDBRANCH  20  23
ENDBRANCH  19  20
ENDBRANCH   8  19
ENDBRANCH   3   5
BRANCH   1  27
HETATM   27  C5  UNL     1      25.218  27.717  30.459  1.00  0.00     0.191 A
HETATM   28  N6  UNL     1      25.543  27.179  29.270  1.00  0.00    -0.331 N
HETATM   29  C4  UNL     1      26.089  25.944  29.264  1.00  0.00     0.123 A
ATOM     30  H6  UNL     1      25.383  27.688  28.401  1.00  0.00     0.168 HD
HETATM   31  C3  UNL     1      26.428  25.376  28.042  1.00  0.00     0.186 A
HETATM   32  C14 UNL     1      26.332  25.207  30.397  1.00  0.00     0.156 A
HETATM   33  N3  UNL     1      26.972  24.151  27.983  1.00  0.00    -0.076 N
HETATM   34  N5  UNL     1      26.201  26.089  26.830  1.00  0.00    -0.077 NA
HETATM   35  C2  UNL     1      27.201  23.447  29.120  1.00  0.00     0.701 A
HETATM   36  N1  UNL     1      26.878  23.981  30.338  1.00  0.00    -0.169 N
HETATM   37  N2  UNL     1      27.718  22.277  28.976  1.00  0.00    -0.233 N
HETATM   38  C1  UNL     1      27.169  23.154  31.469  1.00  0.00     0.177 C
ATOM     39  H22 UNL     1      27.890  21.748  29.831  1.00  0.00     0.174 HD
ATOM     40  H21 UNL     1      27.958  21.879  28.069  1.00  0.00     0.174 HD
HETATM   41  N13 UNL     1      26.009  25.742  31.584  1.00  0.00    -0.304 N
HETATM   42  C13 UNL     1      25.456  26.989  31.602  1.00  0.00     0.292 A
ATOM     43  H13 UNL     1      26.171  25.228  32.450  1.00  0.00     0.171 HD
HETATM   44  O5  UNL     1      25.138  27.527  32.697  1.00  0.00    -0.264 OA
BRANCH  33  45
HETATM   45  N4  UNL     1      27.303  23.604  26.741  1.00  0.00    -0.323 N
ATOM     46  H42 UNL     1      28.040  22.901  26.682  1.00  0.00     0.178 HD
ATOM     47  H41 UNL     1      26.810  23.906  25.900  1.00  0.00     0.178 HD
ENDBRANCH  33  45
ENDBRANCH   1  27
TORSDOF 12
ENDMDL