MODEL 4
REMARK VINA RESULT: -7.795602431      2.603     11.100
REMARK  11 active torsions:
REMARK  status: ('A' for Active; 'I' for Inactive)
REMARK    1  A    between atoms: C2_2  and  C12_28
REMARK    2  A    between atoms: N1_3  and  N2_5
REMARK       I    between atoms: N2_5  and  C3_7
REMARK       I    between atoms: C3_7  and  N3_9
REMARK    3  A    between atoms: N3_9  and  C4_11
REMARK    4  A    between atoms: C4_11  and  C5_12
REMARK    5  A    between atoms: C4_11  and  C10_19
REMARK    6  A    between atoms: C12_28  and  N10_33
REMARK    7  A    between atoms: N9_29  and  O2_31
REMARK    8  A    between atoms: N10_33  and  C13_35
REMARK    9  A    between atoms: C14_38  and  N12_39
REMARK   10  A    between atoms: C14_38  and  N13_42
REMARK   11  A    between atoms: N12_39  and  O3_40
ROOT
HETATM    1  C1  UNL     1      26.078  32.338  30.190  1.00  0.00     0.074 C
HETATM    2  C2  UNL     1      25.301  31.784  31.315  1.00  0.00     0.068 C
HETATM    3  N1  UNL     1      25.378  30.534  31.576  1.00  0.00    -0.298 N
ATOM      4  H1  UNL     1      24.839  30.158  32.356  1.00  0.00     0.187 HD
ENDROOT
BRANCH   3   5
HETATM    5  N2  UNL     1      26.176  29.672  30.829  1.00  0.00    -0.251 N
HETATM    6  C3  UNL     1      25.729  28.424  30.337  1.00  0.00     0.335 C
HETATM    7  O1  UNL     1      24.536  28.034  30.574  1.00  0.00    -0.246 OA
HETATM    8  N3  UNL     1      26.591  27.590  29.581  1.00  0.00    -0.325 N
ATOM      9  H3  UNL     1      27.541  27.914  29.401  1.00  0.00     0.165 HD
ATOM     10  H2  UNL     1      27.135  29.957  30.625  1.00  0.00     0.191 HD
BRANCH   8  11
HETATM   11  C4  UNL     1      26.195  26.305  29.050  1.00  0.00     0.207 C
BRANCH  11  12
HETATM   12  C5  UNL     1      26.500  26.122  27.617  1.00  0.00     0.039 A
HETATM   13  C6  UNL     1      25.794  25.213  26.882  1.00  0.00     0.027 A
HETATM   14  C7  UNL     1      26.050  25.021  25.550  1.00  0.00     0.003 A
HETATM   15  C8  UNL     1      27.042  25.761  24.947  1.00  0.00     0.017 A
HETATM   16  C9  UNL     1      27.750  26.675  25.694  1.00  0.00     0.088 A
HETATM   17  N4  UNL     1      27.474  26.840  27.000  1.00  0.00    -0.367 N
ATOM     18  H4  UNL     1      28.008  27.520  27.540  1.00  0.00     0.165 HD
ENDBRANCH  11  12
BRANCH  11  19
HETATM   19  C10 UNL     1      26.559  25.154  29.905  1.00  0.00     0.144 A
HETATM   20  N5  UNL     1      27.164  24.007  29.475  1.00  0.00    -0.270 N
HETATM   21  N6  UNL     1      27.343  23.177  30.480  1.00  0.00    -0.227 N
ATOM     22  H5  UNL     1      27.438  23.820  28.510  1.00  0.00     0.190 HD
HETATM   23  N7  UNL     1      26.870  23.761  31.544  1.00  0.00    -0.225 N
ATOM     24  H6  UNL     1      27.771  22.252  30.435  1.00  0.00     0.210 HD
HETATM   25  N8  UNL     1      26.384  24.969  31.224  1.00  0.00    -0.266 N
ATOM     26  H7  UNL     1      26.869  23.359  32.482  1.00  0.00     0.210 HD
HETATM   27  C11 UNL     1      25.786  25.862  32.162  1.00  0.00     0.181 C
ENDBRANCH  11  19
ENDBRANCH   8  11
ENDBRANCH   3   5
BRANCH   2  28
HETATM   28  C12 UNL     1      24.466  32.663  32.106  1.00  0.00     0.151 C
HETATM   29  N9  UNL     1      24.327  32.529  33.389  1.00  0.00    -0.251 N
ATOM     30  H9  UNL     1      23.724  33.180  33.891  1.00  0.00     0.196 HD
BRANCH  29  31
HETATM   31  O2  UNL     1      24.966  31.539  34.092  1.00  0.00    -0.288 OA
ATOM     32  H2  UNL     1      25.882  31.604  34.336  1.00  0.00     0.244 HD
ENDBRANCH  29  31
BRANCH  28  33
HETATM   33  N10 UNL     1      23.745  33.732  31.505  1.00  0.00    -0.311 N
ATOM     34  H10 UNL     1      23.956  34.036  30.555  1.00  0.00     0.170 HD
BRANCH  33  35
HETATM   35  C13 UNL     1      22.712  34.376  32.272  1.00  0.00     0.185 A
HETATM   36  N11 UNL     1      21.463  34.224  32.378  1.00  0.00    -0.301 N
HETATM   37  C14 UNL     1      21.316  35.269  33.328  1.00  0.00     0.306 A
ATOM     38  H11 UNL     1      20.801  33.583  31.939  1.00  0.00     0.168 HD
HETATM   39  N15 UNL     1      22.706  35.420  33.194  1.00  0.00    -0.301 N
ATOM     40  H15 UNL     1      23.411  36.035  33.600  1.00  0.00     0.168 HD
BRANCH  37  41
HETATM   41  N12 UNL     1      20.906  34.760  34.631  1.00  0.00    -0.024 NA
BRANCH  41  42
HETATM   42  O3  UNL     1      21.004  35.736  35.569  1.00  0.00    -0.291 OA
ATOM     43  H3  UNL     1      21.108  36.583  35.153  1.00  0.00     0.239 HD
ENDBRANCH  41  42
ENDBRANCH  37  41
BRANCH  37  44
HETATM   44  N13 UNL     1      20.500  36.364  32.869  1.00  0.00    -0.280 N
HETATM   45  N14 UNL     1      19.404  36.557  33.413  1.00  0.00    -0.345 N
ATOM     46 2H14 UNL     1      19.101  35.943  34.170  1.00  0.00     0.176 HD
ATOM     47 1H14 UNL     1      18.827  37.332  33.088  1.00  0.00     0.176 HD
ATOM     48  H13 UNL     1      20.817  36.968  32.111  1.00  0.00     0.185 HD
ENDBRANCH  37  44
ENDBRANCH  33  35
ENDBRANCH  28  33
ENDBRANCH   2  28
TORSDOF 11
ENDMDL