MODEL 3
REMARK VINA RESULT: -7.510872449      0.614      2.953
REMARK  13 active torsions:
REMARK  status: ('A' for Active; 'I' for Inactive)
REMARK    1  A    between atoms: C2_2  and  N1_3
REMARK    2  A    between atoms: C2_2  and  C3_7
REMARK    3  A    between atoms: C3_7  and  O2_9
REMARK    4  A    between atoms: O2_9  and  C4_10
REMARK    5  A    between atoms: C4_10  and  C5_11
REMARK    6  A    between atoms: C6_12  and  O3_13
REMARK    7  A    between atoms: C8_17  and  O5_18
REMARK    8  A    between atoms: C9_20  and  N2_21
REMARK       I    between atoms: N2_21  and  C10_23
REMARK    9  A    between atoms: C10_23  and  C11_25
REMARK   10  A    between atoms: C12_28  and  C13_29
REMARK   11  A    between atoms: C13_29  and  N5_31
REMARK   12  A    between atoms: N5_31  and  N6_33
REMARK   13  A    between atoms: N8_39  and  N9_41
ROOT
HETATM    1  N2  UNL     1      22.891  34.893  33.024  1.00  0.00    -0.304 N
ATOM      2  H2  UNL     1      23.676  35.350  32.560  1.00  0.00     0.171 HD
HETATM    3  C10 UNL     1      22.885  33.531  32.919  1.00  0.00     0.291 C
HETATM    4  O6  UNL     1      22.130  32.713  33.478  1.00  0.00    -0.264 OA
ENDROOT
BRANCH   1   5
HETATM    5  C9  UNL     1      21.994  35.780  33.666  1.00  0.00     0.148 A
HETATM    6  C8  UNL     1      21.974  36.055  35.013  1.00  0.00     0.164 A
HETATM    7  C7  UNL     1      20.976  36.894  35.545  1.00  0.00     0.243 A
HETATM    8  C6  UNL     1      20.017  37.452  34.777  1.00  0.00     0.144 A
HETATM    9  O4  UNL     1      20.990  37.123  36.781  1.00  0.00    -0.282 OA
HETATM   10  C5  UNL     1      20.046  37.165  33.409  1.00  0.00     0.075 A
HETATM   11  N11 UNL     1      21.000  36.368  32.901  1.00  0.00    -0.334 N
HETATM   12  C15 UNL     1      21.031  36.119  31.473  1.00  0.00     0.158 C
BRANCH   6  13
HETATM   13  O5  UNL     1      22.904  35.539  35.879  1.00  0.00    -0.354 OA
ATOM     14  H5  UNL     1      23.088  34.608  35.827  1.00  0.00     0.218 HD
ENDBRANCH   6  13
BRANCH   8  15
HETATM   15  O3  UNL     1      19.037  38.277  35.315  1.00  0.00    -0.355 OA
ATOM     16  H3  UNL     1      18.713  39.029  34.835  1.00  0.00     0.218 HD
ENDBRANCH   8  15
BRANCH  10  17
HETATM   17  C4  UNL     1      18.874  37.695  32.654  1.00  0.00     0.239 C
BRANCH  17  18
HETATM   18  O2  UNL     1      17.713  36.928  33.006  1.00  0.00    -0.314 OA
BRANCH  18  19
HETATM   19  C3  UNL     1      16.454  37.495  32.982  1.00  0.00     0.289 C
HETATM   20  O1  UNL     1      16.241  38.558  33.637  1.00  0.00    -0.263 OA
BRANCH  19  21
HETATM   21  C2  UNL     1      15.385  36.824  32.175  1.00  0.00     0.278 C
HETATM   22  C1  UNL     1      14.346  37.857  31.733  1.00  0.00     0.050 C
BRANCH  21  23
HETATM   23  N1  UNL     1      14.737  35.875  33.072  1.00  0.00    -0.066 N
ATOM     24  H13 UNL     1      14.763  34.919  32.717  1.00  0.00     0.275 HD
ATOM     25  H12 UNL     1      15.269  35.719  33.929  1.00  0.00     0.275 HD
ATOM     26  H11 UNL     1      13.788  36.200  33.254  1.00  0.00     0.275 HD
ENDBRANCH  21  23
ENDBRANCH  19  21
ENDBRANCH  18  19
ENDBRANCH  17  18
ENDBRANCH  10  17
ENDBRANCH   1   5
BRANCH   3  27
HETATM   27  C11 UNL     1      23.889  32.857  32.019  1.00  0.00     0.191 A
HETATM   28  N3  UNL     1      24.466  33.537  31.019  1.00  0.00    -0.320 N
HETATM   29  C12 UNL     1      25.411  33.002  30.199  1.00  0.00     0.165 A
ATOM     30  H3  UNL     1      24.184  34.505  30.865  1.00  0.00     0.169 HD
HETATM   31  N7  UNL     1      25.759  31.719  30.431  1.00  0.00    -0.172 N
HETATM   32  C14 UNL     1      25.212  31.004  31.411  1.00  0.00     0.699 A
ATOM     33  H7  UNL     1      26.463  31.283  29.836  1.00  0.00     0.186 HD
HETATM   34  N8  UNL     1      25.554  29.765  31.602  1.00  0.00    -0.138 N
HETATM   35  N10 UNL     1      24.266  31.594  32.206  1.00  0.00    -0.170 N
ATOM     36  H8  UNL     1      26.246  29.294  31.019  1.00  0.00     0.205 HD
ATOM     37  H10 UNL     1      23.841  31.054  32.960  1.00  0.00     0.186 HD
BRANCH  29  38
HETATM   38  C13 UNL     1      25.983  33.780  29.118  1.00  0.00     0.175 C
HETATM   39  N4  UNL     1      27.008  33.196  28.327  1.00  0.00    -0.077 NA
BRANCH  38  40
HETATM   40  N5  UNL     1      25.587  34.968  28.893  1.00  0.00    -0.291 N
ATOM     41  H5  UNL     1      24.603  35.073  28.649  1.00  0.00     0.187 HD
BRANCH  40  42
HETATM   42  N6  UNL     1      26.332  36.139  28.940  1.00  0.00    -0.344 N
ATOM     43  H62 UNL     1      25.981  36.844  29.587  1.00  0.00     0.176 HD
ATOM     44  H61 UNL     1      27.173  36.370  28.410  1.00  0.00     0.176 HD
ENDBRANCH  40  42
ENDBRANCH  38  40
ENDBRANCH  29  38
BRANCH  34  45
HETATM   45  N9  UNL     1      24.894  29.108  32.689  1.00  0.00    -0.331 N
ATOM     46  H92 UNL     1      23.876  29.061  32.743  1.00  0.00     0.177 HD
ATOM     47  H91 UNL     1      25.510  28.700  33.392  1.00  0.00     0.177 HD
ENDBRANCH  34  45
ENDBRANCH   3  27
TORSDOF 13
ENDMDL