MODEL 3
REMARK VINA RESULT: -8.465264109      3.055      9.418
REMARK  9 active torsions:
REMARK  status: ('A' for Active; 'I' for Inactive)
REMARK    1  A    between atoms: N7_18  and  C7_19
REMARK    2  A    between atoms: C7_19  and  C8_20
REMARK    3  A    between atoms: C8_20  and  O1_21
REMARK    4  A    between atoms: C8_20  and  C9_23
REMARK    5  A    between atoms: C9_23  and  C10_24
REMARK    6  A    between atoms: C9_23  and  N8_27
REMARK    7  A    between atoms: C10_24  and  O2_25
REMARK    8  A    between atoms: C12_31  and  C13_32
REMARK       I    between atoms: C13_32  and  N10_34
REMARK       I    between atoms: N10_34  and  C14_36
REMARK    9  A    between atoms: C15_43  and  N14_44
ROOT
HETATM    1  N1  UNL     1      20.109  37.877  36.459  1.00  0.00    -0.190 NA
HETATM    2  C1  UNL     1      20.516  37.565  35.400  1.00  0.00     0.121 C
HETATM    3  C2  UNL     1      21.021  37.163  34.117  1.00  0.00     0.158 A
HETATM    4  N2  UNL     1      21.324  38.081  33.206  1.00  0.00    -0.339 N
ATOM      5  H2  UNL     1      21.198  39.070  33.419  1.00  0.00     0.167 HD
HETATM    6  C3  UNL     1      21.799  37.708  32.003  1.00  0.00     0.120 A
HETATM    7  C4  UNL     1      22.098  38.696  31.097  1.00  0.00     0.162 A
HETATM    8  N3  UNL     1      21.921  40.077  31.397  1.00  0.00    -0.080 NA
HETATM    9  N4  UNL     1      22.579  38.319  29.877  1.00  0.00    -0.177 N
ATOM     10  H4  UNL     1      22.811  39.028  29.181  1.00  0.00     0.185 HD
HETATM   11  C5  UNL     1      22.748  37.019  29.588  1.00  0.00     0.678 A
HETATM   12  N5  UNL     1      23.202  36.678  28.435  1.00  0.00    -0.234 N
ATOM     13  H51 UNL     1      23.331  35.690  28.215  1.00  0.00     0.174 HD
ATOM     14  H52 UNL     1      23.429  37.401  27.752  1.00  0.00     0.174 HD
HETATM   15  N6  UNL     1      22.445  36.053  30.501  1.00  0.00    -0.174 N
ATOM     16  H6  UNL     1      22.582  35.073  30.256  1.00  0.00     0.186 HD
HETATM   17  C6  UNL     1      21.968  36.369  31.719  1.00  0.00     0.155 A
HETATM   18  N7  UNL     1      21.663  35.405  32.639  1.00  0.00    -0.312 N
HETATM   19  C15 UNL     1      21.202  35.795  33.805  1.00  0.00     0.141 A
ENDROOT
BRANCH  19  20
HETATM   20  N14 UNL     1      20.909  34.994  34.737  1.00  0.00    -0.383 N
ATOM     21 2H14 UNL     1      19.951  34.824  35.046  1.00  0.00     0.157 HD
ATOM     22 1H14 UNL     1      21.704  34.511  35.154  1.00  0.00     0.157 HD
ENDBRANCH  19  20
BRANCH  18  23
HETATM   23  C7  UNL     1      21.868  34.045  32.282  1.00  0.00     0.166 C
BRANCH  23  24
HETATM   24  C8  UNL     1      22.997  33.365  32.987  1.00  0.00     0.163 C
BRANCH  24  25
HETATM   25  O1  UNL     1      23.581  34.179  33.950  1.00  0.00    -0.392 OA
ATOM     26  H1  UNL     1      24.067  34.898  33.566  1.00  0.00     0.210 HD
ENDBRANCH  24  25
BRANCH  24  27
HETATM   27  C9  UNL     1      24.093  32.958  32.028  1.00  0.00     0.162 C
BRANCH  27  28
HETATM   28  C10 UNL     1      23.712  33.145  30.584  1.00  0.00     0.194 C
BRANCH  28  29
HETATM   29  O2  UNL     1      24.608  34.064  30.016  1.00  0.00    -0.399 OA
ATOM     30  H2  UNL     1      24.172  34.482  29.282  1.00  0.00     0.209 HD
ENDBRANCH  28  29
ENDBRANCH  27  28
BRANCH  27  31
HETATM   31  N8  UNL     1      24.484  31.575  32.222  1.00  0.00    -0.277 N
HETATM   32  C11 UNL     1      24.637  30.910  33.385  1.00  0.00     0.202 A
HETATM   33  N9  UNL     1      25.006  29.657  33.112  1.00  0.00    -0.332 N
HETATM   34  C12 UNL     1      25.089  29.519  31.780  1.00  0.00     0.190 A
ATOM     35  H9  UNL     1      25.194  28.928  33.800  1.00  0.00     0.168 HD
HETATM   36  N13 UNL     1      24.768  30.696  31.248  1.00  0.00    -0.277 N
ATOM     37  H13 UNL     1      24.741  30.899  30.249  1.00  0.00     0.189 HD
BRANCH  34  38
HETATM   38  C13 UNL     1      25.467  28.282  31.085  1.00  0.00     0.293 C
HETATM   39  O3  UNL     1      25.646  28.307  29.841  1.00  0.00    -0.264 OA
HETATM   40  N10 UNL     1      25.635  27.060  31.783  1.00  0.00    -0.295 N
HETATM   41  C14 UNL     1      26.001  25.884  31.086  1.00  0.00     0.188 C
ATOM     42  H10 UNL     1      25.491  27.028  32.792  1.00  0.00     0.171 HD
HETATM   43  N11 UNL     1      26.166  24.746  31.666  1.00  0.00    -0.373 N
HETATM   44  N12 UNL     1      26.210  25.897  29.660  1.00  0.00    -0.064 NA
ATOM     45 2H11 UNL     1      26.018  24.736  32.675  1.00  0.00     0.158 HD
ATOM     46 1H11 UNL     1      26.430  23.898  31.164  1.00  0.00     0.158 HD
ENDBRANCH  34  38
ENDBRANCH  27  31
ENDBRANCH  24  27
ENDBRANCH  23  24
ENDBRANCH  18  23
TORSDOF 9
ENDMDL