MODEL 3
REMARK VINA RESULT: -7.354555757      1.551      1.674
REMARK  11 active torsions:
REMARK  status: ('A' for Active; 'I' for Inactive)
REMARK    1  A    between atoms: N1_1  and  N2_4
REMARK       I    between atoms: C1_6  and  N3_7
REMARK       I    between atoms: C1_6  and  N7_18
REMARK    2  A    between atoms: N3_7  and  N4_9
REMARK       I    between atoms: N4_9  and  C2_11
REMARK       I    between atoms: C2_11  and  N5_13
REMARK    3  A    between atoms: N5_13  and  N6_15
REMARK    4  A    between atoms: N7_18  and  C3_19
REMARK    5  A    between atoms: N7_18  and  C5_23
REMARK    6  A    between atoms: C3_19  and  C4_20
REMARK    7  A    between atoms: C4_20  and  O2_21
REMARK    8  A    between atoms: N10_28  and  C6_29
REMARK    9  A    between atoms: C6_29  and  S1_30
REMARK   10  A    between atoms: S1_30  and  C7_31
REMARK   11  A    between atoms: C12_43  and  O3_44
ROOT
HETATM    1  C5  UNL     1      22.620  35.030  32.234  1.00  0.00     0.192 A
HETATM    2  N8  UNL     1      23.490  35.199  31.173  1.00  0.00    -0.267 N
ATOM      3  H8  UNL     1      23.801  36.091  30.788  1.00  0.00     0.190 HD
HETATM    4  N9  UNL     1      23.841  34.027  30.754  1.00  0.00    -0.236 N
ATOM      5  H9  UNL     1      24.479  33.865  29.974  1.00  0.00     0.208 HD
HETATM    6  N10 UNL     1      23.254  33.037  31.482  1.00  0.00    -0.244 N
HETATM    7  C12 UNL     1      22.511  33.671  32.376  1.00  0.00     0.206 A
ENDROOT
BRANCH   1   8
HETATM    8  N7  UNL     1      22.053  36.114  32.952  1.00  0.00    -0.158 N
HETATM    9  C1  UNL     1      21.224  37.067  32.246  1.00  0.00     0.715 C
HETATM   10  N2  UNL     1      21.078  38.235  32.645  1.00  0.00    -0.137 N
HETATM   11  N3  UNL     1      20.551  36.674  31.036  1.00  0.00    -0.127 N
ATOM     12  H2  UNL     1      21.589  38.423  33.508  1.00  0.00     0.205 HD
ATOM     13  H3  UNL     1      20.047  35.787  31.036  1.00  0.00     0.206 HD
BRANCH  10  14
HETATM   14  N1  UNL     1      20.395  39.314  32.195  1.00  0.00    -0.331 N
ATOM     15  H12 UNL     1      19.469  39.372  32.619  1.00  0.00     0.177 HD
ATOM     16  H11 UNL     1      20.599  40.067  31.537  1.00  0.00     0.177 HD
ENDBRANCH  10  14
BRANCH  11  17
HETATM   17  N4  UNL     1      20.544  37.428  29.867  1.00  0.00    -0.236 N
HETATM   18  C2  UNL     1      21.705  37.709  29.115  1.00  0.00     0.353 C
HETATM   19  O1  UNL     1      22.842  37.297  29.451  1.00  0.00    -0.244 OA
HETATM   20  N5  UNL     1      21.629  38.479  27.931  1.00  0.00    -0.257 N
ATOM     21  H5  UNL     1      20.711  38.820  27.645  1.00  0.00     0.191 HD
ATOM     22  H4  UNL     1      19.653  37.798  29.535  1.00  0.00     0.192 HD
BRANCH  20  23
HETATM   23  N6  UNL     1      22.715  38.802  27.132  1.00  0.00    -0.341 N
ATOM     24  H62 UNL     1      22.581  39.558  26.461  1.00  0.00     0.177 HD
ATOM     25  H61 UNL     1      23.623  38.337  27.174  1.00  0.00     0.177 HD
ENDBRANCH  20  23
ENDBRANCH  11  17
BRANCH   8  26
HETATM   26  C3  UNL     1      22.398  36.325  34.311  1.00  0.00     0.175 C
BRANCH  26  27
HETATM   27  C4  UNL     1      21.279  36.157  35.289  1.00  0.00     0.185 C
BRANCH  27  28
HETATM   28  O2  UNL     1      20.500  35.044  35.199  1.00  0.00    -0.399 OA
ATOM     29  H2  UNL     1      20.492  34.562  34.381  1.00  0.00     0.209 HD
ENDBRANCH  27  28
ENDBRANCH  26  27
ENDBRANCH   8  26
ENDBRANCH   1   8
BRANCH   7  30
HETATM   30  O3  UNL     1      21.715  33.015  33.344  1.00  0.00    -0.342 OA
ATOM     31  H3  UNL     1      22.040  32.629  34.149  1.00  0.00     0.219 HD
ENDBRANCH   7  30
BRANCH   6  32
HETATM   32  C6  UNL     1      23.583  31.653  31.241  1.00  0.00     0.235 C
BRANCH  32  33
HETATM   33  S1  UNL     1      25.160  31.201  31.951  1.00  0.00    -0.070 SA
BRANCH  33  34
HETATM   34  C7  UNL     1      26.155  30.288  30.776  1.00  0.00     0.178 A
HETATM   35  N11 UNL     1      27.104  30.597  29.925  1.00  0.00    -0.265 N
HETATM   36  N12 UNL     1      27.533  29.485  29.304  1.00  0.00    -0.130 N
ATOM     37  H11 UNL     1      27.461  31.538  29.759  1.00  0.00     0.189 HD
HETATM   38  C8  UNL     1      26.846  28.432  29.766  1.00  0.00     0.697 A
ATOM     39  H12 UNL     1      28.264  29.449  28.595  1.00  0.00     0.205 HD
HETATM   40  N13 UNL     1      26.000  28.939  30.673  1.00  0.00    -0.159 N
HETATM   41  N14 UNL     1      26.820  27.030  29.521  1.00  0.00    -0.225 N
HETATM   42  C9  UNL     1      25.145  27.989  31.379  1.00  0.00     0.151 C
HETATM   43  C10 UNL     1      26.087  26.853  31.782  1.00  0.00     0.041 C
HETATM   44  C11 UNL     1      26.350  26.071  30.511  1.00  0.00     0.139 C
ATOM     45  H14 UNL     1      27.142  26.683  28.617  1.00  0.00     0.177 HD
ENDBRANCH  33  34
ENDBRANCH  32  33
ENDBRANCH   6  32
TORSDOF 11
ENDMDL