MODEL 2
REMARK VINA RESULT: -7.377258384      3.975      6.136
REMARK  14 active torsions:
REMARK  status: ('A' for Active; 'I' for Inactive)
REMARK    1  A    between atoms: N1_1  and  C1_4
REMARK    2  A    between atoms: C6_19  and  C7_20
REMARK    3  A    between atoms: C7_20  and  N7_21
REMARK    4  A    between atoms: N7_21  and  C8_22
REMARK    5  A    between atoms: C9_25  and  N9_26
REMARK    6  A    between atoms: N9_26  and  C10_28
REMARK    7  A    between atoms: C10_28  and  C11_29
REMARK    8  A    between atoms: C11_29  and  O1_30
REMARK    9  A    between atoms: C12_34  and  C13_35
REMARK   10  A    between atoms: C13_35  and  O2_36
REMARK   11  A    between atoms: C13_35  and  O3_38
REMARK   12  A    between atoms: C14_40  and  C15_41
REMARK   13  A    between atoms: C15_41  and  O4_42
REMARK   14  A    between atoms: C15_41  and  O5_44
ROOT
HETATM    1  C8  UNL     1      22.216  35.543  32.668  1.00  0.00     0.206 A
HETATM    2  N8  UNL     1      22.371  35.855  31.330  1.00  0.00    -0.164 N
ATOM      3  H8  UNL     1      23.006  35.279  30.778  1.00  0.00     0.187 HD
HETATM    4  C9  UNL     1      21.753  36.851  30.718  1.00  0.00     0.680 A
HETATM    5  N10 UNL     1      20.920  37.608  31.435  1.00  0.00    -0.190 N
ATOM      6  H10 UNL     1      20.436  38.379  30.975  1.00  0.00     0.184 HD
HETATM    7  C12 UNL     1      20.691  37.386  32.777  1.00  0.00     0.097 A
HETATM    8  C14 UNL     1      21.333  36.363  33.399  1.00  0.00     0.083 A
ENDROOT
BRANCH   1   9
HETATM    9  N7  UNL     1      22.776  34.626  33.135  1.00  0.00    -0.395 NA
BRANCH   9  10
HETATM   10  C7  UNL     1      23.418  33.587  33.659  1.00  0.00     0.235 C
BRANCH  10  11
HETATM   11  C6  UNL     1      24.202  32.737  32.665  1.00  0.00     0.165 A
HETATM   12  N6  UNL     1      24.844  33.143  31.588  1.00  0.00    -0.170 N
HETATM   13  C5  UNL     1      25.398  32.041  31.009  1.00  0.00     0.721 A
ATOM     14  H6  UNL     1      24.914  34.103  31.251  1.00  0.00     0.186 HD
HETATM   15  N5  UNL     1      26.144  31.898  29.903  1.00  0.00    -0.129 N
HETATM   16  N12 UNL     1      25.068  30.988  31.763  1.00  0.00    -0.064 N
HETATM   17  N4  UNL     1      26.563  30.693  29.552  1.00  0.00    -0.280 N
ATOM     18  H5  UNL     1      26.387  32.712  29.338  1.00  0.00     0.205 HD
HETATM   19  C4  UNL     1      26.256  29.614  30.280  1.00  0.00     0.139 A
ATOM     20  H4  UNL     1      27.130  30.584  28.711  1.00  0.00     0.188 HD
HETATM   21  C1  UNL     1      26.667  28.328  29.960  1.00  0.00     0.132 A
HETATM   22  C3  UNL     1      25.489  29.757  31.417  1.00  0.00     0.178 A
HETATM   23  N2  UNL     1      26.305  27.327  30.753  1.00  0.00    -0.337 N
HETATM   24  C2  UNL     1      25.557  27.483  31.858  1.00  0.00     0.183 A
ATOM     25  H2  UNL     1      26.612  26.385  30.510  1.00  0.00     0.168 HD
HETATM   26  N3  UNL     1      25.140  28.714  32.202  1.00  0.00    -0.335 N
ATOM     27  H3  UNL     1      24.572  28.856  33.038  1.00  0.00     0.168 HD
HETATM   28  N11 UNL     1      24.335  31.421  32.780  1.00  0.00    -0.260 N
ATOM     29  H11 UNL     1      23.941  30.843  33.522  1.00  0.00     0.190 HD
BRANCH  21  30
HETATM   30  N1  UNL     1      27.383  28.145  28.910  1.00  0.00    -0.383 N
ATOM     31  H12 UNL     1      28.332  27.784  29.014  1.00  0.00     0.157 HD
ATOM     32  H11 UNL     1      27.035  28.348  27.972  1.00  0.00     0.157 HD
ENDBRANCH  21  30
ENDBRANCH  10  11
ENDBRANCH   9  10
ENDBRANCH   1   9
BRANCH   8  33
HETATM   33  C15 UNL     1      21.211  36.097  34.827  1.00  0.00     0.295 C
BRANCH  33  34
HETATM   34  O4  UNL     1      22.507  36.057  35.447  1.00  0.00    -0.367 OA
ATOM     35  H4  UNL     1      22.425  36.041  36.394  1.00  0.00     0.213 HD
ENDBRANCH  33  34
BRANCH  33  36
HETATM   36  O5  UNL     1      20.628  34.882  35.159  1.00  0.00    -0.367 OA
ATOM     37  H5  UNL     1      20.771  34.591  36.052  1.00  0.00     0.213 HD
ENDBRANCH  33  36
ENDBRANCH   8  33
BRANCH   4  38
HETATM   38  N9  UNL     1      21.955  37.083  29.451  1.00  0.00    -0.224 N
ATOM     39  H9  UNL     1      21.663  37.994  29.098  1.00  0.00     0.177 HD
BRANCH  38  40
HETATM   40  C10 UNL     1      22.542  36.191  28.516  1.00  0.00     0.164 C
BRANCH  40  41
HETATM   41  C11 UNL     1      24.062  36.385  28.602  1.00  0.00     0.184 C
BRANCH  41  42
HETATM   42  O1  UNL     1      24.637  35.357  29.347  1.00  0.00    -0.399 OA
ATOM     43  H1  UNL     1      24.047  34.613  29.387  1.00  0.00     0.209 HD
ENDBRANCH  41  42
ENDBRANCH  40  41
ENDBRANCH  38  40
ENDBRANCH   4  38
BRANCH   7  44
HETATM   44  C13 UNL     1      19.693  38.225  33.462  1.00  0.00     0.306 C
BRANCH  44  45
HETATM   45  O2  UNL     1      19.632  39.407  32.635  1.00  0.00    -0.366 OA
ATOM     46  H2  UNL     1      18.904  39.892  33.004  1.00  0.00     0.213 HD
ENDBRANCH  44  45
BRANCH  44  47
HETATM   47  O3  UNL     1      18.372  37.768  33.343  1.00  0.00    -0.366 OA
ATOM     48  H3  UNL     1      17.928  38.053  32.553  1.00  0.00     0.213 HD
ENDBRANCH  44  47
ENDBRANCH   7  44
TORSDOF 14
ENDMDL