MODEL 2
REMARK VINA RESULT: -8.268279348      1.014      1.439
REMARK  10 active torsions:
REMARK  status: ('A' for Active; 'I' for Inactive)
REMARK       I    between atoms: C1_4  and  N3_6
REMARK    1  A    between atoms: N3_6  and  N4_8
REMARK    2  A    between atoms: N4_8  and  C2_10
REMARK    3  A    between atoms: C3_13  and  C4_14
REMARK    4  A    between atoms: C4_14  and  N6_15
REMARK    5  A    between atoms: C4_14  and  N7_19
REMARK    6  A    between atoms: N7_19  and  N8_20
REMARK       I    between atoms: N8_20  and  C5_22
REMARK    7  A    between atoms: C5_22  and  C6_24
REMARK    8  A    between atoms: N11_29  and  C7_30
REMARK    9  A    between atoms: C8_36  and  N14_37
REMARK   10  A    between atoms: C9_42  and  N16_43
ROOT
HETATM    1  C4  UNL     1      21.600  35.154  33.667  1.00  0.00     0.348 C
ENDROOT
BRANCH   1   2
HETATM    2  C3  UNL     1      21.455  36.464  32.865  1.00  0.00     0.100 A
HETATM    3  N5  UNL     1      21.092  36.410  31.592  1.00  0.00    -0.333 N
HETATM    4  C2  UNL     1      20.971  37.545  30.915  1.00  0.00     0.166 A
ATOM      5  H5  UNL     1      20.909  35.513  31.141  1.00  0.00     0.168 HD
HETATM    6  S1  UNL     1      21.364  38.727  32.053  1.00  0.00    -0.026 SA
HETATM    7  C9  UNL     1      21.685  37.680  33.418  1.00  0.00     0.173 A
BRANCH   4   8
HETATM    8  N4  UNL     1      20.630  37.624  29.651  1.00  0.00    -0.277 N
ATOM      9  H4  UNL     1      20.217  36.795  29.224  1.00  0.00     0.189 HD
BRANCH   8  10
HETATM   10  N3  UNL     1      20.783  38.720  28.864  1.00  0.00    -0.272 N
HETATM   11  C1  UNL     1      19.986  38.877  27.693  1.00  0.00     0.200 C
HETATM   12  N1  UNL     1      18.724  39.119  27.867  1.00  0.00    -0.372 N
HETATM   13  N2  UNL     1      20.531  38.781  26.389  1.00  0.00    -0.062 NA
ATOM     14  H12 UNL     1      18.154  39.232  27.030  1.00  0.00     0.158 HD
ATOM     15  H11 UNL     1      18.331  39.189  28.806  1.00  0.00     0.158 HD
ATOM     16  H3  UNL     1      21.470  39.433  29.111  1.00  0.00     0.189 HD
ENDBRANCH   8  10
ENDBRANCH   4   8
BRANCH   7  17
HETATM   17  N16 UNL     1      22.109  38.137  34.704  1.00  0.00    -0.106 N
HETATM   18  O3  UNL     1      21.242  38.117  35.638  1.00  0.00    -0.531 OA
HETATM   19  O4  UNL     1      23.314  38.602  35.084  1.00  0.00    -0.531 OA
ENDBRANCH   7  17
ENDBRANCH   1   2
BRANCH   1  20
HETATM   20  N6  UNL     1      20.768  35.151  34.828  1.00  0.00    -0.054 N
ATOM     21  H63 UNL     1      20.681  34.214  35.221  1.00  0.00     0.276 HD
ATOM     22  H62 UNL     1      21.224  35.611  35.615  1.00  0.00     0.276 HD
ATOM     23  H61 UNL     1      19.853  35.560  34.637  1.00  0.00     0.276 HD
ENDBRANCH   1  20
BRANCH   1  24
HETATM   24  N7  UNL     1      22.996  34.931  33.895  1.00  0.00    -0.098 NA
BRANCH  24  25
HETATM   25  N8  UNL     1      23.626  34.314  32.834  1.00  0.00    -0.265 N
HETATM   26  C5  UNL     1      24.007  32.969  32.979  1.00  0.00     0.303 C
HETATM   27  O1  UNL     1      23.817  32.309  34.044  1.00  0.00    -0.263 OA
ATOM     28  H8  UNL     1      23.811  34.821  31.968  1.00  0.00     0.185 HD
BRANCH  26  29
HETATM   29  C6  UNL     1      24.646  32.258  31.898  1.00  0.00     0.208 A
HETATM   30  N9  UNL     1      25.328  32.791  30.838  1.00  0.00    -0.264 N
HETATM   31  N10 UNL     1      25.761  31.759  30.148  1.00  0.00    -0.218 N
ATOM     32  H9  UNL     1      25.470  33.779  30.628  1.00  0.00     0.190 HD
HETATM   33  N11 UNL     1      25.386  30.622  30.722  1.00  0.00    -0.158 N
ATOM     34  H10 UNL     1      26.309  31.822  29.290  1.00  0.00     0.210 HD
HETATM   35  N15 UNL     1      24.700  30.905  31.798  1.00  0.00    -0.255 N
ATOM     36  H15 UNL     1      24.282  30.234  32.442  1.00  0.00     0.191 HD
BRANCH  33  37
HETATM   37  C7  UNL     1      25.696  29.307  30.251  1.00  0.00     0.214 A
HETATM   38  N12 UNL     1      24.802  28.285  30.187  1.00  0.00    -0.219 N
HETATM   39  O2  UNL     1      25.424  27.270  29.725  1.00  0.00    -0.153 OA
ATOM     40  H12 UNL     1      23.820  28.322  30.456  1.00  0.00     0.198 HD
HETATM   41  N13 UNL     1      26.680  27.540  29.474  1.00  0.00    -0.222 N
HETATM   42  C8  UNL     1      26.903  28.846  29.797  1.00  0.00     0.171 A
ATOM     43  H13 UNL     1      27.370  26.888  29.102  1.00  0.00     0.198 HD
BRANCH  42  44
HETATM   44  N14 UNL     1      28.009  29.493  29.695  1.00  0.00    -0.381 N
ATOM     45 2H14 UNL     1      28.789  29.286  29.072  1.00  0.00     0.157 HD
ATOM     46 1H14 UNL     1      28.301  30.321  30.213  1.00  0.00     0.157 HD
ENDBRANCH  42  44
ENDBRANCH  33  37
ENDBRANCH  26  29
ENDBRANCH  24  25
ENDBRANCH   1  24
TORSDOF 10
ENDMDL