MODEL 4
REMARK VINA RESULT: -7.337229134      2.349      5.027
REMARK  9 active torsions:
REMARK  status: ('A' for Active; 'I' for Inactive)
REMARK    1  A    between atoms: C2_2  and  C3_3
REMARK    2  A    between atoms: C5_5  and  O1_7
REMARK    3  A    between atoms: C7_9  and  O2_10
REMARK    4  A    between atoms: O2_10  and  C8_11
REMARK    5  A    between atoms: C8_11  and  O4_13
REMARK    6  A    between atoms: O4_13  and  C9_14
REMARK    7  A    between atoms: C14_19  and  O5_20
REMARK    8  A    between atoms: C15_22  and  C16_23
REMARK    9  A    between atoms: C18_26  and  O7_27
ROOT
HETATM    1  C3  UNL     1      23.619   4.968  21.018  1.00  0.00    -0.045 C
HETATM    2  C4  UNL     1      23.897   3.648  21.034  1.00  0.00     0.025 C
HETATM    3  C5  UNL     1      24.302   2.874  19.837  1.00  0.00     0.122 C
HETATM    4  C6  UNL     1      23.006   2.379  19.196  1.00  0.00     0.058 C
HETATM    5  C7  UNL     1      25.101   3.727  18.973  1.00  0.00     0.111 C
HETATM    6  C13 UNL     1      24.391   4.999  18.678  1.00  0.00     0.045 A
HETATM    7  C14 UNL     1      24.424   5.546  17.392  1.00  0.00     0.092 A
HETATM    8  C15 UNL     1      23.924   6.803  17.205  1.00  0.00     0.038 A
HETATM    9  C17 UNL     1      23.395   7.508  18.297  1.00  0.00     0.054 A
HETATM   10  C18 UNL     1      23.368   6.946  19.558  1.00  0.00     0.078 A
HETATM   11  C19 UNL     1      23.866   5.681  19.759  1.00  0.00     0.019 A
ENDROOT
BRANCH   5  12
HETATM   12  O2  UNL     1      25.730   3.280  17.876  1.00  0.00    -0.255 OA
BRANCH  12  13
HETATM   13  C8  UNL     1      26.694   2.319  17.829  1.00  0.00     0.412 C
HETATM   14  O3  UNL     1      27.766   2.722  17.388  1.00  0.00    -0.229 OA
BRANCH  13  15
HETATM   15  O4  UNL     1      26.577   0.999  18.217  1.00  0.00    -0.288 OA
BRANCH  15  16
HETATM   16  C9  UNL     1      26.171   0.056  17.243  1.00  0.00     0.062 C
HETATM   17  C10 UNL     1      24.732   0.257  16.814  1.00  0.00     0.046 C
HETATM   18  C11 UNL     1      27.118  -0.011  16.070  1.00  0.00     0.046 C
HETATM   19  C12 UNL     1      26.225  -1.318  17.924  1.00  0.00     0.046 C
ENDBRANCH  15  16
ENDBRANCH  13  15
ENDBRANCH  12  13
ENDBRANCH   5  12
BRANCH   3  20
HETATM   20  O1  UNL     1      25.013   1.773  20.374  1.00  0.00    -0.379 OA
ATOM     21  H1  UNL     1      25.174   2.027  21.275  1.00  0.00     0.211 HD
ENDBRANCH   3  20
BRANCH   7  22
HETATM   22  O5  UNL     1      24.946   4.785  16.420  1.00  0.00    -0.359 OA
ATOM     23  H5  UNL     1      24.895   5.122  15.534  1.00  0.00     0.217 HD
ENDBRANCH   7  22
BRANCH   1  24
HETATM   24  C2  UNL     1      23.213   5.676  22.224  1.00  0.00     0.035 C
HETATM   25  C1  UNL     1      22.282   4.909  23.144  1.00  0.00     0.010 C
ENDBRANCH   1  24
BRANCH   8  26
HETATM   26  C16 UNL     1      23.933   7.422  15.894  1.00  0.00     0.272 C
HETATM   27  O6  UNL     1      23.571   6.856  14.854  1.00  0.00    -0.301 OA
ENDBRANCH   8  26
BRANCH  10  28
HETATM   28  O7  UNL     1      22.841   7.646  20.618  1.00  0.00    -0.360 OA
ATOM     29  H7  UNL     1      22.362   7.191  21.301  1.00  0.00     0.217 HD
ENDBRANCH  10  28
TORSDOF 9
ENDMDL