MODEL 5
REMARK VINA RESULT: -9.495048925      2.363      7.881
REMARK  5 active torsions:
REMARK  status: ('A' for Active; 'I' for Inactive)
REMARK    1  A    between atoms: C4_4  and  C5_5
REMARK    2  A    between atoms: C5_5  and  C6_6
REMARK    3  A    between atoms: C16_19  and  O4_20
REMARK    4  A    between atoms: C17_22  and  O5_23
REMARK    5  A    between atoms: C18_25  and  O6_26
ROOT
HETATM    1  C6  UNL     1      23.549   6.539  19.086  1.00  0.00    -0.008 A
HETATM    2  C7  UNL     1      24.036   5.254  18.960  1.00  0.00     0.057 A
HETATM    3  C8  UNL     1      24.996   4.807  17.944  1.00  0.00     0.077 C
HETATM    4  O1  UNL     1      23.503   4.507  19.896  1.00  0.00    -0.310 OA
HETATM    5  C9  UNL     1      22.691   5.163  20.654  1.00  0.00     0.141 A
HETATM    6  C10 UNL     1      22.695   6.471  20.164  1.00  0.00     0.065 A
HETATM    7  C11 UNL     1      21.892   7.551  20.738  1.00  0.00     0.236 C
HETATM    8  O2  UNL     1      21.692   8.497  19.942  1.00  0.00    -0.283 OA
HETATM    9  C12 UNL     1      21.315   7.662  22.066  1.00  0.00     0.236 C
HETATM   10  O3  UNL     1      21.122   8.818  22.476  1.00  0.00    -0.283 OA
HETATM   11  C13 UNL     1      20.952   6.546  22.940  1.00  0.00     0.069 A
HETATM   12  C14 UNL     1      21.228   5.193  22.823  1.00  0.00     0.037 A
HETATM   13  C15 UNL     1      20.778   4.290  23.779  1.00  0.00     0.056 A
HETATM   14  C16 UNL     1      20.050   4.716  24.859  1.00  0.00     0.102 A
HETATM   15  C17 UNL     1      19.766   6.074  24.987  1.00  0.00     0.133 A
HETATM   16  C18 UNL     1      20.219   6.957  24.034  1.00  0.00     0.117 A
HETATM   17  C19 UNL     1      21.976   4.557  21.759  1.00  0.00     0.217 C
HETATM   18  O7  UNL     1      22.002   3.301  21.817  1.00  0.00    -0.284 OA
ENDROOT
BRANCH   1  19
HETATM   19  C5  UNL     1      23.793   7.759  18.310  1.00  0.00     0.069 C
BRANCH  19  20
HETATM   20  C4  UNL     1      23.748   7.559  16.830  1.00  0.00    -0.020 C
HETATM   21  C2  UNL     1      22.993   8.312  16.044  1.00  0.00    -0.091 C
HETATM   22  C1  UNL     1      22.144   9.405  16.611  1.00  0.00     0.042 C
HETATM   23  C3  UNL     1      22.961   8.092  14.575  1.00  0.00     0.042 C
ENDBRANCH  19  20
ENDBRANCH   1  19
BRANCH  16  24
HETATM   24  O6  UNL     1      19.925   8.311  24.179  1.00  0.00    -0.357 OA
ATOM     25  H6  UNL     1      19.074   8.630  23.901  1.00  0.00     0.217 HD
ENDBRANCH  16  24
BRANCH  14  26
HETATM   26  O4  UNL     1      19.587   3.847  25.829  1.00  0.00    -0.358 OA
ATOM     27  H4  UNL     1      20.172   3.316  26.357  1.00  0.00     0.217 HD
ENDBRANCH  14  26
BRANCH  15  28
HETATM   28  O5  UNL     1      19.040   6.512  26.061  1.00  0.00    -0.356 OA
ATOM     29  H5  UNL     1      19.493   6.812  26.841  1.00  0.00     0.218 HD
ENDBRANCH  15  28
TORSDOF 5
ENDMDL