MODEL 5
REMARK VINA RESULT: -8.110349084      3.138      6.089
REMARK  6 active torsions:
REMARK  status: ('A' for Active; 'I' for Inactive)
REMARK    1  A    between atoms: O1_2  and  C2_3
REMARK    2  A    between atoms: C2_3  and  C3_5
REMARK    3  A    between atoms: C9_12  and  O4_13
REMARK    4  A    between atoms: C11_15  and  O5_16
REMARK    5  A    between atoms: C16_22  and  O6_23
REMARK    6  A    between atoms: C19_27  and  O7_29
ROOT
HETATM    1  C3  UNL     1      21.569   0.957  22.356  1.00  0.00     0.082 A
HETATM    2  C4  UNL     1      21.110   2.092  22.901  1.00  0.00     0.067 A
HETATM    3  C5  UNL     1      20.186   2.024  24.094  1.00  0.00     0.078 C
HETATM    4  O3  UNL     1      21.410   3.333  22.415  1.00  0.00    -0.313 OA
HETATM    5  C6  UNL     1      22.203   3.511  21.316  1.00  0.00     0.090 A
HETATM    6  C7  UNL     1      22.446   4.782  20.861  1.00  0.00     0.053 A
HETATM    7  C8  UNL     1      23.215   4.999  19.754  1.00  0.00     0.016 A
HETATM    8  C9  UNL     1      23.460   6.291  19.297  1.00  0.00     0.113 A
HETATM    9  C11 UNL     1      24.235   6.501  18.183  1.00  0.00     0.105 A
HETATM   10  C12 UNL     1      24.786   5.444  17.491  1.00  0.00    -0.025 A
HETATM   11  C13 UNL     1      25.624   5.653  16.287  1.00  0.00     0.051 C
HETATM   12  C14 UNL     1      24.537   4.127  17.954  1.00  0.00     0.025 A
HETATM   13  C15 UNL     1      23.758   3.944  19.072  1.00  0.00     0.012 A
HETATM   14  C16 UNL     1      23.513   2.628  19.539  1.00  0.00     0.090 A
HETATM   15  C17 UNL     1      22.750   2.414  20.656  1.00  0.00     0.046 A
HETATM   16  C18 UNL     1      22.460   1.038  21.177  1.00  0.00     0.027 A
HETATM   17  C19 UNL     1      23.379   0.099  20.954  1.00  0.00     0.051 C
HETATM   18  C20 UNL     1      23.687  -1.102  21.831  1.00  0.00     0.077 C
ENDROOT
BRANCH   1  19
HETATM   19  C2  UNL     1      21.109  -0.264  22.950  1.00  0.00     0.296 C
HETATM   20  O2  UNL     1      20.229  -0.974  22.314  1.00  0.00    -0.259 OA
BRANCH  19  21
HETATM   21  O1  UNL     1      21.430  -0.921  24.113  1.00  0.00    -0.322 OA
HETATM   22  C1  UNL     1      20.923  -2.204  24.478  1.00  0.00     0.213 C
ENDBRANCH  19  21
ENDBRANCH   1  19
BRANCH  17  23
HETATM   23  O7  UNL     1      24.208   0.051  19.874  1.00  0.00    -0.364 OA
ATOM     24  H7  UNL     1      25.145  -0.106  19.908  1.00  0.00     0.217 HD
ENDBRANCH  17  23
BRANCH  14  25
HETATM   25  O6  UNL     1      24.061   1.628  18.806  1.00  0.00    -0.359 OA
ATOM     26  H6  UNL     1      24.483   0.935  19.299  1.00  0.00     0.217 HD
ENDBRANCH  14  25
BRANCH   8  27
HETATM   27  O4  UNL     1      22.919   7.365  19.974  1.00  0.00    -0.352 OA
HETATM   28  C10 UNL     1      21.745   8.023  19.552  1.00  0.00     0.210 C
ENDBRANCH   8  27
BRANCH   9  29
HETATM   29  O5  UNL     1      24.477   7.790  17.731  1.00  0.00    -0.357 OA
ATOM     30  H5  UNL     1      24.029   8.121  16.962  1.00  0.00     0.217 HD
ENDBRANCH   9  29
TORSDOF 6
ENDMDL