MODEL 2
REMARK VINA RESULT: -7.583684589      5.257      7.554
REMARK  5 active torsions:
REMARK  status: ('A' for Active; 'I' for Inactive)
REMARK    1  A    between atoms: C3_3  and  C4_4
REMARK    2  A    between atoms: C7_11  and  N2_12
REMARK    3  A    between atoms: N3_15  and  O2_17
REMARK    4  A    between atoms: C10_19  and  O3_20
REMARK    5  A    between atoms: C10_19  and  C11_22
ROOT
HETATM    1  N2  UNL     1      23.726   4.564  19.846  1.00  0.00    -0.371 N
HETATM    2  C8  UNL     1      23.150   3.714  20.877  1.00  0.00     0.181 C
HETATM    3  C9  UNL     1      23.355   2.377  20.228  1.00  0.00     0.064 C
HETATM    4  N3  UNL     1      22.491   1.443  20.231  1.00  0.00    -0.273 N
ATOM      5  H3  UNL     1      22.742   0.575  19.756  1.00  0.00     0.193 HD
HETATM    6  C10 UNL     1      24.704   2.464  19.654  1.00  0.00     0.122 C
HETATM    7  C15 UNL     1      24.795   3.867  19.170  1.00  0.00     0.168 C
ENDROOT
BRANCH   1   8
HETATM    8  C7  UNL     1      23.198   5.897  19.585  1.00  0.00     0.050 A
HETATM    9  C6  UNL     1      22.647   6.497  20.691  1.00  0.00     0.081 A
HETATM   10  S2  UNL     1      22.181   8.036  20.214  1.00  0.00    -0.091 SA
HETATM   11  C5  UNL     1      22.702   7.909  18.565  1.00  0.00     0.059 A
HETATM   12  S1  UNL     1      22.832   8.694  17.049  1.00  0.00    -0.076 SA
HETATM   13  C16 UNL     1      23.231   6.655  18.420  1.00  0.00     0.022 A
HETATM   14  C3  UNL     1      23.572   7.408  16.214  1.00  0.00     0.077 A
HETATM   15  C2  UNL     1      23.699   6.401  17.121  1.00  0.00    -0.025 A
HETATM   16  C1  UNL     1      24.273   5.087  16.600  1.00  0.00     0.050 C
BRANCH  14  17
HETATM   17  C4  UNL     1      24.010   7.459  14.806  1.00  0.00     0.272 C
HETATM   18  N1  UNL     1      23.091   7.947  13.844  1.00  0.00    -0.057 NA
HETATM   19  O1  UNL     1      25.112   7.105  14.451  1.00  0.00    -0.270 OA
ENDBRANCH  14  17
ENDBRANCH   1   8
BRANCH   6  20
HETATM   20  O3  UNL     1      25.648   2.265  20.668  1.00  0.00    -0.381 OA
ATOM     21  H3  UNL     1      26.210   3.029  20.726  1.00  0.00     0.211 HD
ENDBRANCH   6  20
BRANCH   6  22
HETATM   22  C11 UNL     1      24.979   1.432  18.600  1.00  0.00    -0.013 C
HETATM   23  C12 UNL     1      23.943   1.592  17.517  1.00  0.00     0.018 C
HETATM   24  C13 UNL     1      26.332   1.734  17.992  1.00  0.00     0.018 C
HETATM   25  C14 UNL     1      24.947   0.019  19.121  1.00  0.00     0.018 C
ENDBRANCH   6  22
BRANCH   4  26
HETATM   26  O2  UNL     1      21.268   1.498  20.807  1.00  0.00    -0.290 OA
ATOM     27  H2  UNL     1      20.756   0.751  21.097  1.00  0.00     0.244 HD
ENDBRANCH   4  26
TORSDOF 5
ENDMDL