MODEL 4
REMARK VINA RESULT: -9.479265958      2.166      5.817
REMARK  4 active torsions:
REMARK  status: ('A' for Active; 'I' for Inactive)
REMARK    1  A    between atoms: C2_2  and  C3_3
REMARK    2  A    between atoms: C3_3  and  C4_5
REMARK    3  A    between atoms: C10_11  and  O2_12
REMARK    4  A    between atoms: C15_20  and  O4_21
ROOT
HETATM    1  C4  UNL     1      25.482   3.550  18.568  1.00  0.00     0.050 A
HETATM    2  C5  UNL     1      24.970   3.611  19.826  1.00  0.00    -0.044 A
HETATM    3  C6  UNL     1      25.376   2.577  20.847  1.00  0.00     0.049 C
HETATM    4  C7  UNL     1      24.069   4.607  20.219  1.00  0.00     0.021 A
HETATM    5  C8  UNL     1      23.645   5.583  19.365  1.00  0.00    -0.007 A
HETATM    6  C9  UNL     1      24.142   5.545  18.101  1.00  0.00     0.060 A
HETATM    7  C10 UNL     1      25.054   4.552  17.674  1.00  0.00     0.095 A
HETATM    8  C11 UNL     1      23.733   6.556  17.145  1.00  0.00     0.198 A
HETATM    9  O3  UNL     1      24.233   6.464  15.983  1.00  0.00    -0.286 OA
HETATM   10  C12 UNL     1      22.783   7.637  17.497  1.00  0.00     0.042 A
HETATM   11  C13 UNL     1      22.390   8.596  16.600  1.00  0.00    -0.004 A
HETATM   12  C14 UNL     1      22.803   8.759  15.149  1.00  0.00     0.057 C
HETATM   13  S1  UNL     1      21.327   9.568  17.485  1.00  0.00    -0.069 SA
HETATM   14  C15 UNL     1      21.411   8.720  18.990  1.00  0.00     0.119 A
HETATM   15  C16 UNL     1      22.281   7.693  18.739  1.00  0.00     0.031 A
HETATM   16  C17 UNL     1      22.707   6.630  19.757  1.00  0.00    -0.000 A
HETATM   17  C18 UNL     1      22.199   6.711  20.940  1.00  0.00     0.106 C
HETATM   18  C19 UNL     1      22.300   5.986  22.124  1.00  0.00     0.088 C
HETATM   19  N1  UNL     1      22.341   5.425  23.133  1.00  0.00    -0.192 NA
ENDROOT
BRANCH  14  20
HETATM   20  O4  UNL     1      20.682   9.132  20.115  1.00  0.00    -0.353 OA
ATOM     21  H4  UNL     1      20.289   8.509  20.714  1.00  0.00     0.218 HD
ENDBRANCH  14  20
BRANCH   7  22
HETATM   22  O2  UNL     1      25.482   4.588  16.446  1.00  0.00    -0.359 OA
ATOM     23  H2  UNL     1      24.967   4.228  15.734  1.00  0.00     0.217 HD
ENDBRANCH   7  22
BRANCH   1  24
HETATM   24  C3  UNL     1      26.409   2.554  18.100  1.00  0.00     0.162 C
HETATM   25  O1  UNL     1      27.615   2.893  17.880  1.00  0.00    -0.292 OA
BRANCH  24  26
HETATM   26  C2  UNL     1      26.101   1.132  17.838  1.00  0.00     0.079 C
HETATM   27  C1  UNL     1      24.627   0.956  17.452  1.00  0.00     0.013 C
ENDBRANCH  24  26
ENDBRANCH   1  24
TORSDOF 4
ENDMDL