MODEL 4
REMARK VINA RESULT: -9.845207885      4.273      7.879
REMARK  5 active torsions:
REMARK  status: ('A' for Active; 'I' for Inactive)
REMARK    1  A    between atoms: C4_4  and  C5_5
REMARK    2  A    between atoms: C5_5  and  C6_6
REMARK    3  A    between atoms: C7_7  and  O1_8
REMARK    4  A    between atoms: C11_13  and  O2_14
REMARK    5  A    between atoms: C16_23  and  O5_24
ROOT
HETATM    1  C6  UNL     1      24.666   5.802  17.966  1.00  0.00     0.013 A
HETATM    2  C7  UNL     1      25.355   4.717  17.397  1.00  0.00     0.075 A
HETATM    3  C8  UNL     1      25.244   3.442  17.858  1.00  0.00     0.053 A
HETATM    4  C9  UNL     1      24.425   3.213  18.929  1.00  0.00     0.035 A
HETATM    5  C10 UNL     1      23.740   4.222  19.514  1.00  0.00     0.066 A
HETATM    6  C11 UNL     1      23.854   5.554  19.031  1.00  0.00     0.090 A
HETATM    7  C12 UNL     1      22.827   4.149  20.648  1.00  0.00     0.236 C
HETATM    8  O3  UNL     1      22.562   5.256  21.166  1.00  0.00    -0.283 OA
HETATM    9  C13 UNL     1      22.213   2.962  21.220  1.00  0.00     0.234 C
HETATM   10  O4  UNL     1      21.088   3.175  21.736  1.00  0.00    -0.283 OA
HETATM   11  C14 UNL     1      22.730   1.560  21.273  1.00  0.00     0.049 A
HETATM   12  C15 UNL     1      23.690   1.120  20.401  1.00  0.00     0.073 A
HETATM   13  S1  UNL     1      23.920  -0.506  20.869  1.00  0.00    -0.060 SA
HETATM   14  C16 UNL     1      22.801  -0.585  22.149  1.00  0.00     0.114 A
HETATM   15  C17 UNL     1      22.272   0.681  22.175  1.00  0.00    -0.006 A
HETATM   16  C18 UNL     1      21.208   1.015  23.212  1.00  0.00     0.052 C
HETATM   17  C19 UNL     1      24.408   1.797  19.305  1.00  0.00     0.201 C
HETATM   18  O6  UNL     1      25.094   1.002  18.620  1.00  0.00    -0.286 OA
ENDROOT
BRANCH   1  19
HETATM   19  C5  UNL     1      24.867   7.126  17.374  1.00  0.00     0.071 C
BRANCH  19  20
HETATM   20  C4  UNL     1      24.423   7.377  16.021  1.00  0.00    -0.020 C
HETATM   21  C2  UNL     1      23.302   8.047  15.794  1.00  0.00    -0.091 C
HETATM   22  C1  UNL     1      22.444   8.574  16.886  1.00  0.00     0.042 C
HETATM   23  C3  UNL     1      22.886   8.280  14.385  1.00  0.00     0.042 C
ENDBRANCH  19  20
ENDBRANCH   1  19
BRANCH   2  24
HETATM   24  O1  UNL     1      26.181   4.985  16.309  1.00  0.00    -0.360 OA
ATOM     25  H1  UNL     1      27.049   5.324  16.494  1.00  0.00     0.217 HD
ENDBRANCH   2  24
BRANCH   6  26
HETATM   26  O2  UNL     1      23.136   6.463  19.678  1.00  0.00    -0.359 OA
ATOM     27  H2  UNL     1      22.558   7.099  19.273  1.00  0.00     0.217 HD
ENDBRANCH   6  26
BRANCH  14  28
HETATM   28  O5  UNL     1      22.486  -1.679  22.986  1.00  0.00    -0.353 OA
ATOM     29  H5  UNL     1      21.633  -1.986  23.273  1.00  0.00     0.218 HD
ENDBRANCH  14  28
TORSDOF 5
ENDMDL