MODEL 1
REMARK VINA RESULT: -10.752269829      0.000      0.000
REMARK  4 active torsions:
REMARK  status: ('A' for Active; 'I' for Inactive)
REMARK    1  A    between atoms: C4_4  and  C5_5
REMARK    2  A    between atoms: C5_5  and  C6_6
REMARK    3  A    between atoms: C7_7  and  O1_8
REMARK    4  A    between atoms: C9_11  and  O2_12
ROOT
HETATM    1  C6  UNL     1      24.693   6.136  17.811  1.00  0.00     0.014 A
HETATM    2  C7  UNL     1      25.252   5.021  17.232  1.00  0.00     0.077 A
HETATM    3  C8  UNL     1      25.150   3.797  17.864  1.00  0.00     0.074 A
HETATM    4  C9  UNL     1      24.497   3.673  19.067  1.00  0.00     0.085 A
HETATM    5  C10 UNL     1      23.949   4.812  19.618  1.00  0.00     0.083 A
HETATM    6  C11 UNL     1      23.330   4.549  20.821  1.00  0.00     0.205 C
HETATM    7  O3  UNL     1      23.454   3.418  21.347  1.00  0.00    -0.286 OA
HETATM    8  C12 UNL     1      22.530   5.404  21.597  1.00  0.00     0.073 A
HETATM    9  S1  UNL     1      21.833   5.013  23.104  1.00  0.00    -0.090 SA
HETATM   10  C13 UNL     1      21.042   6.481  23.428  1.00  0.00    -0.013 A
HETATM   11  C14 UNL     1      20.198   6.867  24.619  1.00  0.00     0.057 C
HETATM   12  C15 UNL     1      21.344   7.255  22.339  1.00  0.00    -0.032 A
HETATM   13  C16 UNL     1      20.824   8.682  22.235  1.00  0.00     0.050 C
HETATM   14  C17 UNL     1      22.119   6.697  21.383  1.00  0.00     0.068 A
HETATM   15  C18 UNL     1      22.496   7.390  20.209  1.00  0.00     0.300 C
HETATM   16  O4  UNL     1      21.710   8.316  19.835  1.00  0.00    -0.259 OA
HETATM   17  O5  UNL     1      23.545   7.216  19.445  1.00  0.00    -0.273 OA
HETATM   18  C19 UNL     1      24.023   6.052  19.029  1.00  0.00     0.105 A
ENDROOT
BRANCH   1  19
HETATM   19  C5  UNL     1      24.759   7.504  17.200  1.00  0.00     0.072 C
BRANCH  19  20
HETATM   20  C4  UNL     1      24.338   7.536  15.803  1.00  0.00    -0.020 C
HETATM   21  C2  UNL     1      23.213   8.173  15.428  1.00  0.00    -0.091 C
HETATM   22  C1  UNL     1      22.378   8.857  16.421  1.00  0.00     0.042 C
HETATM   23  C3  UNL     1      22.814   8.183  13.998  1.00  0.00     0.042 C
ENDBRANCH  19  20
ENDBRANCH   1  19
BRANCH   2  24
HETATM   24  O1  UNL     1      25.910   5.163  16.014  1.00  0.00    -0.360 OA
ATOM     25  H1  UNL     1      25.976   4.407  15.442  1.00  0.00     0.217 HD
ENDBRANCH   2  24
BRANCH   4  26
HETATM   26  O2  UNL     1      24.369   2.446  19.747  1.00  0.00    -0.360 OA
ATOM     27  H2  UNL     1      24.024   2.377  20.630  1.00  0.00     0.217 HD
ENDBRANCH   4  26
TORSDOF 4
ENDMDL