MODEL 2
REMARK VINA RESULT: -10.006724809      1.821      3.047
REMARK  4 active torsions:
REMARK  status: ('A' for Active; 'I' for Inactive)
REMARK    1  A    between atoms: O1_2  and  C2_3
REMARK    2  A    between atoms: C9_11  and  C10_12
REMARK    3  A    between atoms: C18_24  and  O6_25
REMARK    4  A    between atoms: C19_27  and  O7_28
ROOT
HETATM    1  C2  UNL     1      20.960   6.485  26.531  1.00  0.00     0.105 A
HETATM    2  C3  UNL     1      21.628   6.175  25.332  1.00  0.00     0.058 A
HETATM    3  C4  UNL     1      21.339   6.861  24.177  1.00  0.00     0.054 A
HETATM    4  C5  UNL     1      22.035   6.512  23.005  1.00  0.00     0.199 A
HETATM    5  O2  UNL     1      22.826   5.631  23.144  1.00  0.00    -0.286 OA
HETATM    6  C6  UNL     1      21.730   7.206  21.878  1.00  0.00     0.062 A
HETATM    7  C7  UNL     1      20.758   8.222  21.912  1.00  0.00     0.092 A
HETATM    8  C8  UNL     1      20.456   8.919  20.762  1.00  0.00     0.057 A
HETATM    9  C9  UNL     1      21.077   8.654  19.579  1.00  0.00     0.066 A
HETATM   10  C11 UNL     1      22.034   7.659  19.531  1.00  0.00     0.103 A
HETATM   11  O4  UNL     1      22.771   7.196  18.575  1.00  0.00    -0.313 OA
HETATM   12  C12 UNL     1      23.548   6.242  18.977  1.00  0.00     0.056 A
HETATM   13  C13 UNL     1      24.534   5.472  18.152  1.00  0.00     0.077 C
HETATM   14  C14 UNL     1      23.337   6.010  20.351  1.00  0.00    -0.018 A
HETATM   15  C15 UNL     1      24.080   4.977  21.085  1.00  0.00     0.052 C
HETATM   16  C16 UNL     1      22.374   6.920  20.683  1.00  0.00     0.024 A
HETATM   17  O5  UNL     1      20.142   8.501  23.034  1.00  0.00    -0.306 OA
HETATM   18  C17 UNL     1      20.403   7.862  24.138  1.00  0.00     0.126 A
HETATM   19  C18 UNL     1      19.740   8.173  25.318  1.00  0.00     0.137 A
HETATM   20  C19 UNL     1      20.034   7.484  26.465  1.00  0.00     0.135 A
ENDROOT
BRANCH   9  21
HETATM   21  C10 UNL     1      20.746   9.398  18.384  1.00  0.00     0.267 C
HETATM   22  N1  UNL     1      21.750   9.937  17.515  1.00  0.00    -0.057 NA
HETATM   23  O3  UNL     1      19.554   9.616  18.039  1.00  0.00    -0.271 OA
ENDBRANCH   9  21
BRANCH  19  24
HETATM   24  O6  UNL     1      18.808   9.171  25.273  1.00  0.00    -0.356 OA
ATOM     25  H6  UNL     1      18.524   9.542  26.100  1.00  0.00     0.218 HD
ENDBRANCH  19  24
BRANCH  20  26
HETATM   26  O7  UNL     1      19.353   7.824  27.617  1.00  0.00    -0.356 OA
ATOM     27  H7  UNL     1      19.486   8.692  27.980  1.00  0.00     0.218 HD
ENDBRANCH  20  26
BRANCH   1  28
HETATM   28  O1  UNL     1      21.248   5.803  27.677  1.00  0.00    -0.353 OA
HETATM   29  C1  UNL     1      22.487   5.837  28.329  1.00  0.00     0.210 C
ENDBRANCH   1  28
TORSDOF 4
ENDMDL