MODEL 5
REMARK VINA RESULT: -7.904268988      4.125      7.973
REMARK  5 active torsions:
REMARK  status: ('A' for Active; 'I' for Inactive)
REMARK    1  A    between atoms: O1_2  and  C2_3
REMARK    2  A    between atoms: C7_8  and  O2_9
REMARK    3  A    between atoms: C8_11  and  O3_12
REMARK    4  A    between atoms: C10_15  and  O4_16
REMARK    5  A    between atoms: C11_18  and  O5_19
ROOT
HETATM    1  C2  UNL     1      22.783   5.100  20.002  1.00  0.00     0.105 A
HETATM    2  C3  UNL     1      22.305   3.954  20.609  1.00  0.00     0.053 A
HETATM    3  C4  UNL     1      22.998   2.780  20.410  1.00  0.00    -0.005 A
HETATM    4  C5  UNL     1      22.540   1.621  21.006  1.00  0.00     0.031 A
HETATM    5  C6  UNL     1      23.234   0.438  20.793  1.00  0.00     0.122 A
HETATM    6  C7  UNL     1      24.376   0.410  20.013  1.00  0.00     0.135 A
HETATM    7  C8  UNL     1      24.833   1.569  19.425  1.00  0.00     0.115 A
HETATM    8  C9  UNL     1      24.154   2.754  19.613  1.00  0.00     0.047 A
HETATM    9  C10 UNL     1      24.621   3.904  19.014  1.00  0.00     0.116 A
HETATM   10  C11 UNL     1      23.918   5.069  19.222  1.00  0.00     0.135 A
HETATM   11  O6  UNL     1      22.564  -0.625  21.445  1.00  0.00    -0.308 OA
HETATM   12  C13 UNL     1      21.414  -0.112  22.044  1.00  0.00     0.092 C
HETATM   13  C14 UNL     1      20.216  -0.344  22.606  1.00  0.00     0.046 C
HETATM   14  C15 UNL     1      19.636   0.969  22.965  1.00  0.00     0.076 C
HETATM   15  C16 UNL     1      19.616   1.330  24.377  1.00  0.00     0.050 C
HETATM   16  C17 UNL     1      18.184   0.956  22.459  1.00  0.00     0.050 C
HETATM   17  O7  UNL     1      20.359   1.865  22.121  1.00  0.00    -0.354 OA
HETATM   18  C18 UNL     1      21.594   1.352  22.090  1.00  0.00     0.138 C
HETATM   19  C19 UNL     1      22.334   1.636  23.443  1.00  0.00     0.059 C
ENDROOT
BRANCH   1  20
HETATM   20  O1  UNL     1      22.114   6.299  20.180  1.00  0.00    -0.353 OA
HETATM   21  C1  UNL     1      22.419   7.174  21.245  1.00  0.00     0.210 C
ENDBRANCH   1  20
BRANCH  10  22
HETATM   22  O5  UNL     1      24.414   6.226  18.600  1.00  0.00    -0.351 OA
HETATM   23  C12 UNL     1      23.933   6.546  17.310  1.00  0.00     0.210 C
ENDBRANCH  10  22
BRANCH   9  24
HETATM   24  O4  UNL     1      25.777   3.891  18.214  1.00  0.00    -0.357 OA
ATOM     25  H4  UNL     1      25.763   3.532  17.335  1.00  0.00     0.217 HD
ENDBRANCH   9  24
BRANCH   7  26
HETATM   26  O3  UNL     1      25.984   1.587  18.630  1.00  0.00    -0.357 OA
ATOM     27  H3  UNL     1      26.855   1.561  19.009  1.00  0.00     0.217 HD
ENDBRANCH   7  26
BRANCH   6  28
HETATM   28  O2  UNL     1      25.100  -0.750  19.788  1.00  0.00    -0.356 OA
ATOM     29  H2  UNL     1      25.939  -0.754  19.344  1.00  0.00     0.218 HD
ENDBRANCH   6  28
TORSDOF 5
ENDMDL