MODEL 1
REMARK VINA RESULT: -10.086139124      0.000      0.000
REMARK  6 active torsions:
REMARK  status: ('A' for Active; 'I' for Inactive)
REMARK    1  A    between atoms: C4_4  and  C5_5
REMARK    2  A    between atoms: C5_5  and  C6_6
REMARK    3  A    between atoms: C8_9  and  O2_10
REMARK    4  A    between atoms: C11_14  and  O3_15
REMARK    5  A    between atoms: C16_23  and  C17_24
REMARK    6  A    between atoms: C17_24  and  O6_26
ROOT
HETATM    1  C6  UNL     1      22.091   8.497  17.844  1.00  0.00     0.064 A
HETATM    2  O1  UNL     1      22.691   7.553  18.559  1.00  0.00    -0.310 OA
HETATM    3  C7  UNL     1      22.207   7.486  19.769  1.00  0.00     0.123 A
HETATM    4  C8  UNL     1      22.527   6.665  20.838  1.00  0.00     0.117 A
HETATM    5  C9  UNL     1      21.827   6.832  22.017  1.00  0.00     0.084 A
HETATM    6  C10 UNL     1      20.830   7.799  22.129  1.00  0.00     0.130 A
HETATM    7  C11 UNL     1      20.528   8.609  21.045  1.00  0.00     0.114 A
HETATM    8  C12 UNL     1      21.223   8.445  19.866  1.00  0.00     0.045 A
HETATM    9  C13 UNL     1      21.134   9.098  18.658  1.00  0.00    -0.016 A
HETATM   10  C14 UNL     1      20.214  10.220  18.316  1.00  0.00     0.052 C
HETATM   11  O4  UNL     1      20.121   7.972  23.315  1.00  0.00    -0.274 OA
HETATM   12  C15 UNL     1      20.383   7.182  24.443  1.00  0.00     0.278 C
HETATM   13  O5  UNL     1      19.547   7.182  25.382  1.00  0.00    -0.264 OA
HETATM   14  C16 UNL     1      21.610   6.358  24.545  1.00  0.00     0.189 C
HETATM   15  C19 UNL     1      22.094   6.017  23.185  1.00  0.00     0.181 C
HETATM   16  O7  UNL     1      22.771   4.969  23.037  1.00  0.00    -0.291 OA
ENDROOT
BRANCH   1  17
HETATM   17  C5  UNL     1      22.359   8.867  16.461  1.00  0.00     0.093 C
BRANCH  17  18
HETATM   18  C4  UNL     1      23.179   8.014  15.615  1.00  0.00    -0.018 C
HETATM   19  C2  UNL     1      24.389   7.582  15.699  1.00  0.00    -0.091 C
HETATM   20  C1  UNL     1      25.373   7.852  16.765  1.00  0.00     0.042 C
HETATM   21  C3  UNL     1      24.913   6.672  14.579  1.00  0.00     0.042 C
ENDBRANCH  17  18
ENDBRANCH   1  17
BRANCH   4  22
HETATM   22  O2  UNL     1      23.512   5.689  20.772  1.00  0.00    -0.357 OA
ATOM     23  H2  UNL     1      24.386   5.813  21.121  1.00  0.00     0.217 HD
ENDBRANCH   4  22
BRANCH   7  24
HETATM   24  O3  UNL     1      19.539   9.587  21.117  1.00  0.00    -0.357 OA
ATOM     25  H3  UNL     1      19.144   9.835  21.945  1.00  0.00     0.217 HD
ENDBRANCH   7  24
BRANCH  14  26
HETATM   26  C17 UNL     1      21.383   5.083  25.335  1.00  0.00     0.135 C
HETATM   27  C18 UNL     1      21.464   5.300  26.811  1.00  0.00     0.040 C
BRANCH  26  28
HETATM   28  O6  UNL     1      20.136   4.571  25.004  1.00  0.00    -0.395 OA
ATOM     29  H6  UNL     1      20.081   4.489  24.059  1.00  0.00     0.210 HD
ENDBRANCH  26  28
ENDBRANCH  14  26
TORSDOF 6
ENDMDL