MODEL 5
REMARK VINA RESULT: -6.186653970      2.692      3.795
REMARK  8 active torsions:
REMARK  status: ('A' for Active; 'I' for Inactive)
REMARK    1  A    between atoms: C2_2  and  C3_3
REMARK    2  A    between atoms: C5_5  and  N1_6
REMARK    3  A    between atoms: N1_6  and  C6_8
REMARK    4  A    between atoms: C6_8  and  C7_9
REMARK    5  A    between atoms: C7_9  and  C8_10
REMARK    6  A    between atoms: C8_10  and  C9_11
REMARK    7  A    between atoms: C9_11  and  N2_12
REMARK    8  A    between atoms: N5_20  and  N6_21
ROOT
HETATM    1  C3  UNL     1       3.915  15.694  20.600  1.00  0.00     0.040 A
HETATM    2  C4  UNL     1       4.589  14.517  20.264  1.00  0.00     0.075 A
HETATM    3  C5  UNL     1       5.140  14.317  19.011  1.00  0.00     0.105 A
HETATM    4  N3  UNL     1       5.025  15.280  18.083  1.00  0.00    -0.315 N
ATOM      5  H3  UNL     1       5.424  15.153  17.153  1.00  0.00     0.170 HD
HETATM    6  C10 UNL     1       4.369  16.429  18.404  1.00  0.00     0.215 A
HETATM    7  N4  UNL     1       4.259  17.434  17.414  1.00  0.00    -0.061 NA
HETATM    8  N5  UNL     1       3.833  16.613  19.638  1.00  0.00    -0.238 N
ENDROOT
BRANCH   3   9
HETATM    9  N1  UNL     1       5.755  13.231  18.721  1.00  0.00    -0.376 N
ATOM     10  H1  UNL     1       6.680  13.113  19.132  1.00  0.00     0.161 HD
BRANCH   9  11
HETATM   11  C6  UNL     1       5.296  12.175  17.894  1.00  0.00     0.121 C
BRANCH  11  12
HETATM   12  C7  UNL     1       5.945  12.122  16.536  1.00  0.00     0.021 C
BRANCH  12  13
HETATM   13  C8  UNL     1       4.917  12.076  15.437  1.00  0.00     0.029 C
BRANCH  13  14
HETATM   14  C9  UNL     1       3.552  12.364  15.973  1.00  0.00     0.229 C
BRANCH  14  15
HETATM   15  N2  UNL     1       3.104  13.707  15.629  1.00  0.00    -0.079 N
ATOM     16  H23 UNL     1       2.337  14.008  16.232  1.00  0.00     0.274 HD
ATOM     17  H22 UNL     1       3.798  14.407  15.891  1.00  0.00     0.274 HD
ATOM     18  H21 UNL     1       2.853  13.785  14.644  1.00  0.00     0.274 HD
ENDBRANCH  14  15
ENDBRANCH  13  14
ENDBRANCH  12  13
ENDBRANCH  11  12
ENDBRANCH   9  11
ENDBRANCH   3   9
BRANCH   1  19
HETATM   19  C2  UNL     1       3.390  15.770  21.946  1.00  0.00     0.055 C
HETATM   20  C1  UNL     1       4.246  16.312  23.019  1.00  0.00     0.011 C
ENDBRANCH   1  19
BRANCH   8  21
HETATM   21  N6  UNL     1       3.194  17.798  19.868  1.00  0.00    -0.336 N
ATOM     22  H62 UNL     1       2.288  17.932  19.419  1.00  0.00     0.177 HD
ATOM     23  H61 UNL     1       3.620  18.506  20.466  1.00  0.00     0.177 HD
ENDBRANCH   8  21
TORSDOF 8
ENDMDL