MODEL 2
REMARK VINA RESULT: -6.741299787      1.211      4.710
REMARK  8 active torsions:
REMARK  status: ('A' for Active; 'I' for Inactive)
REMARK    1  A    between atoms: C2_2  and  C3_3
REMARK    2  A    between atoms: C3_3  and  N1_4
REMARK    3  A    between atoms: N1_4  and  C4_6
REMARK    4  A    between atoms: C6_13  and  N4_14
REMARK    5  A    between atoms: N4_14  and  C7_16
REMARK    6  A    between atoms: C7_16  and  C8_17
REMARK    7  A    between atoms: C8_17  and  C9_18
REMARK    8  A    between atoms: C9_18  and  N5_19
ROOT
HETATM    1  C4  UNL     1       3.119  15.646  21.756  1.00  0.00     0.697 A
HETATM    2  N2  UNL     1       3.881  15.025  22.681  1.00  0.00    -0.140 N
ATOM      3  H2  UNL     1       4.597  14.360  22.391  1.00  0.00     0.189 HD
HETATM    4  C5  UNL     1       3.693  15.288  23.985  1.00  0.00     0.352 A
HETATM    5  O1  UNL     1       4.426  14.685  24.809  1.00  0.00    -0.246 OA
HETATM    6  N3  UNL     1       2.757  16.160  24.408  1.00  0.00    -0.140 N
ATOM      7  H3  UNL     1       2.617  16.356  25.399  1.00  0.00     0.189 HD
HETATM    8  C6  UNL     1       2.013  16.763  23.451  1.00  0.00     0.696 A
HETATM    9  N6  UNL     1       2.178  16.521  22.141  1.00  0.00    -0.022 N
ATOM     10  H6  UNL     1       1.598  16.995  21.449  1.00  0.00     0.203 HD
ENDROOT
BRANCH   8  11
HETATM   11  N4  UNL     1       1.105  17.607  23.805  1.00  0.00    -0.225 N
ATOM     12  H4  UNL     1       0.122  17.346  23.718  1.00  0.00     0.177 HD
BRANCH  11  13
HETATM   13  C7  UNL     1       1.445  18.923  24.325  1.00  0.00     0.139 C
BRANCH  13  14
HETATM   14  C8  UNL     1       1.805  19.817  23.143  1.00  0.00     0.047 C
BRANCH  14  15
HETATM   15  C9  UNL     1       0.546  20.230  22.393  1.00  0.00     0.231 C
BRANCH  15  16
HETATM   16  N5  UNL     1       0.724  19.815  21.015  1.00  0.00    -0.079 N
ATOM     17  H53 UNL     1       1.645  19.416  20.832  1.00  0.00     0.274 HD
ATOM     18  H52 UNL     1       0.176  18.991  20.770  1.00  0.00     0.274 HD
ATOM     19  H51 UNL     1       0.514  20.626  20.434  1.00  0.00     0.274 HD
ENDBRANCH  15  16
ENDBRANCH  14  15
ENDBRANCH  13  14
ENDBRANCH  11  13
ENDBRANCH   8  11
BRANCH   1  20
HETATM   20  N1  UNL     1       3.274  15.417  20.492  1.00  0.00    -0.222 N
ATOM     21  H1  UNL     1       2.572  14.863  20.002  1.00  0.00     0.178 HD
BRANCH  20  22
HETATM   22  C3  UNL     1       4.407  15.920  19.752  1.00  0.00     0.164 C
BRANCH  22  23
HETATM   23  C2  UNL     1       4.033  17.123  18.990  1.00  0.00    -0.017 C
HETATM   24  C1  UNL     1       4.031  17.095  17.671  1.00  0.00     0.008 C
ENDBRANCH  22  23
ENDBRANCH  20  22
ENDBRANCH   1  20
TORSDOF 8
ENDMDL