MODEL 4
REMARK VINA RESULT: -5.981542258      1.581      1.853
REMARK  7 active torsions:
REMARK  status: ('A' for Active; 'I' for Inactive)
REMARK    1  A    between atoms: N1_1  and  C1_5
REMARK    2  A    between atoms: C1_5  and  C2_6
REMARK    3  A    between atoms: C2_6  and  C3_7
REMARK    4  A    between atoms: C3_7  and  C4_8
REMARK    5  A    between atoms: C4_8  and  C5_9
REMARK    6  A    between atoms: C5_9  and  C6_10
REMARK    7  A    between atoms: C6_10  and  C7_11
ROOT
HETATM    1  C6  UNL     1       5.734  12.541  17.678  1.00  0.00     0.032 C
ENDROOT
BRANCH   1   2
HETATM    2  C5  UNL     1       4.938  11.710  16.711  1.00  0.00     0.002 C
BRANCH   2   3
HETATM    3  C4  UNL     1       5.070  10.265  17.072  1.00  0.00     0.000 C
BRANCH   3   4
HETATM    4  C3  UNL     1       3.856   9.451  16.775  1.00  0.00     0.002 C
BRANCH   4   5
HETATM    5  C2  UNL     1       2.924  10.137  15.793  1.00  0.00     0.027 C
BRANCH   5   6
HETATM    6  C1  UNL     1       3.026   9.529  14.427  1.00  0.00     0.229 C
BRANCH   6   7
HETATM    7  N1  UNL     1       3.393  10.587  13.500  1.00  0.00    -0.079 N
ATOM      8  H13 UNL     1       2.595  11.147  13.201  1.00  0.00     0.274 HD
ATOM      9  H12 UNL     1       3.923  11.337  13.944  1.00  0.00     0.274 HD
ATOM     10  H11 UNL     1       3.891  10.157  12.721  1.00  0.00     0.274 HD
ENDBRANCH   6   7
ENDBRANCH   5   6
ENDBRANCH   4   5
ENDBRANCH   3   4
ENDBRANCH   2   3
ENDBRANCH   1   2
BRANCH   1  11
HETATM   11  C7  UNL     1       4.856  13.263  18.673  1.00  0.00     0.186 C
HETATM   12  N2  UNL     1       5.261  13.033  20.033  1.00  0.00    -0.134 NA
HETATM   13  N3  UNL     1       4.092  13.215  20.813  1.00  0.00    -0.146 NA
HETATM   14  C8  UNL     1       4.106  14.455  21.514  1.00  0.00     0.150 C
HETATM   15  C9  UNL     1       3.877  15.666  20.716  1.00  0.00     0.140 C
HETATM   16  N4  UNL     1       4.373  15.684  19.389  1.00  0.00    -0.358 N
HETATM   17  C10 UNL     1       4.781  14.708  18.439  1.00  0.00     0.238 C
ATOM     18  H4  UNL     1       4.458  16.634  19.024  1.00  0.00     0.162 HD
HETATM   19  O1  UNL     1       5.111  15.128  17.283  1.00  0.00    -0.272 OA
ENDBRANCH   1  11
TORSDOF 7
ENDMDL