MODEL 5
REMARK VINA RESULT: -6.305706761      6.775     10.074
REMARK  9 active torsions:
REMARK  status: ('A' for Active; 'I' for Inactive)
REMARK    1  A    between atoms: N1_2  and  C2_3
REMARK    2  A    between atoms: N1_2  and  C4_9
REMARK    3  A    between atoms: C2_3  and  C3_4
REMARK    4  A    between atoms: C3_4  and  N2_5
REMARK    5  A    between atoms: C4_9  and  C5_10
REMARK    6  A    between atoms: C5_10  and  C6_11
REMARK    7  A    between atoms: C6_11  and  N3_12
REMARK    8  A    between atoms: N3_12  and  C7_14
REMARK    9  A    between atoms: C10_19  and  N5_20
ROOT
HETATM    1  N3  UNL     1       3.922  13.405  19.229  1.00  0.00    -0.376 N
ATOM      2  H3  UNL     1       2.995  13.190  19.597  1.00  0.00     0.161 HD
ENDROOT
BRANCH   1   3
HETATM    3  C6  UNL     1       4.782  14.274  19.981  1.00  0.00     0.123 C
BRANCH   3   4
HETATM    4  C5  UNL     1       4.099  14.456  21.350  1.00  0.00     0.050 C
BRANCH   4   5
HETATM    5  C4  UNL     1       3.123  15.602  21.116  1.00  0.00     0.273 C
BRANCH   5   6
HETATM    6  N1  UNL     1       3.606  16.877  21.524  1.00  0.00     0.085 N
HETATM    7  C1  UNL     1       3.897  16.958  22.937  1.00  0.00     0.309 C
BRANCH   6   8
HETATM    8  C2  UNL     1       2.636  17.876  21.112  1.00  0.00     0.299 C
BRANCH   8   9
HETATM    9  C3  UNL     1       1.334  17.242  20.671  1.00  0.00     0.259 C
BRANCH   9  10
HETATM   10  N2  UNL     1       0.370  18.287  20.414  1.00  0.00    -0.078 N
ATOM     11  H23 UNL     1      -0.482  17.933  19.979  1.00  0.00     0.274 HD
ATOM     12  H22 UNL     1      -0.048  18.651  21.270  1.00  0.00     0.274 HD
ATOM     13  H21 UNL     1       0.817  19.017  19.857  1.00  0.00     0.274 HD
ENDBRANCH   9  10
ENDBRANCH   8   9
ENDBRANCH   6   8
ENDBRANCH   5   6
ENDBRANCH   4   5
ENDBRANCH   3   4
ENDBRANCH   1   3
BRANCH   1  14
HETATM   14  C7  UNL     1       4.274  12.892  18.119  1.00  0.00     0.118 A
HETATM   15  C8  UNL     1       5.511  12.384  17.829  1.00  0.00     0.066 A
HETATM   16  C9  UNL     1       5.760  11.844  16.569  1.00  0.00     0.110 A
HETATM   17  N4  UNL     1       4.765  11.846  15.692  1.00  0.00    -0.202 N
HETATM   18  C10 UNL     1       3.538  12.337  15.942  1.00  0.00     0.677 A
ATOM     19  H4  UNL     1       4.942  11.451  14.768  1.00  0.00     0.183 HD
HETATM   20  N6  UNL     1       3.319  12.852  17.159  1.00  0.00    -0.177 N
ATOM     21  H6  UNL     1       2.395  13.229  17.371  1.00  0.00     0.185 HD
BRANCH  18  22
HETATM   22  N5  UNL     1       2.594  12.318  15.054  1.00  0.00    -0.234 N
ATOM     23  H52 UNL     1       2.056  11.469  14.886  1.00  0.00     0.174 HD
ATOM     24  H51 UNL     1       2.359  13.139  14.495  1.00  0.00     0.174 HD
ENDBRANCH  18  22
ENDBRANCH   1  14
TORSDOF 9
ENDMDL