MODEL 1
REMARK VINA RESULT: -6.281358794      0.000      0.000
REMARK  9 active torsions:
REMARK  status: ('A' for Active; 'I' for Inactive)
REMARK    1  A    between atoms: N1_2  and  C2_3
REMARK    2  A    between atoms: N1_2  and  C5_10
REMARK    3  A    between atoms: C2_3  and  C3_4
REMARK    4  A    between atoms: C3_4  and  C4_5
REMARK    5  A    between atoms: C4_5  and  N2_6
REMARK    6  A    between atoms: C5_10  and  C6_11
REMARK    7  A    between atoms: C6_11  and  N3_12
REMARK    8  A    between atoms: N3_12  and  C7_14
REMARK    9  A    between atoms: C8_19  and  N6_20
ROOT
HETATM    1  N3  UNL     1       2.316  15.957  22.191  1.00  0.00    -0.223 N
ATOM      2  H3  UNL     1       1.845  15.435  22.930  1.00  0.00     0.177 HD
ENDROOT
BRANCH   1   3
HETATM    3  C6  UNL     1       3.677  15.599  21.890  1.00  0.00     0.168 C
BRANCH   3   4
HETATM    4  C5  UNL     1       3.668  14.369  21.052  1.00  0.00     0.291 C
BRANCH   4   5
HETATM    5  N1  UNL     1       4.755  14.331  20.065  1.00  0.00     0.085 N
HETATM    6  C1  UNL     1       4.472  13.356  19.028  1.00  0.00     0.309 C
BRANCH   5   7
HETATM    7  C2  UNL     1       4.817  15.659  19.535  1.00  0.00     0.273 C
BRANCH   7   8
HETATM    8  C3  UNL     1       4.564  15.763  18.071  1.00  0.00     0.057 C
BRANCH   8   9
HETATM    9  C4  UNL     1       4.056  17.134  17.665  1.00  0.00     0.231 C
BRANCH   9  10
HETATM   10  N2  UNL     1       2.933  17.078  16.786  1.00  0.00    -0.079 N
ATOM     11  H23 UNL     1       2.449  17.975  16.757  1.00  0.00     0.274 HD
ATOM     12  H22 UNL     1       3.236  17.019  15.814  1.00  0.00     0.274 HD
ATOM     13  H21 UNL     1       2.286  16.323  17.011  1.00  0.00     0.274 HD
ENDBRANCH   9  10
ENDBRANCH   8   9
ENDBRANCH   7   8
ENDBRANCH   5   7
ENDBRANCH   4   5
ENDBRANCH   3   4
ENDBRANCH   1   3
BRANCH   1  14
HETATM   14  C7  UNL     1       1.650  16.877  21.605  1.00  0.00     0.707 A
HETATM   15  N4  UNL     1       0.748  16.695  20.631  1.00  0.00    -0.117 N
HETATM   16  N5  UNL     1       0.307  17.897  20.319  1.00  0.00    -0.118 N
ATOM     17  H4  UNL     1       0.462  15.808  20.216  1.00  0.00     0.206 HD
HETATM   18  C8  UNL     1       0.923  18.831  21.087  1.00  0.00     0.705 A
ATOM     19  H5  UNL     1      -0.394  18.096  19.605  1.00  0.00     0.206 HD
HETATM   20  N7  UNL     1       1.764  18.184  21.891  1.00  0.00    -0.020 N
ATOM     21  H7  UNL     1       2.378  18.601  22.591  1.00  0.00     0.203 HD
BRANCH  18  22
HETATM   22  N6  UNL     1       0.722  20.102  21.039  1.00  0.00    -0.233 N
ATOM     23  H62 UNL     1       0.815  20.706  20.223  1.00  0.00     0.174 HD
ATOM     24  H61 UNL     1       0.440  20.694  21.820  1.00  0.00     0.174 HD
ENDBRANCH  18  22
ENDBRANCH   1  14
TORSDOF 9
ENDMDL