MODEL 2
REMARK VINA RESULT: -6.488127692      1.838      2.507
REMARK  6 active torsions:
REMARK  status: ('A' for Active; 'I' for Inactive)
REMARK    1  A    between atoms: C2_5  and  C3_6
REMARK    2  A    between atoms: C3_6  and  C4_7
REMARK    3  A    between atoms: C4_7  and  C5_8
REMARK    4  A    between atoms: C5_8  and  O1_9
REMARK    5  A    between atoms: O1_9  and  C6_10
REMARK    6  A    between atoms: C6_10  and  C7_11
ROOT
HETATM    1  C4  UNL     1       3.613   9.669  16.378  1.00  0.00     0.032 C
ENDROOT
BRANCH   1   2
HETATM    2  C3  UNL     1       2.900  10.617  15.404  1.00  0.00     0.061 C
BRANCH   2   3
HETATM    3  C2  UNL     1       3.077  10.199  14.005  1.00  0.00     0.027 A
HETATM    4  N2  UNL     1       3.352  10.934  12.911  1.00  0.00    -0.333 N
HETATM    5  C1  UNL     1       3.428  10.142  11.827  1.00  0.00     0.192 A
ATOM      6  H2  UNL     1       3.484  11.946  12.904  1.00  0.00     0.168 HD
HETATM    7  N1  UNL     1       3.701  10.560  10.496  1.00  0.00    -0.063 NA
HETATM    8  N4  UNL     1       3.194   8.895  12.263  1.00  0.00    -0.339 N
HETATM    9  C10 UNL     1       2.974   8.879  13.586  1.00  0.00     0.115 A
ATOM     10  H4  UNL     1       3.185   8.068  11.667  1.00  0.00     0.168 HD
ENDBRANCH   2   3
ENDBRANCH   1   2
BRANCH   1  11
HETATM   11  C5  UNL     1       4.979  10.220  16.606  1.00  0.00     0.168 C
BRANCH  11  12
HETATM   12  O1  UNL     1       5.107  10.981  17.740  1.00  0.00    -0.389 OA
BRANCH  12  13
HETATM   13  C6  UNL     1       5.561  12.253  17.332  1.00  0.00     0.193 C
BRANCH  13  14
HETATM   14  C7  UNL     1       4.596  13.342  17.681  1.00  0.00     0.116 A
HETATM   15  C8  UNL     1       4.392  13.399  19.181  1.00  0.00     0.130 A
HETATM   16  C9  UNL     1       4.994  14.754  19.180  1.00  0.00     0.220 A
HETATM   17  O2  UNL     1       5.279  15.655  20.013  1.00  0.00    -0.274 OA
HETATM   18  N3  UNL     1       5.151  14.669  17.774  1.00  0.00    -0.354 N
ATOM     19  H3  UNL     1       5.522  15.315  17.077  1.00  0.00     0.162 HD
ENDBRANCH  13  14
ENDBRANCH  12  13
ENDBRANCH  11  12
ENDBRANCH   1  11
TORSDOF 6
ENDMDL