MODEL 4
REMARK VINA RESULT: -7.114520174      1.733      1.955
REMARK  8 active torsions:
REMARK  status: ('A' for Active; 'I' for Inactive)
REMARK    1  A    between atoms: N1_1  and  C1_4
REMARK    2  A    between atoms: C3_8  and  C4_9
REMARK    3  A    between atoms: N3_10  and  C5_12
REMARK    4  A    between atoms: C5_12  and  C6_13
REMARK    5  A    between atoms: C6_13  and  C7_14
REMARK    6  A    between atoms: C7_14  and  C8_15
REMARK    7  A    between atoms: C8_15  and  N4_16
REMARK    8  A    between atoms: N4_16  and  O1_17
ROOT
HETATM    1  C1  UNL     1       2.921  17.850  21.657  1.00  0.00     0.678 A
HETATM    2  N2  UNL     1       3.100  18.027  20.326  1.00  0.00    -0.201 N
ATOM      3  H2  UNL     1       2.775  18.890  19.891  1.00  0.00     0.183 HD
HETATM    4  C2  UNL     1       3.688  17.107  19.574  1.00  0.00     0.124 A
HETATM    5  C3  UNL     1       4.145  15.924  20.119  1.00  0.00     0.063 A
HETATM    6  C9  UNL     1       3.957  15.752  21.481  1.00  0.00     0.272 A
HETATM    7  O2  UNL     1       4.347  14.701  22.049  1.00  0.00    -0.267 OA
HETATM    8  N5  UNL     1       3.356  16.706  22.214  1.00  0.00    -0.156 N
ATOM      9  H5  UNL     1       3.228  16.559  23.215  1.00  0.00     0.187 HD
ENDROOT
BRANCH   5  10
HETATM   10  C4  UNL     1       4.792  14.901  19.314  1.00  0.00     0.101 C
HETATM   11  N3  UNL     1       4.214  13.816  18.955  1.00  0.00    -0.398 N
ATOM     12  H3  UNL     1       3.250  13.634  19.235  1.00  0.00     0.158 HD
BRANCH  11  13
HETATM   13  C5  UNL     1       4.953  12.819  18.128  1.00  0.00     0.119 C
BRANCH  13  14
HETATM   14  C6  UNL     1       3.992  11.949  17.407  1.00  0.00     0.021 C
BRANCH  14  15
HETATM   15  C7  UNL     1       4.459  10.802  16.634  1.00  0.00     0.020 C
BRANCH  15  16
HETATM   16  C8  UNL     1       4.085   9.437  17.053  1.00  0.00     0.142 C
BRANCH  16  17
HETATM   17  N4  UNL     1       4.959   8.693  17.867  1.00  0.00    -0.104 NA
BRANCH  17  18
HETATM   18  O1  UNL     1       4.285   8.112  18.887  1.00  0.00    -0.296 OA
ATOM     19  H1  UNL     1       3.769   7.379  18.574  1.00  0.00     0.238 HD
ENDBRANCH  17  18
ENDBRANCH  16  17
ENDBRANCH  15  16
ENDBRANCH  14  15
ENDBRANCH  13  14
ENDBRANCH  11  13
ENDBRANCH   5  10
BRANCH   1  20
HETATM   20  N1  UNL     1       2.343  18.760  22.389  1.00  0.00    -0.234 N
ATOM     21  H12 UNL     1       2.498  18.784  23.397  1.00  0.00     0.174 HD
ATOM     22  H11 UNL     1       1.728  19.461  21.975  1.00  0.00     0.174 HD
ENDBRANCH   1  20
TORSDOF 8
ENDMDL