MODEL 5
REMARK VINA RESULT: -6.514353927      1.471      2.204
REMARK  6 active torsions:
REMARK  status: ('A' for Active; 'I' for Inactive)
REMARK    1  A    between atoms: C2_2  and  C3_3
REMARK    2  A    between atoms: C3_3  and  N1_4
REMARK    3  A    between atoms: N1_4  and  C4_7
REMARK    4  A    between atoms: C4_7  and  C5_8
REMARK    5  A    between atoms: N2_10  and  C7_11
REMARK    6  A    between atoms: C10_17  and  N4_18
ROOT
HETATM    1  C7  UNL     1       4.796  14.038  18.023  1.00  0.00     0.124 A
HETATM    2  C8  UNL     1       4.848  14.054  19.378  1.00  0.00     0.123 A
HETATM    3  C9  UNL     1       4.750  15.260  20.038  1.00  0.00     0.263 A
HETATM    4  O1  UNL     1       4.799  15.277  21.295  1.00  0.00    -0.268 OA
HETATM    5  N3  UNL     1       4.607  16.395  19.356  1.00  0.00    -0.156 N
ATOM      6  H3  UNL     1       4.536  17.277  19.863  1.00  0.00     0.187 HD
HETATM    7  C10 UNL     1       4.553  16.403  18.020  1.00  0.00     0.680 A
HETATM    8  N5  UNL     1       4.648  15.226  17.380  1.00  0.00    -0.177 N
ATOM      9  H5  UNL     1       4.607  15.224  16.360  1.00  0.00     0.185 HD
ENDROOT
BRANCH   1  10
HETATM   10  N2  UNL     1       4.885  12.805  17.329  1.00  0.00    -0.357 N
HETATM   11  C5  UNL     1       5.404  11.818  16.421  1.00  0.00     0.129 A
HETATM   12  C6  UNL     1       4.200  11.464  17.183  1.00  0.00     0.152 A
BRANCH  11  13
HETATM   13  C4  UNL     1       5.230  11.922  14.941  1.00  0.00     0.259 C
BRANCH  13  14
HETATM   14  N1  UNL     1       3.913  11.463  14.613  1.00  0.00    -0.070 N
ATOM     15  H12 UNL     1       3.210  12.004  15.116  1.00  0.00     0.277 HD
ATOM     16  H11 UNL     1       3.744  10.542  15.017  1.00  0.00     0.277 HD
BRANCH  14  17
HETATM   17  C3  UNL     1       3.626  11.455  13.189  1.00  0.00     0.259 C
BRANCH  17  18
HETATM   18  C2  UNL     1       3.239  10.061  12.847  1.00  0.00    -0.010 C
HETATM   19  C1  UNL     1       2.900   9.233  13.795  1.00  0.00     0.008 C
ENDBRANCH  17  18
ENDBRANCH  14  17
ENDBRANCH  13  14
ENDBRANCH  11  13
ENDBRANCH   1  10
BRANCH   7  20
HETATM   20  N4  UNL     1       4.411  17.496  17.326  1.00  0.00    -0.234 N
ATOM     21  H42 UNL     1       5.074  18.259  17.457  1.00  0.00     0.174 HD
ATOM     22  H41 UNL     1       3.660  17.627  16.649  1.00  0.00     0.174 HD
ENDBRANCH   7  20
TORSDOF 6
ENDMDL