MODEL 2
REMARK VINA RESULT: -6.476926107      1.512      2.471
REMARK  9 active torsions:
REMARK  status: ('A' for Active; 'I' for Inactive)
REMARK    1  A    between atoms: N1_2  and  C2_3
REMARK    2  A    between atoms: N1_2  and  C5_10
REMARK    3  A    between atoms: C2_3  and  C3_4
REMARK    4  A    between atoms: C3_4  and  C4_5
REMARK    5  A    between atoms: C4_5  and  N2_6
REMARK    6  A    between atoms: C5_10  and  C6_11
REMARK    7  A    between atoms: C6_11  and  N3_12
REMARK    8  A    between atoms: N3_12  and  C7_14
REMARK    9  A    between atoms: C10_19  and  N5_20
ROOT
HETATM    1  N3  UNL     1       2.474   9.989   9.398  1.00  0.00    -0.374 N
ATOM      2  H3  UNL     1       2.386   8.981   9.523  1.00  0.00     0.161 HD
ENDROOT
BRANCH   1   3
HETATM    3  C6  UNL     1       2.862  10.775  10.534  1.00  0.00     0.151 C
BRANCH   3   4
HETATM    4  C5  UNL     1       3.422   9.987  11.675  1.00  0.00     0.291 C
BRANCH   4   5
HETATM    5  N1  UNL     1       2.999  10.508  12.963  1.00  0.00     0.085 N
HETATM    6  C1  UNL     1       3.810  11.651  13.352  1.00  0.00     0.309 C
BRANCH   5   7
HETATM    7  C2  UNL     1       3.091   9.516  14.012  1.00  0.00     0.273 C
BRANCH   7   8
HETATM    8  C3  UNL     1       2.889  10.051  15.381  1.00  0.00     0.057 C
BRANCH   8   9
HETATM    9  C4  UNL     1       3.886   9.546  16.391  1.00  0.00     0.231 C
BRANCH   9  10
HETATM   10  N2  UNL     1       4.954  10.478  16.641  1.00  0.00    -0.079 N
ATOM     11  H23 UNL     1       5.791  10.222  16.118  1.00  0.00     0.274 HD
ATOM     12  H22 UNL     1       4.758  11.381  16.210  1.00  0.00     0.274 HD
ATOM     13  H21 UNL     1       5.165  10.587  17.634  1.00  0.00     0.274 HD
ENDBRANCH   9  10
ENDBRANCH   8   9
ENDBRANCH   7   8
ENDBRANCH   5   7
ENDBRANCH   4   5
ENDBRANCH   3   4
ENDBRANCH   1   3
BRANCH   1  14
HETATM   14  C7  UNL     1       2.229  10.478   8.223  1.00  0.00     0.118 A
HETATM   15  C8  UNL     1       1.686   9.665   7.262  1.00  0.00     0.066 A
HETATM   16  C9  UNL     1       1.401  10.215   6.022  1.00  0.00     0.110 A
HETATM   17  N4  UNL     1       1.645  11.492   5.766  1.00  0.00    -0.202 N
HETATM   18  C10 UNL     1       2.177  12.267   6.721  1.00  0.00     0.677 A
ATOM     19  H4  UNL     1       1.429  11.882   4.848  1.00  0.00     0.183 HD
HETATM   20  N6  UNL     1       2.460  11.760   7.919  1.00  0.00    -0.177 N
ATOM     21  H6  UNL     1       2.866  12.369   8.628  1.00  0.00     0.185 HD
BRANCH  18  22
HETATM   22  N5  UNL     1       2.416  13.529   6.486  1.00  0.00    -0.234 N
ATOM     23  H52 UNL     1       1.849  14.241   6.947  1.00  0.00     0.174 HD
ATOM     24  H51 UNL     1       3.160  13.799   5.842  1.00  0.00     0.174 HD
ENDBRANCH  18  22
ENDBRANCH   1  14
TORSDOF 9
ENDMDL