MODEL 1
REMARK VINA RESULT: -9.642320431      0.000      0.000
REMARK  9 active torsions:
REMARK  status: ('A' for Active; 'I' for Inactive)
REMARK    1  A    between atoms: N1_1  and  C1_4
REMARK    2  A    between atoms: C4_12  and  N4_13
REMARK    3  A    between atoms: N4_13  and  O2_15
REMARK    4  A    between atoms: N5_17  and  C5_18
REMARK    5  A    between atoms: C5_18  and  C6_19
REMARK       I    between atoms: C6_19  and  N6_21
REMARK    6  A    between atoms: N6_21  and  N7_23
REMARK    7  A    between atoms: C7_25  and  C8_26
REMARK    8  A    between atoms: C12_30  and  N8_31
REMARK    9  A    between atoms: C13_34  and  N9_35
ROOT
HETATM    1  C1  UNL     1       1.168  20.483  24.605  1.00  0.00     0.680 A
HETATM    2  N2  UNL     1       0.701  21.137  23.529  1.00  0.00    -0.154 N
ATOM      3  H2  UNL     1       0.371  22.098  23.611  1.00  0.00     0.187 HD
HETATM    4  C2  UNL     1       0.675  20.506  22.344  1.00  0.00     0.290 A
HETATM    5  O1  UNL     1       0.247  21.071  21.298  1.00  0.00    -0.265 OA
HETATM    6  C3  UNL     1       1.114  19.198  22.179  1.00  0.00     0.163 A
HETATM    7  N3  UNL     1       1.203  18.340  21.147  1.00  0.00    -0.180 N
ATOM      8  H3  UNL     1       0.927  18.531  20.184  1.00  0.00     0.184 HD
HETATM    9  C4  UNL     1       1.715  17.195  21.606  1.00  0.00     0.707 A
HETATM   10  N5  UNL     1       1.950  17.321  22.921  1.00  0.00    -0.155 N
HETATM   11  C14 UNL     1       1.587  18.565  23.321  1.00  0.00     0.172 A
HETATM   12  N10 UNL     1       1.603  19.215  24.497  1.00  0.00    -0.174 N
ATOM     13  H10 UNL     1       1.953  18.736  25.327  1.00  0.00     0.186 HD
ENDROOT
BRANCH  10  14
HETATM   14  C5  UNL     1       2.498  16.290  23.746  1.00  0.00     0.254 C
BRANCH  14  15
HETATM   15  C6  UNL     1       3.948  16.329  23.890  1.00  0.00     0.255 C
HETATM   16  O3  UNL     1       4.714  16.069  22.923  1.00  0.00    -0.270 OA
HETATM   17  N6  UNL     1       4.537  16.661  25.138  1.00  0.00    -0.269 N
ATOM     18  H6  UNL     1       3.908  16.870  25.913  1.00  0.00     0.190 HD
BRANCH  17  19
HETATM   19  N7  UNL     1       5.887  16.724  25.385  1.00  0.00    -0.308 N
HETATM   20  C7  UNL     1       6.524  17.694  25.952  1.00  0.00     0.121 C
ATOM     21  H7  UNL     1       6.444  15.922  25.090  1.00  0.00     0.186 HD
BRANCH  20  22
HETATM   22  C8  UNL     1       7.961  17.570  26.124  1.00  0.00     0.016 A
HETATM   23  C9  UNL     1       8.661  16.626  25.372  1.00  0.00     0.015 A
HETATM   24  C10 UNL     1      10.017  16.511  25.538  1.00  0.00     0.003 A
HETATM   25  C11 UNL     1      10.662  17.321  26.434  1.00  0.00     0.039 A
HETATM   26  C12 UNL     1       9.958  18.270  27.190  1.00  0.00     0.136 A
HETATM   27  C13 UNL     1       8.599  18.401  27.040  1.00  0.00     0.147 A
BRANCH  26  28
HETATM   28  N8  UNL     1      10.668  19.105  28.091  1.00  0.00    -0.113 N
HETATM   29  O4  UNL     1      10.949  20.257  27.803  1.00  0.00    -0.532 OA
HETATM   30  O5  UNL     1      11.012  18.533  29.312  1.00  0.00    -0.532 OA
ENDBRANCH  26  28
BRANCH  27  31
HETATM   31  N9  UNL     1       7.798  19.318  27.770  1.00  0.00    -0.112 N
HETATM   32  O6  UNL     1       7.597  19.185  28.996  1.00  0.00    -0.532 OA
HETATM   33  O7  UNL     1       7.206  20.394  27.168  1.00  0.00    -0.532 OA
ENDBRANCH  27  31
ENDBRANCH  20  22
ENDBRANCH  17  19
ENDBRANCH  14  15
ENDBRANCH  10  14
BRANCH   9  34
HETATM   34  N4  UNL     1       1.935  16.149  20.864  1.00  0.00    -0.098 N
ATOM     35  H4  UNL     1       1.155  15.520  20.675  1.00  0.00     0.213 HD
BRANCH  34  36
HETATM   36  O2  UNL     1       3.140  15.852  20.330  1.00  0.00    -0.276 OA
ATOM     37  H2  UNL     1       3.854  15.467  20.826  1.00  0.00     0.245 HD
ENDBRANCH  34  36
ENDBRANCH   9  34
BRANCH   1  38
HETATM   38  N1  UNL     1       1.199  21.081  25.769  1.00  0.00    -0.234 N
ATOM     39  H12 UNL     1       1.443  22.070  25.821  1.00  0.00     0.174 HD
ATOM     40  H11 UNL     1       0.982  20.556  26.617  1.00  0.00     0.174 HD
ENDBRANCH   1  38
TORSDOF 9
ENDMDL