MODEL 4
REMARK VINA RESULT: -8.511047029      4.422      8.237
REMARK  10 active torsions:
REMARK  status: ('A' for Active; 'I' for Inactive)
REMARK    1  A    between atoms: O1_2  and  C2_3
REMARK    2  A    between atoms: C2_3  and  C3_5
REMARK    3  A    between atoms: C6_17  and  C7_18
REMARK    4  A    between atoms: C7_18  and  O3_19
REMARK    5  A    between atoms: O3_19  and  C8_20
REMARK    6  A    between atoms: C8_20  and  C9_22
REMARK    7  A    between atoms: C9_22  and  N5_23
REMARK    8  A    between atoms: C9_22  and  C12_38
REMARK       I    between atoms: N5_23  and  C10_25
REMARK       I    between atoms: C10_25  and  N6_27
REMARK       I    between atoms: N6_27  and  C11_29
REMARK    9  A    between atoms: N8_31  and  N9_33
REMARK   10  A    between atoms: N9_33  and  N10_35
ROOT
HETATM    1  C8  UNL     1       5.612  17.191  25.415  1.00  0.00     0.282 C
HETATM    2  O4  UNL     1       6.515  16.402  25.081  1.00  0.00    -0.263 OA
ENDROOT
BRANCH   1   3
HETATM    3  O3  UNL     1       5.866  18.275  26.204  1.00  0.00    -0.314 OA
BRANCH   3   4
HETATM    4  C7  UNL     1       7.041  19.050  26.214  1.00  0.00     0.238 C
BRANCH   4   5
HETATM    5  C6  UNL     1       8.041  18.483  27.150  1.00  0.00     0.068 A
HETATM    6  C3  UNL     1       8.580  19.318  28.123  1.00  0.00     0.135 A
HETATM    7  N1  UNL     1       9.460  18.755  28.952  1.00  0.00    -0.332 N
HETATM    8  C4  UNL     1       9.849  17.438  28.897  1.00  0.00     0.159 A
ATOM      9  H1  UNL     1       9.873  19.343  29.676  1.00  0.00     0.168 HD
HETATM   10  N2  UNL     1      10.738  16.857  29.729  1.00  0.00    -0.295 N
HETATM   11  C5  UNL     1       9.314  16.645  27.945  1.00  0.00     0.158 A
HETATM   12  S1  UNL     1      10.814  15.278  29.197  1.00  0.00     0.070 SA
ATOM     13  H2  UNL     1      11.246  17.284  30.503  1.00  0.00     0.177 HD
HETATM   14  N3  UNL     1       9.728  15.363  27.934  1.00  0.00    -0.295 N
ATOM     15  H3  UNL     1       9.444  14.617  27.301  1.00  0.00     0.177 HD
HETATM   16  N4  UNL     1       8.402  17.200  27.076  1.00  0.00    -0.338 N
ATOM     17  H4  UNL     1       7.990  16.613  26.352  1.00  0.00     0.167 HD
BRANCH   6  18
HETATM   18  C2  UNL     1       8.211  20.726  28.241  1.00  0.00     0.311 C
HETATM   19  O2  UNL     1       8.816  21.683  27.727  1.00  0.00    -0.258 OA
BRANCH  18  20
HETATM   20  O1  UNL     1       7.083  21.041  28.996  1.00  0.00    -0.321 OA
HETATM   21  C1  UNL     1       6.417  22.283  28.908  1.00  0.00     0.213 C
ENDBRANCH  18  20
ENDBRANCH   6  18
ENDBRANCH   4   5
ENDBRANCH   3   4
ENDBRANCH   1   3
BRANCH   1  22
HETATM   22  C9  UNL     1       4.203  16.960  24.949  1.00  0.00     0.189 C
BRANCH  22  23
HETATM   23  N5  UNL     1       4.180  16.935  23.506  1.00  0.00    -0.329 N
HETATM   24  C10 UNL     1       4.141  15.706  22.815  1.00  0.00     0.323 C
HETATM   25  O5  UNL     1       4.125  14.619  23.443  1.00  0.00    -0.247 OA
HETATM   26  N6  UNL     1       4.117  15.657  21.396  1.00  0.00    -0.282 N
HETATM   27  C11 UNL     1       4.077  14.440  20.670  1.00  0.00     0.212 C
ATOM     28  H6  UNL     1       4.128  16.535  20.878  1.00  0.00     0.173 HD
HETATM   29  N7  UNL     1       4.059  13.186  21.348  1.00  0.00    -0.062 NA
HETATM   30  N8  UNL     1       4.056  14.424  19.391  1.00  0.00    -0.259 N
ATOM     31  H8  UNL     1       4.027  13.532  18.897  1.00  0.00     0.191 HD
ATOM     32  H5  UNL     1       4.192  17.810  22.983  1.00  0.00     0.165 HD
BRANCH  30  33
HETATM   33  N9  UNL     1       4.073  15.626  18.657  1.00  0.00    -0.247 N
ATOM     34  H9  UNL     1       3.437  16.380  18.919  1.00  0.00     0.207 HD
BRANCH  33  35
HETATM   35  N10 UNL     1       4.946  15.810  17.573  1.00  0.00    -0.331 N
ATOM     36 2H10 UNL     1       5.700  15.135  17.440  1.00  0.00     0.178 HD
ATOM     37 1H10 UNL     1       4.838  16.594  16.930  1.00  0.00     0.178 HD
ENDBRANCH  33  35
ENDBRANCH  30  33
ENDBRANCH  22  23
BRANCH  22  38
HETATM   38  C12 UNL     1       3.289  18.030  25.495  1.00  0.00     0.010 C
HETATM   39  C13 UNL     1       2.009  17.477  26.063  1.00  0.00     0.012 C
HETATM   40  C14 UNL     1       2.947  19.018  24.419  1.00  0.00     0.012 C
ENDBRANCH  22  38
ENDBRANCH   1  22
TORSDOF 10
ENDMDL