MODEL 4
REMARK VINA RESULT: -10.162441650      1.455      1.511
REMARK  7 active torsions:
REMARK  status: ('A' for Active; 'I' for Inactive)
REMARK    1  A    between atoms: C3_3  and  S1_4
REMARK    2  A    between atoms: S1_4  and  C4_5
REMARK    3  A    between atoms: C4_5  and  C5_6
REMARK    4  A    between atoms: C5_6  and  N1_7
REMARK       I    between atoms: N1_7  and  C6_9
REMARK       I    between atoms: C6_9  and  N4_14
REMARK       I    between atoms: N4_14  and  C8_16
REMARK    5  A    between atoms: C8_16  and  C9_18
REMARK    6  A    between atoms: C12_29  and  C13_30
REMARK    7  A    between atoms: C14_36  and  N10_37
ROOT
HETATM    1  N1  UNL     1       8.385  17.861  27.064  1.00  0.00    -0.225 N
ATOM      2  H1  UNL     1       7.878  18.535  27.637  1.00  0.00     0.177 HD
HETATM    3  C6  UNL     1       9.419  17.099  27.668  1.00  0.00     0.690 C
HETATM    4  N2  UNL     1       9.309  15.814  27.767  1.00  0.00    -0.126 N
ATOM      5  H2  UNL     1       8.476  15.344  27.412  1.00  0.00     0.197 HD
HETATM    6  C7  UNL     1      10.329  15.072  28.359  1.00  0.00     0.196 C
HETATM    7  N3  UNL     1      11.164  14.452  28.864  1.00  0.00    -0.171 NA
HETATM    8  N4  UNL     1      10.586  17.715  28.176  1.00  0.00    -0.153 N
ATOM      9  H4  UNL     1      11.303  17.129  28.602  1.00  0.00     0.187 HD
HETATM   10  C8  UNL     1      10.797  19.103  28.117  1.00  0.00     0.297 C
HETATM   11  O1  UNL     1       9.926  19.848  27.593  1.00  0.00    -0.264 OA
ENDROOT
BRANCH   1  12
HETATM   12  C5  UNL     1       8.017  17.723  25.675  1.00  0.00     0.148 C
BRANCH  12  13
HETATM   13  C4  UNL     1       6.669  18.285  25.344  1.00  0.00     0.101 C
BRANCH  13  14
HETATM   14  S1  UNL     1       5.359  17.042  25.296  1.00  0.00    -0.109 SA
BRANCH  14  15
HETATM   15  C3  UNL     1       3.984  17.528  24.276  1.00  0.00     0.096 A
HETATM   16  C2  UNL     1       3.262  18.670  24.579  1.00  0.00     0.066 A
HETATM   17  C1  UNL     1       3.627  19.498  25.760  1.00  0.00     0.073 C
HETATM   18  N12 UNL     1       2.231  19.001  23.774  1.00  0.00    -0.237 N
HETATM   19  C11 UNL     1       1.913  18.234  22.703  1.00  0.00     0.173 A
HETATM   20  N11 UNL     1       1.381  20.008  23.807  1.00  0.00    -0.275 N
HETATM   21  C10 UNL     1       2.628  17.100  22.402  1.00  0.00     0.146 A
HETATM   22  N7  UNL     1       0.840  18.840  22.114  1.00  0.00    -0.321 N
HETATM   23  N5  UNL     1       3.665  16.766  23.209  1.00  0.00    -0.333 N
HETATM   24  N6  UNL     1       2.298  16.402  21.384  1.00  0.00    -0.382 N
ATOM     25  H5  UNL     1       4.211  15.929  23.008  1.00  0.00     0.168 HD
ATOM     26  H62 UNL     1       2.829  15.560  21.160  1.00  0.00     0.157 HD
ATOM     27  H61 UNL     1       1.518  16.654  20.777  1.00  0.00     0.157 HD
HETATM   28  C12 UNL     1       0.509  19.946  22.805  1.00  0.00     0.155 A
ATOM     29  H7  UNL     1       0.362  18.505  21.278  1.00  0.00     0.169 HD
ATOM     30  H11 UNL     1       1.391  20.743  24.513  1.00  0.00     0.189 HD
BRANCH  28  31
HETATM   31  C13 UNL     1      -0.601  20.863  22.474  1.00  0.00     0.147 A
HETATM   32  N8  UNL     1      -0.592  21.800  21.499  1.00  0.00    -0.234 N
HETATM   33  O3  UNL     1      -1.736  22.406  21.513  1.00  0.00    -0.155 OA
ATOM     34  H8  UNL     1       0.182  21.995  20.863  1.00  0.00     0.197 HD
HETATM   35  N9  UNL     1      -2.510  21.936  22.433  1.00  0.00    -0.224 N
HETATM   36  C14 UNL     1      -1.830  20.953  23.069  1.00  0.00     0.154 A
ATOM     37  H9  UNL     1      -3.458  22.247  22.642  1.00  0.00     0.198 HD
BRANCH  36  38
HETATM   38  N10 UNL     1      -2.287  20.268  24.036  1.00  0.00    -0.382 N
ATOM     39 2H10 UNL     1      -3.264  19.995  24.143  1.00  0.00     0.157 HD
ATOM     40 1H10 UNL     1      -1.780  19.891  24.837  1.00  0.00     0.157 HD
ENDBRANCH  36  38
ENDBRANCH  28  31
ENDBRANCH  14  15
ENDBRANCH  13  14
ENDBRANCH  12  13
ENDBRANCH   1  12
BRANCH  10  41
HETATM   41  C9  UNL     1      12.026  19.660  28.668  1.00  0.00     0.333 C
HETATM   42  O2  UNL     1      12.758  20.355  27.937  1.00  0.00    -0.296 OA
ENDBRANCH  10  41
TORSDOF 7
ENDMDL