MODEL 5
REMARK VINA RESULT: -9.767653363      2.872      8.244
REMARK  9 active torsions:
REMARK  status: ('A' for Active; 'I' for Inactive)
REMARK    1  A    between atoms: C2_2  and  C3_3
REMARK    2  A    between atoms: C3_3  and  S1_4
REMARK    3  A    between atoms: S1_4  and  C4_5
REMARK    4  A    between atoms: C5_8  and  N2_9
REMARK    5  A    between atoms: N2_9  and  N3_11
REMARK       I    between atoms: N3_11  and  C6_13
REMARK    6  A    between atoms: C6_13  and  C7_15
REMARK    7  A    between atoms: C8_18  and  N5_19
REMARK    8  A    between atoms: C9_24  and  N7_25
REMARK    9  A    between atoms: C10_32  and  N10_33
ROOT
HETATM    1  N10 UNL     1       3.828  16.552  20.498  1.00  0.00    -0.071 N
HETATM    2  N11 UNL     1       4.213  16.988  19.288  1.00  0.00     0.001 NA
HETATM    3  N12 UNL     1       4.689  15.961  18.591  1.00  0.00    -0.272 N
ATOM      4  H12 UNL     1       5.053  15.995  17.639  1.00  0.00     0.185 HD
HETATM    5  C11 UNL     1       4.601  14.853  19.384  1.00  0.00     0.151 A
HETATM    6  C12 UNL     1       5.014  13.527  19.002  1.00  0.00     0.120 C
HETATM    7  N13 UNL     1       5.351  12.452  18.679  1.00  0.00    -0.190 NA
HETATM    8  C13 UNL     1       4.058  15.232  20.582  1.00  0.00     0.085 A
HETATM    9  C14 UNL     1       3.779  14.368  21.741  1.00  0.00     0.074 C
ENDROOT
BRANCH   1  10
HETATM   10  C10 UNL     1       3.266  17.341  21.538  1.00  0.00     0.719 A
HETATM   11  N9  UNL     1       3.682  17.256  22.818  1.00  0.00    -0.019 N
HETATM   12  C5  UNL     1       3.134  18.016  23.797  1.00  0.00     0.713 A
ATOM     13  H9  UNL     1       4.430  16.603  23.055  1.00  0.00     0.203 HD
HETATM   14  N1  UNL     1       2.151  18.887  23.519  1.00  0.00    -0.168 N
HETATM   15  C4  UNL     1       1.727  18.981  22.242  1.00  0.00     0.174 A
ATOM     16  H1  UNL     1       1.736  19.462  24.252  1.00  0.00     0.186 HD
HETATM   17  N14 UNL     1       2.276  18.223  21.281  1.00  0.00    -0.168 N
ATOM     18  H14 UNL     1       1.935  18.316  20.324  1.00  0.00     0.186 HD
BRANCH  12  19
HETATM   19  N2  UNL     1       3.598  17.864  24.988  1.00  0.00    -0.128 N
ATOM     20  H2  UNL     1       2.989  17.586  25.758  1.00  0.00     0.205 HD
BRANCH  19  21
HETATM   21  N3  UNL     1       4.960  18.092  25.193  1.00  0.00    -0.249 N
HETATM   22  C6  UNL     1       5.722  17.105  25.853  1.00  0.00     0.305 C
HETATM   23  O1  UNL     1       5.210  16.041  26.255  1.00  0.00    -0.263 OA
ATOM     24  H3  UNL     1       5.396  18.956  24.871  1.00  0.00     0.191 HD
BRANCH  22  25
HETATM   25  C7  UNL     1       7.154  17.369  26.056  1.00  0.00     0.205 A
HETATM   26  N4  UNL     1       7.578  18.412  26.781  1.00  0.00    -0.170 N
HETATM   27  C8  UNL     1       8.911  18.625  26.946  1.00  0.00     0.692 A
ATOM     28  H4  UNL     1       6.902  19.046  27.208  1.00  0.00     0.186 HD
HETATM   29  N6  UNL     1       9.822  17.807  26.397  1.00  0.00    -0.023 N
HETATM   30  C9  UNL     1       9.406  16.759  25.670  1.00  0.00     0.692 A
ATOM     31  H6  UNL     1      10.818  17.980  26.530  1.00  0.00     0.203 HD
HETATM   32  N8  UNL     1       8.091  16.556  25.510  1.00  0.00    -0.170 N
ATOM     33  H8  UNL     1       7.782  15.757  24.956  1.00  0.00     0.186 HD
BRANCH  27  34
HETATM   34  N5  UNL     1       9.298  19.635  27.647  1.00  0.00    -0.234 N
ATOM     35  H52 UNL     1       9.366  19.551  28.661  1.00  0.00     0.174 HD
ATOM     36  H51 UNL     1       9.531  20.506  27.170  1.00  0.00     0.174 HD
ENDBRANCH  27  34
BRANCH  30  37
HETATM   37  N7  UNL     1      10.290  15.963  25.134  1.00  0.00    -0.234 N
ATOM     38  H72 UNL     1      10.682  16.145  24.210  1.00  0.00     0.174 HD
ATOM     39  H71 UNL     1      10.599  15.141  25.652  1.00  0.00     0.174 HD
ENDBRANCH  30  37
ENDBRANCH  22  25
ENDBRANCH  19  21
ENDBRANCH  12  19
BRANCH  15  40
HETATM   40  S1  UNL     1       0.432  20.125  21.869  1.00  0.00    -0.093 SA
BRANCH  40  41
HETATM   41  C3  UNL     1      -0.245  20.875  23.359  1.00  0.00     0.082 C
BRANCH  41  42
HETATM   42  C2  UNL     1      -1.704  21.208  23.195  1.00  0.00     0.006 C
HETATM   43  C1  UNL     1      -2.490  20.159  23.969  1.00  0.00     0.006 C
ENDBRANCH  41  42
ENDBRANCH  40  41
ENDBRANCH  15  40
ENDBRANCH   1  10
TORSDOF 9
ENDMDL