MODEL 3
REMARK VINA RESULT: -8.966877634      8.382     11.415
REMARK  9 active torsions:
REMARK  status: ('A' for Active; 'I' for Inactive)
REMARK    1  A    between atoms: N1_1  and  C1_4
REMARK    2  A    between atoms: C2_9  and  S1_10
REMARK    3  A    between atoms: S1_10  and  S2_11
REMARK    4  A    between atoms: S2_11  and  N4_12
REMARK    5  A    between atoms: N5_15  and  S3_16
REMARK    6  A    between atoms: S3_16  and  O3_19
REMARK    7  A    between atoms: O3_19  and  N6_20
REMARK       I    between atoms: N6_20  and  C5_22
REMARK    8  A    between atoms: N8_24  and  O4_26
REMARK    9  A    between atoms: C8_31  and  N9_32
ROOT
HETATM    1  N4  UNL     1      10.527  18.840  28.593  1.00  0.00    -0.247 NA
HETATM    2  C3  UNL     1       9.659  19.726  27.890  1.00  0.00     0.119 C
HETATM    3  C4  UNL     1       8.265  19.168  27.696  1.00  0.00     0.125 C
HETATM    4  N5  UNL     1       8.360  17.805  27.277  1.00  0.00    -0.184 NA
HETATM    5  C6  UNL     1       9.693  17.447  26.832  1.00  0.00     0.125 C
HETATM    6  C7  UNL     1      10.637  17.548  28.007  1.00  0.00     0.119 C
ENDROOT
BRANCH   1   7
HETATM    7  S2  UNL     1      12.081  19.637  28.810  1.00  0.00    -0.001 SA
BRANCH   7   8
HETATM    8  S1  UNL     1      12.418  20.161  30.840  1.00  0.00    -0.014 SA
BRANCH   8   9
HETATM    9  C2  UNL     1      11.620  19.014  31.951  1.00  0.00     0.140 A
HETATM   10  N3  UNL     1      12.260  18.267  32.860  1.00  0.00    -0.286 N
HETATM   11  N2  UNL     1      11.741  17.417  33.695  1.00  0.00    -0.282 N
ATOM     12  H3  UNL     1      13.273  18.378  32.903  1.00  0.00     0.188 HD
HETATM   13  C1  UNL     1      10.452  17.089  33.841  1.00  0.00     0.147 A
ATOM     14  H2  UNL     1      12.397  16.941  34.314  1.00  0.00     0.188 HD
HETATM   15  C8  UNL     1       9.415  17.633  33.087  1.00  0.00     0.115 A
HETATM   16  S4  UNL     1       9.935  18.777  31.934  1.00  0.00    -0.042 SA
BRANCH  13  17
HETATM   17  N1  UNL     1      10.068  16.205  34.733  1.00  0.00    -0.382 N
ATOM     18  H12 UNL     1      10.243  16.479  35.699  1.00  0.00     0.157 HD
ATOM     19  H11 UNL     1       9.631  15.326  34.456  1.00  0.00     0.157 HD
ENDBRANCH  13  17
BRANCH  15  20
HETATM   20  N9  UNL     1       8.174  17.282  33.264  1.00  0.00    -0.390 N
ATOM     21  H92 UNL     1       7.725  17.200  34.177  1.00  0.00     0.157 HD
ATOM     22  H91 UNL     1       7.557  17.062  32.483  1.00  0.00     0.157 HD
ENDBRANCH  15  20
ENDBRANCH   8   9
ENDBRANCH   7   8
ENDBRANCH   1   7
BRANCH   4  23
HETATM   23  S3  UNL     1       7.299  17.475  25.931  1.00  0.00     0.360 S
HETATM   24  O1  UNL     1       7.924  16.402  25.078  1.00  0.00    -0.179 OA
HETATM   25  O2  UNL     1       7.114  18.719  25.126  1.00  0.00    -0.179 OA
BRANCH  23  26
HETATM   26  O3  UNL     1       5.843  16.945  26.610  1.00  0.00    -0.136 OA
BRANCH  26  27
HETATM   27  N6  UNL     1       4.799  17.231  25.788  1.00  0.00    -0.218 N
HETATM   28  C5  UNL     1       3.950  16.172  25.409  1.00  0.00     0.233 C
HETATM   29  N7  UNL     1       4.445  14.857  25.343  1.00  0.00    -0.060 NA
HETATM   30  N8  UNL     1       2.727  16.412  25.126  1.00  0.00    -0.239 N
ATOM     31  H8  UNL     1       2.408  17.379  25.187  1.00  0.00     0.197 HD
ATOM     32  H6  UNL     1       4.635  18.182  25.456  1.00  0.00     0.198 HD
BRANCH  30  33
HETATM   33  O4  UNL     1       1.823  15.473  24.750  1.00  0.00    -0.287 OA
ATOM     34  H4  UNL     1       1.227  15.560  24.016  1.00  0.00     0.244 HD
ENDBRANCH  30  33
ENDBRANCH  26  27
ENDBRANCH  23  26
ENDBRANCH   4  23
TORSDOF 9
ENDMDL