MODEL 5
REMARK VINA RESULT: -9.373589336      2.805      9.265
REMARK  8 active torsions:
REMARK  status: ('A' for Active; 'I' for Inactive)
REMARK       I    between atoms: C2_2  and  N1_4
REMARK    1  A    between atoms: N1_4  and  N2_6
REMARK    2  A    between atoms: C3_7  and  O2_8
REMARK    3  A    between atoms: C4_10  and  C5_11
REMARK       I    between atoms: C5_11  and  N3_13
REMARK    4  A    between atoms: N3_13  and  N4_15
REMARK    5  A    between atoms: N4_15  and  S1_17
REMARK    6  A    between atoms: S1_17  and  C6_20
REMARK    7  A    between atoms: C9_23  and  O6_24
REMARK    8  A    between atoms: N5_30  and  N6_31
ROOT
HETATM    1  N2  UNL     1       9.023  18.910  27.925  1.00  0.00    -0.202 N
HETATM    2  C3  UNL     1       7.960  19.229  27.126  1.00  0.00     0.186 A
HETATM    3  C4  UNL     1       7.414  18.367  26.161  1.00  0.00     0.155 A
HETATM    4  C12 UNL     1       8.011  17.156  26.053  1.00  0.00     0.288 A
HETATM    5  O7  UNL     1       7.609  16.300  25.224  1.00  0.00    -0.265 OA
HETATM    6  N5  UNL     1       9.053  16.807  26.817  1.00  0.00    -0.197 N
HETATM    7  C13 UNL     1       9.545  17.697  27.747  1.00  0.00     0.224 A
HETATM    8  S2  UNL     1      10.808  17.147  28.608  1.00  0.00    -0.037 SA
ENDROOT
BRANCH   3   9
HETATM    9  C5  UNL     1       6.266  18.828  25.392  1.00  0.00     0.280 C
HETATM   10  O3  UNL     1       6.387  19.972  24.825  1.00  0.00    -0.266 OA
HETATM   11  N3  UNL     1       5.075  18.164  25.213  1.00  0.00    -0.256 N
ATOM     12  H3  UNL     1       4.965  17.253  25.657  1.00  0.00     0.191 HD
BRANCH  11  13
HETATM   13  N4  UNL     1       4.027  18.648  24.477  1.00  0.00    -0.220 N
ATOM     14  H4  UNL     1       4.042  18.588  23.459  1.00  0.00     0.200 HD
BRANCH  13  15
HETATM   15  S1  UNL     1       2.717  19.339  25.262  1.00  0.00     0.276 S
HETATM   16  O4  UNL     1       3.152  20.341  26.285  1.00  0.00    -0.199 OA
HETATM   17  O5  UNL     1       1.945  18.282  26.065  1.00  0.00    -0.199 OA
BRANCH  15  18
HETATM   18  C6  UNL     1       1.571  20.155  24.200  1.00  0.00     0.081 A
HETATM   19  C7  UNL     1       0.881  21.279  24.561  1.00  0.00     0.028 A
HETATM   20  C8  UNL     1       0.021  21.919  23.665  1.00  0.00     0.038 A
HETATM   21  C9  UNL     1      -0.170  21.445  22.380  1.00  0.00     0.065 A
HETATM   22  C10 UNL     1       0.518  20.310  22.004  1.00  0.00     0.038 A
HETATM   23  C11 UNL     1       1.379  19.672  22.907  1.00  0.00     0.028 A
BRANCH  21  24
HETATM   24  O6  UNL     1      -1.031  22.094  21.489  1.00  0.00    -0.361 OA
ATOM     25  H6  UNL     1      -1.464  21.619  20.789  1.00  0.00     0.217 HD
ENDBRANCH  21  24
ENDBRANCH  15  18
ENDBRANCH  13  15
ENDBRANCH  11  13
ENDBRANCH   3   9
BRANCH   2  26
HETATM   26  O2  UNL     1       7.383  20.477  27.271  1.00  0.00    -0.344 OA
ATOM     27  H2  UNL     1       6.489  20.527  27.589  1.00  0.00     0.219 HD
ENDBRANCH   2  26
BRANCH   1  28
HETATM   28  N1  UNL     1       9.471  19.854  28.797  1.00  0.00    -0.259 N
HETATM   29  C2  UNL     1      10.405  20.862  28.874  1.00  0.00     0.232 C
HETATM   30  C1  UNL     1      10.473  21.670  30.170  1.00  0.00     0.119 C
HETATM   31  O1  UNL     1      11.225  21.234  28.030  1.00  0.00    -0.272 OA
ATOM     32  H1  UNL     1       8.950  19.794  29.672  1.00  0.00     0.190 HD
ENDBRANCH   1  28
BRANCH   6  33
HETATM   33  N6  UNL     1       9.634  15.537  26.662  1.00  0.00    -0.333 N
ATOM     34  H62 UNL     1       9.540  15.025  25.786  1.00  0.00     0.177 HD
ATOM     35  H61 UNL     1      10.154  15.123  27.436  1.00  0.00     0.177 HD
ENDBRANCH   6  33
TORSDOF 8
ENDMDL