MODEL 1
REMARK VINA RESULT: -9.448075650      0.000      0.000
REMARK  11 active torsions:
REMARK  status: ('A' for Active; 'I' for Inactive)
REMARK    1  A    between atoms: C2_3  and  N2_4
REMARK    2  A    between atoms: C2_3  and  C3_7
REMARK    3  A    between atoms: C3_7  and  C4_8
REMARK    4  A    between atoms: C4_8  and  N4_11
REMARK    5  A    between atoms: N4_11  and  C6_13
REMARK    6  A    between atoms: C6_13  and  N5_14
REMARK    7  A    between atoms: C6_13  and  C7_19
REMARK    8  A    between atoms: N5_14  and  N6_16
REMARK    9  A    between atoms: C9_28  and  N11_29
REMARK   10  A    between atoms: N11_29  and  S1_31
REMARK   11  A    between atoms: S1_31  and  C10_34
ROOT
HETATM    1  N1  UNL     1       4.214  17.211  17.942  1.00  0.00    -0.190 NA
HETATM    2  C1  UNL     1       3.689  17.106  18.987  1.00  0.00     0.112 C
HETATM    3  C2  UNL     1       3.026  16.998  20.249  1.00  0.00     0.087 C
ENDROOT
BRANCH   3   4
HETATM    4  N2  UNL     1       1.719  17.150  20.188  1.00  0.00    -0.394 N
ATOM      5  H22 UNL     1       1.138  16.509  19.647  1.00  0.00     0.156 HD
ATOM      6  H21 UNL     1       1.365  17.946  20.717  1.00  0.00     0.156 HD
ENDBRANCH   3   4
BRANCH   3   7
HETATM    7  C3  UNL     1       3.702  16.739  21.529  1.00  0.00     0.108 C
BRANCH   7   8
HETATM    8  C4  UNL     1       3.498  15.382  22.100  1.00  0.00     0.197 C
HETATM    9  C5  UNL     1       3.771  14.270  21.211  1.00  0.00     0.085 C
HETATM   10  N3  UNL     1       3.998  13.372  20.524  1.00  0.00    -0.195 NA
BRANCH   8  11
HETATM   11  N4  UNL     1       4.204  15.177  23.347  1.00  0.00    -0.356 N
ATOM     12  H4  UNL     1       4.939  14.470  23.372  1.00  0.00     0.162 HD
BRANCH  11  13
HETATM   13  C6  UNL     1       3.961  15.831  24.420  1.00  0.00     0.149 C
BRANCH  13  14
HETATM   14  N5  UNL     1       2.710  15.707  25.047  1.00  0.00    -0.290 N
ATOM     15  H5  UNL     1       2.683  15.402  26.020  1.00  0.00     0.188 HD
BRANCH  14  16
HETATM   16  N6  UNL     1       1.484  15.986  24.390  1.00  0.00    -0.344 N
ATOM     17  H62 UNL     1       1.532  16.445  23.481  1.00  0.00     0.176 HD
ATOM     18  H61 UNL     1       0.574  15.749  24.785  1.00  0.00     0.176 HD
ENDBRANCH  14  16
ENDBRANCH  13  14
BRANCH  13  19
HETATM   19  C7  UNL     1       4.985  16.690  24.976  1.00  0.00     0.138 A
HETATM   20  N7  UNL     1       6.099  16.190  25.571  1.00  0.00    -0.291 N
HETATM   21  N8  UNL     1       7.033  16.966  26.081  1.00  0.00    -0.273 N
ATOM     22  H7  UNL     1       6.216  15.178  25.625  1.00  0.00     0.187 HD
HETATM   23  C8  UNL     1       6.961  18.307  26.056  1.00  0.00     0.208 A
ATOM     24  H8  UNL     1       7.846  16.529  26.514  1.00  0.00     0.189 HD
HETATM   25  N9  UNL     1       7.989  19.129  26.618  1.00  0.00    -0.062 NA
HETATM   26  N10 UNL     1       5.874  18.839  25.475  1.00  0.00    -0.313 N
HETATM   27  C9  UNL     1       4.899  18.079  24.944  1.00  0.00     0.149 A
ATOM     28  H10 UNL     1       5.784  19.855  25.435  1.00  0.00     0.170 HD
BRANCH  27  29
HETATM   29  N11 UNL     1       3.858  18.557  24.384  1.00  0.00    -0.264 N
ATOM     30  H11 UNL     1       3.780  18.436  23.374  1.00  0.00     0.180 HD
BRANCH  29  31
HETATM   31  S1  UNL     1       2.572  19.383  25.167  1.00  0.00     0.264 S
HETATM   32  O1  UNL     1       3.113  20.415  26.150  1.00  0.00    -0.200 OA
HETATM   33  O2  UNL     1       1.828  18.384  26.017  1.00  0.00    -0.200 OA
BRANCH  31  34
HETATM   34  C10 UNL     1       1.486  20.181  24.062  1.00  0.00     0.080 A
HETATM   35  C11 UNL     1       1.329  19.664  22.798  1.00  0.00     0.027 A
HETATM   36  C12 UNL     1       0.474  20.300  21.923  1.00  0.00     0.028 A
HETATM   37  C13 UNL     1      -0.229  21.434  22.260  1.00  0.00     0.046 A
HETATM   38  N12 UNL     1      -1.112  22.088  21.354  1.00  0.00    -0.102 NA
HETATM   39  C14 UNL     1      -0.065  21.944  23.527  1.00  0.00     0.028 A
HETATM   40  C15 UNL     1       0.796  21.314  24.427  1.00  0.00     0.027 A
ENDBRANCH  31  34
ENDBRANCH  29  31
ENDBRANCH  27  29
ENDBRANCH  13  19
ENDBRANCH  11  13
ENDBRANCH   8  11
ENDBRANCH   7   8
ENDBRANCH   3   7
TORSDOF 11
ENDMDL