MODEL 2
REMARK VINA RESULT: -9.235166616      1.776      2.168
REMARK  11 active torsions:
REMARK  status: ('A' for Active; 'I' for Inactive)
REMARK    1  A    between atoms: S1_2  and  C2_3
REMARK    2  A    between atoms: S1_2  and  C6_12
REMARK    3  A    between atoms: C2_3  and  C3_4
REMARK    4  A    between atoms: C3_4  and  C4_6
REMARK    5  A    between atoms: C4_6  and  C5_8
REMARK    6  A    between atoms: C5_8  and  N1_9
REMARK    7  A    between atoms: C7_15  and  C8_16
REMARK    8  A    between atoms: C9_19  and  C10_20
REMARK    9  A    between atoms: C10_20  and  N4_21
REMARK   10  A    between atoms: C10_20  and  N5_25
REMARK   11  A    between atoms: C13_36  and  N8_37
ROOT
HETATM    1  C6  UNL     1       2.033  18.902  23.811  1.00  0.00     0.081 A
HETATM    2  N2  UNL     1       2.670  18.019  23.008  1.00  0.00    -0.334 N
ATOM      3  H2  UNL     1       3.309  17.348  23.433  1.00  0.00     0.168 HD
HETATM    4  C7  UNL     1       2.500  17.986  21.692  1.00  0.00     0.142 A
HETATM    5  N6  UNL     1       1.667  18.851  21.104  1.00  0.00    -0.325 N
ATOM      6  H6  UNL     1       1.546  18.813  20.092  1.00  0.00     0.169 HD
HETATM    7  C12 UNL     1       0.976  19.781  21.818  1.00  0.00     0.141 A
HETATM    8  N7  UNL     1       0.141  20.648  21.222  1.00  0.00    -0.176 N
ATOM      9  H7  UNL     1       0.021  20.609  20.210  1.00  0.00     0.186 HD
HETATM   10  C13 UNL     1      -0.538  21.564  21.928  1.00  0.00     0.680 A
HETATM   11  N9  UNL     1      -0.353  21.581  23.260  1.00  0.00    -0.155 N
ATOM     12  H9  UNL     1      -0.865  22.272  23.808  1.00  0.00     0.187 HD
HETATM   13  C14 UNL     1       0.470  20.739  23.909  1.00  0.00     0.276 A
HETATM   14  O3  UNL     1       0.624  20.780  25.157  1.00  0.00    -0.267 OA
HETATM   15  C15 UNL     1       1.181  19.783  23.180  1.00  0.00     0.110 A
ENDROOT
BRANCH   4  16
HETATM   16  C8  UNL     1       3.237  16.985  20.884  1.00  0.00     0.119 A
HETATM   17  N3  UNL     1       3.596  17.050  19.617  1.00  0.00    -0.347 N
HETATM   18  C9  UNL     1       4.242  16.071  19.074  1.00  0.00     0.074 A
ATOM     19  H3  UNL     1       3.364  17.875  19.064  1.00  0.00     0.166 HD
HETATM   20  C11 UNL     1       4.531  14.983  19.863  1.00  0.00     0.081 A
HETATM   21  S2  UNL     1       3.838  15.458  21.358  1.00  0.00    -0.078 SA
BRANCH  18  22
HETATM   22  C10 UNL     1       4.690  16.069  17.620  1.00  0.00     0.427 C
BRANCH  22  23
HETATM   23  N4  UNL     1       3.719  15.367  16.800  1.00  0.00    -0.045 N
ATOM     24  H43 UNL     1       4.120  14.539  16.360  1.00  0.00     0.277 HD
ATOM     25  H42 UNL     1       3.005  14.906  17.364  1.00  0.00     0.277 HD
ATOM     26  H41 UNL     1       3.312  16.004  16.116  1.00  0.00     0.277 HD
ENDBRANCH  22  23
BRANCH  22  27
HETATM   27  N5  UNL     1       4.836  17.434  17.151  1.00  0.00    -0.045 N
ATOM     28  H53 UNL     1       4.052  18.022  17.433  1.00  0.00     0.277 HD
ATOM     29  H52 UNL     1       5.578  17.932  17.642  1.00  0.00     0.277 HD
ATOM     30  H51 UNL     1       4.975  17.437  16.140  1.00  0.00     0.277 HD
ENDBRANCH  22  27
ENDBRANCH  18  22
ENDBRANCH   4  16
BRANCH   1  31
HETATM   31  S1  UNL     1       2.213  18.993  25.526  1.00  0.00    -0.165 SA
HETATM   32  C1  UNL     1       3.374  20.189  26.070  1.00  0.00     0.086 C
BRANCH  31  33
HETATM   33  C2  UNL     1       2.342  17.440  26.320  1.00  0.00     0.157 C
BRANCH  33  34
HETATM   34  C3  UNL     1       2.874  16.362  25.475  1.00  0.00     0.209 C
HETATM   35  O1  UNL     1       2.093  15.737  24.719  1.00  0.00    -0.288 OA
BRANCH  34  36
HETATM   36  C4  UNL     1       4.287  16.004  25.496  1.00  0.00     0.232 C
HETATM   37  O2  UNL     1       4.597  14.783  25.508  1.00  0.00    -0.283 OA
BRANCH  36  38
HETATM   38  C5  UNL     1       5.347  17.002  25.503  1.00  0.00     0.139 C
BRANCH  38  39
HETATM   39  N1  UNL     1       6.574  16.557  25.535  1.00  0.00    -0.405 N
ATOM     40  H12 UNL     1       6.966  16.173  26.395  1.00  0.00     0.155 HD
ATOM     41  H11 UNL     1       7.106  16.614  24.667  1.00  0.00     0.155 HD
ENDBRANCH  38  39
ENDBRANCH  36  38
ENDBRANCH  34  36
ENDBRANCH  33  34
ENDBRANCH  31  33
ENDBRANCH   1  31
BRANCH  10  42
HETATM   42  N8  UNL     1      -1.353  22.408  21.356  1.00  0.00    -0.234 N
ATOM     43  H82 UNL     1      -1.610  22.302  20.374  1.00  0.00     0.174 HD
ATOM     44  H81 UNL     1      -1.754  23.196  21.864  1.00  0.00     0.174 HD
ENDBRANCH  10  42
TORSDOF 11
ENDMDL