MODEL 4
REMARK VINA RESULT: -8.562192267      0.829      1.299
REMARK  10 active torsions:
REMARK  status: ('A' for Active; 'I' for Inactive)
REMARK    1  A    between atoms: C2_2  and  C4_4
REMARK    2  A    between atoms: C4_4  and  O1_20
REMARK    3  A    between atoms: N1_5  and  C5_7
REMARK    4  A    between atoms: N4_12  and  N5_13
REMARK    5  A    between atoms: C6_16  and  N6_17
REMARK    6  A    between atoms: O1_20  and  C7_21
REMARK    7  A    between atoms: C7_21  and  N7_22
REMARK    8  A    between atoms: C10_27  and  N9_28
REMARK       I    between atoms: C11_30  and  N10_31
REMARK       I    between atoms: C11_30  and  N12_35
REMARK    9  A    between atoms: N12_35  and  N13_37
REMARK   10  A    between atoms: C13_39  and  C15_41
ROOT
HETATM    1  N9  UNL     1      10.218  19.879  27.679  1.00  0.00    -0.021 N
ATOM      2  H9  UNL     1      10.664  20.018  26.772  1.00  0.00     0.203 HD
HETATM    3  C11 UNL     1       9.367  18.925  27.764  1.00  0.00     0.720 C
HETATM    4  N10 UNL     1       8.694  18.644  28.965  1.00  0.00    -0.124 N
ATOM      5  H10 UNL     1       8.719  17.704  29.360  1.00  0.00     0.197 HD
HETATM    6  C12 UNL     1       7.986  19.663  29.618  1.00  0.00     0.196 C
HETATM    7  N11 UNL     1       7.377  20.505  30.170  1.00  0.00    -0.171 NA
HETATM    8  N12 UNL     1       9.082  18.093  26.620  1.00  0.00    -0.131 N
ATOM      9  H12 UNL     1       9.867  17.713  26.093  1.00  0.00     0.205 HD
ENDROOT
BRANCH   1  10
HETATM   10  C10 UNL     1      10.600  20.754  28.713  1.00  0.00     0.692 C
HETATM   11  N7  UNL     1      11.688  20.424  29.602  1.00  0.00    -0.194 N
HETATM   12  C8  UNL     1      11.644  21.394  30.646  1.00  0.00     0.163 C
HETATM   13  C9  UNL     1      10.722  22.493  30.131  1.00  0.00     0.158 C
HETATM   14  N8  UNL     1      10.087  21.879  29.012  1.00  0.00    -0.224 N
ATOM     15  H8  UNL     1       9.306  22.296  28.506  1.00  0.00     0.177 HD
BRANCH  11  16
HETATM   16  C7  UNL     1      12.613  19.329  29.465  1.00  0.00     0.321 C
BRANCH  16  17
HETATM   17  O1  UNL     1      12.009  18.095  29.283  1.00  0.00    -0.315 OA
BRANCH  17  18
HETATM   18  C4  UNL     1      11.648  17.176  30.303  1.00  0.00     0.150 C
HETATM   19  N1  UNL     1      12.052  17.478  31.442  1.00  0.00    -0.318 N
ATOM     20  H1  UNL     1      12.575  18.353  31.412  1.00  0.00     0.169 HD
BRANCH  18  21
HETATM   21  C2  UNL     1      10.866  16.031  29.869  1.00  0.00    -0.020 C
HETATM   22  C1  UNL     1      10.963  15.414  28.716  1.00  0.00     0.023 C
HETATM   23  C3  UNL     1       9.805  15.448  30.787  1.00  0.00     0.052 C
ENDBRANCH  18  21
BRANCH  19  24
HETATM   24  C5  UNL     1      12.010  16.992  32.731  1.00  0.00     0.171 A
HETATM   25  N2  UNL     1      11.406  17.504  33.843  1.00  0.00    -0.266 N
HETATM   26  N3  UNL     1      11.630  16.726  34.876  1.00  0.00    -0.218 N
ATOM     27  H2  UNL     1      10.861  18.365  33.867  1.00  0.00     0.190 HD
HETATM   28  N4  UNL     1      12.375  15.691  34.489  1.00  0.00    -0.168 N
ATOM     29  H3  UNL     1      11.288  16.887  35.823  1.00  0.00     0.210 HD
HETATM   30  C6  UNL     1      12.629  15.817  33.182  1.00  0.00     0.185 A
BRANCH  28  31
HETATM   31  N5  UNL     1      12.829  14.634  35.296  1.00  0.00    -0.321 N
ATOM     32  H52 UNL     1      12.227  13.938  35.737  1.00  0.00     0.179 HD
ATOM     33  H51 UNL     1      13.797  14.426  35.543  1.00  0.00     0.179 HD
ENDBRANCH  28  31
BRANCH  30  34
HETATM   34  N6  UNL     1      13.330  14.999  32.437  1.00  0.00    -0.380 N
ATOM     35  H62 UNL     1      14.298  15.122  32.138  1.00  0.00     0.158 HD
ATOM     36  H61 UNL     1      12.991  14.117  32.052  1.00  0.00     0.158 HD
ENDBRANCH  30  34
ENDBRANCH  19  24
ENDBRANCH  17  18
ENDBRANCH  16  17
ENDBRANCH  11  16
ENDBRANCH   1  10
BRANCH   8  37
HETATM   37  N13 UNL     1       7.859  17.797  26.218  1.00  0.00    -0.284 N
HETATM   38  C13 UNL     1       6.793  18.114  25.740  1.00  0.00     0.098 C
HETATM   39  C14 UNL     1       6.495  19.526  25.316  1.00  0.00     0.077 C
ATOM     40  H13 UNL     1       7.767  16.798  26.403  1.00  0.00     0.187 HD
BRANCH  38  41
HETATM   41  C15 UNL     1       5.730  17.101  25.558  1.00  0.00     0.223 C
HETATM   42  O2  UNL     1       5.101  16.642  26.534  1.00  0.00    -0.643 OA
HETATM   43  O3  UNL     1       5.437  16.665  24.287  1.00  0.00    -0.643 OA
ENDBRANCH  38  41
ENDBRANCH   8  37
TORSDOF 10
ENDMDL