MODEL 3
REMARK VINA RESULT: -9.096802356      1.044      1.514
REMARK  10 active torsions:
REMARK  status: ('A' for Active; 'I' for Inactive)
REMARK    1  A    between atoms: S1_2  and  C2_3
REMARK    2  A    between atoms: C2_3  and  N1_4
REMARK    3  A    between atoms: N4_8  and  C3_9
REMARK    4  A    between atoms: C4_12  and  N6_13
REMARK    5  A    between atoms: N6_13  and  N7_15
REMARK    6  A    between atoms: C5_20  and  N9_21
REMARK    7  A    between atoms: N9_21  and  N10_22
REMARK    8  A    between atoms: C6_24  and  C8_26
REMARK    9  A    between atoms: C11_29  and  C12_30
REMARK   10  A    between atoms: C15_39  and  N14_40
ROOT
HETATM    1  C3  UNL     1       3.700  15.942  22.210  1.00  0.00     0.735 A
HETATM    2  N5  UNL     1       2.460  16.208  22.656  1.00  0.00    -0.018 N
ATOM      3  H5  UNL     1       1.669  16.123  22.017  1.00  0.00     0.203 HD
HETATM    4  C4  UNL     1       2.242  16.586  23.927  1.00  0.00     0.714 A
HETATM    5  N8  UNL     1       3.273  16.697  24.753  1.00  0.00    -0.145 N
ATOM      6  H8  UNL     1       3.095  16.985  25.716  1.00  0.00     0.188 HD
HETATM    7  C5  UNL     1       4.566  16.444  24.375  1.00  0.00     0.309 A
HETATM    8  N13 UNL     1       4.707  16.066  23.073  1.00  0.00    -0.144 N
ATOM      9  H13 UNL     1       5.648  15.865  22.736  1.00  0.00     0.188 HD
ENDROOT
BRANCH   7  10
HETATM   10  N9  UNL     1       5.499  16.546  25.106  1.00  0.00    -0.286 NA
BRANCH  10  11
HETATM   11  N10 UNL     1       6.501  16.651  25.880  1.00  0.00    -0.236 N
HETATM   12  C6  UNL     1       7.140  17.776  26.121  1.00  0.00     0.045 C
HETATM   13  C7  UNL     1       6.682  19.042  25.445  1.00  0.00     0.071 C
ATOM     14  H10 UNL     1       6.832  15.807  26.347  1.00  0.00     0.201 HD
BRANCH  12  15
HETATM   15  C8  UNL     1       8.244  17.784  27.045  1.00  0.00    -0.012 A
HETATM   16  C9  UNL     1       8.409  18.757  28.008  1.00  0.00     0.014 A
HETATM   17  C10 UNL     1       9.536  18.734  28.850  1.00  0.00     0.016 A
HETATM   18  C11 UNL     1      10.462  17.729  28.700  1.00  0.00     0.004 A
HETATM   19  C13 UNL     1      10.291  16.752  27.731  1.00  0.00     0.016 A
HETATM   20  C14 UNL     1       9.196  16.793  26.925  1.00  0.00     0.014 A
BRANCH  18  21
HETATM   21  C12 UNL     1      11.642  17.682  29.577  1.00  0.00     0.120 C
HETATM   22  N11 UNL     1      12.257  18.794  29.867  1.00  0.00    -0.387 N
ATOM     23 2H11 UNL     1      11.946  19.704  29.524  1.00  0.00     0.157 HD
ATOM     24 1H11 UNL     1      13.076  18.762  30.475  1.00  0.00     0.157 HD
HETATM   25  N12 UNL     1      12.072  16.426  30.050  1.00  0.00    -0.082 NA
ENDBRANCH  18  21
ENDBRANCH  12  15
ENDBRANCH  10  11
ENDBRANCH   7  10
BRANCH   4  26
HETATM   26  N6  UNL     1       1.046  16.865  24.383  1.00  0.00    -0.138 N
ATOM     27  H6  UNL     1       0.654  17.786  24.186  1.00  0.00     0.205 HD
BRANCH  26  28
HETATM   28  N7  UNL     1       0.289  15.969  25.122  1.00  0.00    -0.331 N
ATOM     29  H72 UNL     1       0.359  14.981  24.876  1.00  0.00     0.177 HD
ATOM     30  H71 UNL     1      -0.324  16.255  25.885  1.00  0.00     0.177 HD
ENDBRANCH  26  28
ENDBRANCH   4  26
BRANCH   1  31
HETATM   31  N4  UNL     1       3.963  15.541  20.878  1.00  0.00     0.108 N
HETATM   32  N3  UNL     1       3.795  16.253  19.779  1.00  0.00     0.033 NA
HETATM   33  N2  UNL     1       4.178  15.500  18.749  1.00  0.00    -0.208 N
HETATM   34  N1  UNL     1       4.583  14.333  19.142  1.00  0.00    -0.100 N
ATOM     35  H2  UNL     1       4.154  15.802  17.776  1.00  0.00     0.206 HD
HETATM   36  C15 UNL     1       4.454  14.345  20.495  1.00  0.00     0.729 A
BRANCH  34  37
HETATM   37  C2  UNL     1       5.077  13.195  18.398  1.00  0.00     0.242 C
BRANCH  37  38
HETATM   38  S1  UNL     1       3.635  12.395  17.626  1.00  0.00    -0.151 SA
HETATM   39  C1  UNL     1       4.030  10.653  17.305  1.00  0.00     0.091 C
ENDBRANCH  37  38
ENDBRANCH  34  37
BRANCH  36  40
HETATM   40  N14 UNL     1       4.787  13.370  21.267  1.00  0.00    -0.231 N
ATOM     41 2H14 UNL     1       5.367  12.569  21.018  1.00  0.00     0.174 HD
ATOM     42 1H14 UNL     1       4.479  13.268  22.234  1.00  0.00     0.174 HD
ENDBRANCH  36  40
ENDBRANCH   1  31
TORSDOF 10
ENDMDL