MODEL 1
REMARK VINA RESULT: -5.137911239      0.000      0.000
REMARK  5 active torsions:
REMARK  status: ('A' for Active; 'I' for Inactive)
REMARK    1  A    between atoms: C2_2  and  N1_3
REMARK    2  A    between atoms: N2_6  and  C5_7
REMARK    3  A    between atoms: C5_7  and  C6_8
REMARK    4  A    between atoms: C6_8  and  N4_12
REMARK    5  A    between atoms: N4_12  and  N5_14
ROOT
HETATM    1  C5  UNL     1     -11.082  27.501  42.025  1.00  0.00     0.349 C
ENDROOT
BRANCH   1   2
HETATM    2  N2  UNL     1     -12.203  26.911  41.348  1.00  0.00     0.098 N
HETATM    3  C4  UNL     1     -12.160  25.493  41.254  1.00  0.00     0.292 C
HETATM    4  C3  UNL     1     -11.367  24.934  40.139  1.00  0.00     0.147 C
HETATM    5  N1  UNL     1     -11.500  25.597  38.894  1.00  0.00    -0.409 N
HETATM    6  C8  UNL     1     -11.632  27.019  38.977  1.00  0.00     0.147 C
HETATM    7  C7  UNL     1     -12.518  27.519  40.068  1.00  0.00     0.292 C
BRANCH   5   8
HETATM    8  C2  UNL     1     -12.335  24.966  37.935  1.00  0.00     0.112 C
HETATM    9  C1  UNL     1     -13.729  25.462  37.797  1.00  0.00     0.026 C
ENDBRANCH   5   8
ENDBRANCH   1   2
BRANCH   1  10
HETATM   10  C6  UNL     1     -10.839  26.949  43.376  1.00  0.00     0.117 C
HETATM   11  N3  UNL     1     -11.871  27.040  44.200  1.00  0.00    -0.386 N
ATOM     12  H32 UNL     1     -12.723  27.471  43.840  1.00  0.00     0.157 HD
ATOM     13  H31 UNL     1     -11.704  26.660  45.132  1.00  0.00     0.157 HD
BRANCH  10  14
HETATM   14  N4  UNL     1      -9.669  26.358  43.870  1.00  0.00    -0.294 N
ATOM     15  H4  UNL     1      -9.088  26.824  44.567  1.00  0.00     0.187 HD
BRANCH  14  16
HETATM   16  N5  UNL     1      -9.335  25.090  43.361  1.00  0.00    -0.344 N
ATOM     17  H52 UNL     1      -8.373  24.872  43.100  1.00  0.00     0.176 HD
ATOM     18  H51 UNL     1     -10.095  24.416  43.269  1.00  0.00     0.176 HD
ENDBRANCH  14  16
ENDBRANCH  10  14
ENDBRANCH   1  10
TORSDOF 5
ENDMDL