MODEL 2
REMARK VINA RESULT: -6.275341454      1.493      2.066
REMARK  4 active torsions:
REMARK  status: ('A' for Active; 'I' for Inactive)
REMARK    1  A    between atoms: N3_4  and  O1_6
REMARK    2  A    between atoms: O1_6  and  N4_7
REMARK    3  A    between atoms: C2_9  and  C3_10
REMARK    4  A    between atoms: N5_15  and  O2_16
ROOT
HETATM    1  N4  UNL     1     -10.927  27.444  41.396  1.00  0.00    -0.251 N
ATOM      2  H4  UNL     1     -10.760  28.063  40.603  1.00  0.00     0.196 HD
HETATM    3  C2  UNL     1     -11.634  26.388  41.214  1.00  0.00     0.148 C
ENDROOT
BRANCH   3   4
HETATM    4  C3  UNL     1     -12.167  26.106  39.907  1.00  0.00     0.079 A
HETATM    5  C4  UNL     1     -11.907  24.877  39.324  1.00  0.00     0.033 A
HETATM    6  C5  UNL     1     -12.411  24.594  38.073  1.00  0.00     0.004 A
HETATM    7  C6  UNL     1     -13.160  25.579  37.467  1.00  0.00     0.020 A
HETATM    8  C7  UNL     1     -13.408  26.791  38.058  1.00  0.00     0.123 A
HETATM    9  N5  UNL     1     -12.906  27.044  39.279  1.00  0.00    -0.235 N
BRANCH   9  10
HETATM   10  O2  UNL     1     -13.145  28.260  39.891  1.00  0.00    -0.283 OA
ATOM     11  H2  UNL     1     -13.435  29.003  39.374  1.00  0.00     0.245 HD
ENDBRANCH   9  10
ENDBRANCH   3   4
BRANCH   1  12
HETATM   12  O1  UNL     1     -10.390  27.775  42.607  1.00  0.00    -0.155 OA
BRANCH  12  13
HETATM   13  N3  UNL     1      -9.840  26.861  43.469  1.00  0.00    -0.215 N
HETATM   14  C1  UNL     1     -10.305  26.630  44.653  1.00  0.00     0.222 C
HETATM   15  N1  UNL     1     -11.452  27.329  45.154  1.00  0.00    -0.065 NA
HETATM   16  N2  UNL     1      -9.632  25.654  45.439  1.00  0.00    -0.065 NA
ATOM     17  H3  UNL     1      -9.022  26.336  43.160  1.00  0.00     0.199 HD
ENDBRANCH  12  13
ENDBRANCH   1  12
TORSDOF 4
ENDMDL