MODEL 4
REMARK VINA RESULT: -2.748892484      3.542      8.996
REMARK  4 active torsions:
REMARK  status: ('A' for Active; 'I' for Inactive)
REMARK    1  A    between atoms: C5_6  and  C6_7
REMARK    2  A    between atoms: N2_8  and  N3_10
REMARK    3  A    between atoms: C7_12  and  N4_13
REMARK    4  A    between atoms: N4_13  and  N5_15
ROOT
HETATM    1  C1  UNL     1     -16.329  34.463  50.062  1.00  0.00     0.180 C
HETATM    2  N1  UNL     1     -14.903  34.380  49.950  1.00  0.00    -0.272 N
HETATM    3  C2  UNL     1     -14.144  34.299  51.141  1.00  0.00     0.113 C
HETATM    4  C3  UNL     1     -12.892  33.887  51.317  1.00  0.00     0.021 C
HETATM    5  C4  UNL     1     -11.994  33.410  50.272  1.00  0.00     0.034 C
HETATM    6  C5  UNL     1     -12.078  33.422  48.950  1.00  0.00     0.068 C
HETATM    7  N6  UNL     1     -13.167  33.955  48.185  1.00  0.00    -0.264 N
ATOM      8  H6  UNL     1     -13.012  34.028  47.179  1.00  0.00     0.190 HD
HETATM    9  N7  UNL     1     -14.418  34.388  48.647  1.00  0.00    -0.136 N
HETATM   10  N8  UNL     1     -15.168  34.834  47.723  1.00  0.00    -0.309 N
ATOM     11  H81 UNL     1     -14.812  34.840  46.767  1.00  0.00     0.180 HD
ATOM     12  H82 UNL     1     -16.078  35.150  48.059  1.00  0.00     0.180 HD
ENDROOT
BRANCH   6  13
HETATM   13  C6  UNL     1     -10.974  32.847  48.204  1.00  0.00     0.138 C
HETATM   14  N2  UNL     1      -9.983  33.590  47.901  1.00  0.00    -0.309 N
ATOM     15  H2  UNL     1      -9.966  34.572  48.179  1.00  0.00     0.186 HD
BRANCH  14  16
HETATM   16  N3  UNL     1      -8.922  33.037  47.184  1.00  0.00    -0.295 N
HETATM   17  C7  UNL     1      -8.235  33.729  46.350  1.00  0.00     0.213 C
ATOM     18  H3  UNL     1      -8.686  32.056  47.326  1.00  0.00     0.187 HD
BRANCH  17  19
HETATM   19  N4  UNL     1      -7.164  33.168  45.625  1.00  0.00    -0.301 N
ATOM     20  H4  UNL     1      -6.545  32.475  46.048  1.00  0.00     0.187 HD
BRANCH  19  21
HETATM   21  N5  UNL     1      -6.977  33.597  44.299  1.00  0.00    -0.344 N
ATOM     22  H52 UNL     1      -6.722  34.564  44.103  1.00  0.00     0.176 HD
ATOM     23  H51 UNL     1      -7.107  32.909  43.557  1.00  0.00     0.176 HD
ENDBRANCH  19  21
ENDBRANCH  17  19
ENDBRANCH  14  16
ENDBRANCH   6  13
TORSDOF 4
ENDMDL