MODEL 4
REMARK VINA RESULT: -5.144173981      3.073      5.363
REMARK  6 active torsions:
REMARK  status: ('A' for Active; 'I' for Inactive)
REMARK    1  A    between atoms: N1_2  and  C3_4
REMARK    2  A    between atoms: C3_4  and  C4_5
REMARK    3  A    between atoms: C4_5  and  N2_6
REMARK    4  A    between atoms: C6_8  and  O1_9
REMARK    5  A    between atoms: C7_11  and  O2_12
REMARK    6  A    between atoms: C8_14  and  O3_15
ROOT
HETATM    1  N2  UNL     1     -12.218  26.921  39.864  1.00  0.00    -0.361 N
HETATM    2  C5  UNL     1     -11.492  25.686  39.825  1.00  0.00     0.159 C
HETATM    3  C6  UNL     1     -11.968  24.958  38.599  1.00  0.00     0.169 C
HETATM    4  C7  UNL     1     -12.916  25.903  37.953  1.00  0.00     0.197 C
HETATM    5  C8  UNL     1     -13.357  26.823  39.074  1.00  0.00     0.251 C
ENDROOT
BRANCH   1   6
HETATM    6  C4  UNL     1     -12.191  27.583  41.077  1.00  0.00     0.090 C
BRANCH   6   7
HETATM    7  C3  UNL     1     -11.031  27.366  41.974  1.00  0.00     0.315 C
BRANCH   7   8
HETATM    8  N1  UNL     1     -11.248  26.427  43.025  1.00  0.00     0.084 N
HETATM    9  C1  UNL     1     -10.163  25.559  43.326  1.00  0.00     0.309 C
HETATM   10  C2  UNL     1     -11.755  27.134  44.209  1.00  0.00     0.309 C
ENDBRANCH   7   8
ENDBRANCH   6   7
ENDBRANCH   1   6
BRANCH   5  11
HETATM   11  O3  UNL     1     -13.868  27.934  38.489  1.00  0.00    -0.374 OA
ATOM     12  H3  UNL     1     -14.721  27.898  38.074  1.00  0.00     0.212 HD
ENDBRANCH   5  11
BRANCH   3  13
HETATM   13  O1  UNL     1     -10.913  24.686  37.718  1.00  0.00    -0.391 OA
ATOM     14  H1  UNL     1     -10.652  23.773  37.755  1.00  0.00     0.210 HD
ENDBRANCH   3  13
BRANCH   4  15
HETATM   15  O2  UNL     1     -14.006  25.283  37.354  1.00  0.00    -0.389 OA
ATOM     16  H2  UNL     1     -14.680  25.887  37.066  1.00  0.00     0.210 HD
ENDBRANCH   4  15
TORSDOF 6
ENDMDL