MODEL 1
REMARK VINA RESULT: -5.690042673      0.000      0.000
REMARK  5 active torsions:
REMARK  status: ('A' for Active; 'I' for Inactive)
REMARK    1  A    between atoms: C2_2  and  S1_3
REMARK    2  A    between atoms: S1_3  and  C3_5
REMARK    3  A    between atoms: C3_5  and  C4_6
REMARK    4  A    between atoms: C6_9  and  O3_10
REMARK    5  A    between atoms: C7_12  and  O4_13
ROOT
HETATM    1  C4  UNL     1     -12.040  26.173  41.463  1.00  0.00     0.164 C
HETATM    2  O2  UNL     1     -11.420  27.404  41.264  1.00  0.00    -0.380 OA
HETATM    3  C5  UNL     1     -11.644  28.086  42.445  1.00  0.00     0.202 C
HETATM    4  C6  UNL     1     -11.592  27.097  43.569  1.00  0.00     0.173 C
HETATM    5  C7  UNL     1     -11.434  25.778  42.817  1.00  0.00     0.178 C
ENDROOT
BRANCH   1   6
HETATM    6  C3  UNL     1     -11.595  25.145  40.448  1.00  0.00     0.143 C
BRANCH   6   7
HETATM    7  S1  UNL     1     -11.608  25.784  38.804  1.00  0.00     0.017 S
HETATM    8  O1  UNL     1     -11.102  24.673  37.674  1.00  0.00    -0.258 OA
BRANCH   7   9
HETATM    9  C2  UNL     1     -13.300  26.276  38.447  1.00  0.00     0.104 C
HETATM   10  C1  UNL     1     -13.376  27.785  38.349  1.00  0.00     0.018 C
ENDBRANCH   7   9
ENDBRANCH   6   7
ENDBRANCH   1   6
BRANCH   5  11
HETATM   11  O4  UNL     1     -10.095  25.553  42.597  1.00  0.00    -0.390 OA
ATOM     12  H4  UNL     1      -9.771  26.301  42.110  1.00  0.00     0.210 HD
ENDBRANCH   5  11
BRANCH   4  13
HETATM   13  O3  UNL     1     -10.564  27.309  44.460  1.00  0.00    -0.391 OA
ATOM     14  H3  UNL     1     -10.472  26.628  45.116  1.00  0.00     0.210 HD
ENDBRANCH   4  13
TORSDOF 5
ENDMDL