MODEL 1
REMARK VINA RESULT: -6.493990988      0.000      0.000
REMARK  4 active torsions:
REMARK  status: ('A' for Active; 'I' for Inactive)
REMARK    1  A    between atoms: N1_1  and  C1_5
REMARK    2  A    between atoms: C1_5  and  C2_6
REMARK    3  A    between atoms: C2_6  and  N2_7
REMARK       I    between atoms: N3_10  and  C5_11
REMARK    4  A    between atoms: N5_13  and  N6_15
ROOT
HETATM    1  N2  UNL     1     -30.964  -7.344  41.492  1.00  0.00     0.093 N
HETATM    2  C3  UNL     1     -29.930  -6.488  40.856  1.00  0.00     0.292 C
HETATM    3  C4  UNL     1     -29.691  -5.209  41.543  1.00  0.00     0.156 C
HETATM    4  N3  UNL     1     -30.696  -4.760  42.459  1.00  0.00    -0.351 N
HETATM    5  C5  UNL     1     -30.637  -3.412  42.947  1.00  0.00     0.204 C
HETATM    6  N4  UNL     1     -30.226  -2.346  42.087  1.00  0.00    -0.062 NA
HETATM    7  N5  UNL     1     -30.937  -3.089  44.146  1.00  0.00    -0.280 N
ATOM      8  H5  UNL     1     -30.874  -2.112  44.432  1.00  0.00     0.189 HD
HETATM    9  C6  UNL     1     -31.759  -5.621  42.899  1.00  0.00     0.156 C
HETATM   10  C7  UNL     1     -32.099  -6.515  41.685  1.00  0.00     0.292 C
ENDROOT
BRANCH   7  11
HETATM   11  N6  UNL     1     -31.347  -4.046  45.066  1.00  0.00    -0.343 N
ATOM     12  H62 UNL     1     -30.974  -4.991  44.983  1.00  0.00     0.176 HD
ATOM     13  H61 UNL     1     -32.005  -3.813  45.810  1.00  0.00     0.176 HD
ENDBRANCH   7  11
BRANCH   1  14
HETATM   14  C2  UNL     1     -31.138  -8.415  40.564  1.00  0.00     0.299 C
BRANCH  14  15
HETATM   15  C1  UNL     1     -32.429  -9.128  40.532  1.00  0.00     0.259 C
BRANCH  15  16
HETATM   16  N1  UNL     1     -33.270  -8.975  39.404  1.00  0.00    -0.078 N
ATOM     17  H13 UNL     1     -34.076  -8.408  39.669  1.00  0.00     0.274 HD
ATOM     18  H12 UNL     1     -32.809  -8.363  38.731  1.00  0.00     0.274 HD
ATOM     19  H11 UNL     1     -33.601  -9.809  38.917  1.00  0.00     0.274 HD
ENDBRANCH  15  16
ENDBRANCH  14  15
ENDBRANCH   1  14
TORSDOF 4
ENDMDL