MODEL 4
REMARK VINA RESULT: -5.265486262      2.875      5.392
REMARK  5 active torsions:
REMARK  status: ('A' for Active; 'I' for Inactive)
REMARK    1  A    between atoms: S1_2  and  C3_4
REMARK    2  A    between atoms: C3_4  and  C4_5
REMARK    3  A    between atoms: C5_7  and  O2_8
REMARK    4  A    between atoms: C6_10  and  O3_11
REMARK    5  A    between atoms: C7_13  and  O4_14
ROOT
HETATM    1  C4  UNL     1     -31.633  -7.438  42.166  1.00  0.00     0.164 C
HETATM    2  O1  UNL     1     -30.874  -7.337  41.002  1.00  0.00    -0.350 OA
HETATM    3  C5  UNL     1     -30.729  -8.705  40.672  1.00  0.00     0.288 C
HETATM    4  C6  UNL     1     -32.135  -9.224  40.716  1.00  0.00     0.204 C
HETATM    5  C7  UNL     1     -32.795  -8.268  41.719  1.00  0.00     0.181 C
ENDROOT
BRANCH   1   6
HETATM    6  C3  UNL     1     -32.037  -6.066  42.662  1.00  0.00     0.097 C
BRANCH   6   7
HETATM    7  S1  UNL     1     -30.704  -4.908  42.509  1.00  0.00    -0.225 SA
HETATM    8  C1  UNL     1     -31.001  -3.583  43.679  1.00  0.00     0.078 C
HETATM    9  C2  UNL     1     -30.686  -4.170  40.897  1.00  0.00     0.078 C
ENDBRANCH   6   7
ENDBRANCH   1   6
BRANCH   5  10
HETATM   10  O4  UNL     1     -33.362  -9.036  42.707  1.00  0.00    -0.390 OA
ATOM     11  H4  UNL     1     -34.145  -9.504  42.443  1.00  0.00     0.210 HD
ENDBRANCH   5  10
BRANCH   3  12
HETATM   12  O2  UNL     1     -30.095  -8.888  39.468  1.00  0.00    -0.369 OA
ATOM     13  H2  UNL     1     -29.336  -9.455  39.541  1.00  0.00     0.212 HD
ENDBRANCH   3  12
BRANCH   4  14
HETATM   14  O3  UNL     1     -32.758  -9.142  39.477  1.00  0.00    -0.388 OA
ATOM     15  H3  UNL     1     -33.476  -9.758  39.400  1.00  0.00     0.210 HD
ENDBRANCH   4  14
TORSDOF 5
ENDMDL