MODEL 3
REMARK VINA RESULT: -5.232780206      3.410      5.211
REMARK  6 active torsions:
REMARK  status: ('A' for Active; 'I' for Inactive)
REMARK    1  A    between atoms: S1_2  and  C2_3
REMARK    2  A    between atoms: S1_2  and  C3_8
REMARK    3  A    between atoms: C2_3  and  N1_4
REMARK    4  A    between atoms: C3_8  and  C4_9
REMARK    5  A    between atoms: C6_12  and  O2_13
REMARK    6  A    between atoms: C7_15  and  O3_16
ROOT
HETATM    1  C4  UNL     1     -31.628  -7.372  42.283  1.00  0.00     0.161 C
HETATM    2  O1  UNL     1     -32.797  -8.114  42.538  1.00  0.00    -0.380 OA
HETATM    3  C5  UNL     1     -32.645  -9.272  41.774  1.00  0.00     0.202 C
HETATM    4  C6  UNL     1     -32.188  -8.734  40.445  1.00  0.00     0.173 C
HETATM    5  C7  UNL     1     -31.260  -7.620  40.870  1.00  0.00     0.178 C
ENDROOT
BRANCH   1   6
HETATM    6  C3  UNL     1     -31.930  -5.970  42.682  1.00  0.00     0.099 C
BRANCH   6   7
HETATM    7  S1  UNL     1     -30.712  -4.768  42.388  1.00  0.00    -0.196 SA
HETATM    8  C1  UNL     1     -30.639  -4.206  40.722  1.00  0.00     0.080 C
BRANCH   7   9
HETATM    9  C2  UNL     1     -30.934  -3.399  43.495  1.00  0.00     0.293 C
BRANCH   9  10
HETATM   10  N1  UNL     1     -31.211  -3.950  44.815  1.00  0.00    -0.072 N
ATOM     11  H13 UNL     1     -32.188  -4.213  44.940  1.00  0.00     0.275 HD
ATOM     12  H12 UNL     1     -30.806  -4.876  44.954  1.00  0.00     0.275 HD
ATOM     13  H11 UNL     1     -30.890  -3.268  45.501  1.00  0.00     0.275 HD
ENDBRANCH   9  10
ENDBRANCH   7   9
ENDBRANCH   6   7
ENDBRANCH   1   6
BRANCH   5  14
HETATM   14  O3  UNL     1     -29.970  -8.163  40.821  1.00  0.00    -0.390 OA
ATOM     15  H3  UNL     1     -29.991  -8.972  40.322  1.00  0.00     0.210 HD
ENDBRANCH   5  14
BRANCH   4  16
HETATM   16  O2  UNL     1     -31.525  -9.722  39.726  1.00  0.00    -0.391 OA
ATOM     17  H2  UNL     1     -31.509 -10.535  40.216  1.00  0.00     0.210 HD
ENDBRANCH   4  16
TORSDOF 6
ENDMDL