MODEL 4
REMARK VINA RESULT: -5.130653886      2.843      5.727
REMARK  4 active torsions:
REMARK  status: ('A' for Active; 'I' for Inactive)
REMARK    1  A    between atoms: N1_1  and  N2_4
REMARK       I    between atoms: N2_4  and  C1_6
REMARK    2  A    between atoms: N4_8  and  C2_10
REMARK    3  A    between atoms: C2_10  and  C3_11
REMARK    4  A    between atoms: C3_11  and  N5_12
ROOT
HETATM    1  N2  UNL     1     -30.954  -3.327  44.408  1.00  0.00    -0.280 N
ATOM      2  H2  UNL     1     -30.596  -3.619  45.317  1.00  0.00     0.189 HD
HETATM    3  C1  UNL     1     -31.311  -4.326  43.476  1.00  0.00     0.202 C
HETATM    4  N3  UNL     1     -32.434  -5.141  43.736  1.00  0.00    -0.062 NA
HETATM    5  N4  UNL     1     -30.645  -4.516  42.400  1.00  0.00    -0.362 N
ATOM      6  H4  UNL     1     -29.834  -3.926  42.214  1.00  0.00     0.162 HD
ENDROOT
BRANCH   5   7
HETATM    7  C2  UNL     1     -30.994  -5.521  41.451  1.00  0.00     0.152 C
BRANCH   7   8
HETATM    8  C3  UNL     1     -30.089  -6.714  41.395  1.00  0.00     0.292 C
BRANCH   8   9
HETATM    9  N5  UNL     1     -30.706  -7.977  41.612  1.00  0.00     0.094 N
HETATM   10  C4  UNL     1     -31.024  -8.539  40.325  1.00  0.00     0.298 C
HETATM   11  C5  UNL     1     -32.117  -9.535  40.286  1.00  0.00     0.198 C
HETATM   12  O1  UNL     1     -33.162  -9.246  41.175  1.00  0.00    -0.388 OA
HETATM   13  C6  UNL     1     -32.581  -9.284  42.440  1.00  0.00     0.198 C
HETATM   14  C7  UNL     1     -31.735  -8.031  42.583  1.00  0.00     0.298 C
ENDBRANCH   8   9
ENDBRANCH   7   8
ENDBRANCH   5   7
BRANCH   1  15
HETATM   15  N1  UNL     1     -31.068  -1.947  44.146  1.00  0.00    -0.343 N
ATOM     16  H12 UNL     1     -31.965  -1.505  44.346  1.00  0.00     0.176 HD
ATOM     17  H11 UNL     1     -30.305  -1.382  43.773  1.00  0.00     0.176 HD
ENDBRANCH   1  15
TORSDOF 4
ENDMDL