MODEL 2
REMARK VINA RESULT: -5.761671118      1.394      2.690
REMARK  6 active torsions:
REMARK  status: ('A' for Active; 'I' for Inactive)
REMARK    1  A    between atoms: C2_2  and  C3_3
REMARK    2  A    between atoms: C3_3  and  N1_4
REMARK    3  A    between atoms: C5_6  and  O1_7
REMARK    4  A    between atoms: C6_9  and  O2_10
REMARK    5  A    between atoms: C7_12  and  C8_13
REMARK    6  A    between atoms: C8_13  and  O3_14
ROOT
HETATM    1  N1  UNL     1     -31.318  -5.423  42.379  1.00  0.00    -0.367 N
HETATM    2  C4  UNL     1     -30.066  -5.456  41.742  1.00  0.00     0.161 C
HETATM    3  C5  UNL     1     -30.246  -6.390  40.534  1.00  0.00     0.165 C
HETATM    4  C6  UNL     1     -30.229  -7.779  41.188  1.00  0.00     0.159 C
HETATM    5  C7  UNL     1     -31.404  -7.876  42.097  1.00  0.00     0.079 C
HETATM    6  C9  UNL     1     -32.100  -6.581  42.368  1.00  0.00     0.073 C
ENDROOT
BRANCH   1   7
HETATM    7  C3  UNL     1     -31.516  -4.476  43.403  1.00  0.00     0.089 C
BRANCH   7   8
HETATM    8  C2  UNL     1     -30.745  -3.218  43.110  1.00  0.00     0.007 C
HETATM    9  C1  UNL     1     -30.842  -2.183  43.921  1.00  0.00     0.012 C
ENDBRANCH   7   8
ENDBRANCH   1   7
BRANCH   3  10
HETATM   10  O1  UNL     1     -29.245  -6.238  39.610  1.00  0.00    -0.391 OA
ATOM     11  H1  UNL     1     -29.309  -6.872  38.905  1.00  0.00     0.210 HD
ENDBRANCH   3  10
BRANCH   5  12
HETATM   12  C8  UNL     1     -32.384  -8.880  41.521  1.00  0.00     0.176 C
BRANCH  12  13
HETATM   13  O3  UNL     1     -32.952  -8.440  40.341  1.00  0.00    -0.400 OA
ATOM     14  H3  UNL     1     -33.163  -7.514  40.366  1.00  0.00     0.209 HD
ENDBRANCH  12  13
ENDBRANCH   5  12
BRANCH   4  15
HETATM   15  O2  UNL     1     -30.160  -8.755  40.226  1.00  0.00    -0.392 OA
ATOM     16  H2  UNL     1     -29.708  -9.518  40.565  1.00  0.00     0.210 HD
ENDBRANCH   4  15
TORSDOF 6
ENDMDL