MODEL 1
REMARK VINA RESULT: -6.332510866      0.000      0.000
REMARK  5 active torsions:
REMARK  status: ('A' for Active; 'I' for Inactive)
REMARK    1  A    between atoms: N1_2  and  C2_5
REMARK    2  A    between atoms: C3_7  and  C4_8
REMARK    3  A    between atoms: C4_8  and  S1_9
REMARK    4  A    between atoms: S1_9  and  N2_10
REMARK    5  A    between atoms: C6_15  and  N3_16
ROOT
HETATM    1  C2  UNL     1     -31.577  -8.267  41.763  1.00  0.00     0.351 C
HETATM    2  O1  UNL     1     -30.751  -7.209  41.426  1.00  0.00    -0.351 OA
HETATM    3  C3  UNL     1     -31.268  -6.036  41.891  1.00  0.00     0.139 C
HETATM    4  C5  UNL     1     -32.219  -6.441  43.004  1.00  0.00     0.070 C
HETATM    5  C6  UNL     1     -32.874  -7.634  42.287  1.00  0.00     0.242 C
ENDROOT
BRANCH   3   6
HETATM    6  C4  UNL     1     -30.256  -5.020  42.305  1.00  0.00     0.163 C
BRANCH   6   7
HETATM    7  S1  UNL     1     -30.939  -3.569  43.027  1.00  0.00     0.110 S
HETATM    8  O2  UNL     1     -29.891  -2.286  42.642  1.00  0.00    -0.236 OA
BRANCH   7   9
HETATM    9  N2  UNL     1     -31.054  -3.730  44.746  1.00  0.00    -0.350 NA
ATOM     10  H22 UNL     1     -32.014  -3.955  45.006  1.00  0.00     0.166 HD
ATOM     11  H21 UNL     1     -30.820  -2.852  45.211  1.00  0.00     0.166 HD
ENDBRANCH   7   9
ENDBRANCH   6   7
ENDBRANCH   3   6
BRANCH   1  12
HETATM   12  N1  UNL     1     -31.907  -9.093  40.646  1.00  0.00    -0.051 N
HETATM   13  C1  UNL     1     -30.825  -9.174  39.707  1.00  0.00     0.270 C
ATOM     14  H12 UNL     1     -32.768  -8.783  40.196  1.00  0.00     0.279 HD
ATOM     15  H11 UNL     1     -32.210 -10.020  40.947  1.00  0.00     0.279 HD
ENDBRANCH   1  12
BRANCH   5  16
HETATM   16  N3  UNL     1     -33.604  -7.215  41.127  1.00  0.00    -0.071 N
ATOM     17  H33 UNL     1     -34.033  -7.986  40.615  1.00  0.00     0.274 HD
ATOM     18  H32 UNL     1     -34.468  -6.719  41.345  1.00  0.00     0.274 HD
ATOM     19  H31 UNL     1     -32.950  -6.669  40.567  1.00  0.00     0.274 HD
ENDBRANCH   5  16
TORSDOF 5
ENDMDL