MODEL 2
REMARK VINA RESULT: -6.672347900      0.089      1.262
REMARK  4 active torsions:
REMARK  status: ('A' for Active; 'I' for Inactive)
REMARK    1  A    between atoms: N1_1  and  C1_5
REMARK    2  A    between atoms: C3_7  and  N2_8
REMARK    3  A    between atoms: C4_12  and  N3_13
REMARK    4  A    between atoms: N3_13  and  S1_15
ROOT
HETATM    1  C1  UNL     1     -31.470  -4.247  43.029  1.00  0.00     0.187 C
HETATM    2  C2  UNL     1     -30.557  -3.964  41.872  1.00  0.00     0.067 C
HETATM    3  C3  UNL     1     -30.086  -5.330  41.395  1.00  0.00     0.208 C
HETATM    4  C4  UNL     1     -31.346  -6.155  41.619  1.00  0.00     0.128 C
HETATM    5  C5  UNL     1     -31.757  -5.743  43.006  1.00  0.00     0.060 C
ENDROOT
BRANCH   4   6
HETATM    6  N3  UNL     1     -31.131  -7.559  41.466  1.00  0.00    -0.294 N
ATOM      7  H3  UNL     1     -30.230  -8.036  41.500  1.00  0.00     0.175 HD
BRANCH   6   8
HETATM    8  S1  UNL     1     -32.672  -8.308  41.211  1.00  0.00     0.204 S
HETATM    9  O1  UNL     1     -32.974  -9.267  42.302  1.00  0.00    -0.578 OA
HETATM   10  O2  UNL     1     -32.604  -9.086  39.905  1.00  0.00    -0.578 OA
HETATM   11  O3  UNL     1     -33.855  -7.145  41.012  1.00  0.00    -0.578 OA
ENDBRANCH   6   8
ENDBRANCH   4   6
BRANCH   3  12
HETATM   12  N2  UNL     1     -28.977  -5.827  42.177  1.00  0.00    -0.073 N
ATOM     13  H23 UNL     1     -29.063  -5.553  43.155  1.00  0.00     0.274 HD
ATOM     14  H22 UNL     1     -29.027  -6.840  42.287  1.00  0.00     0.274 HD
ATOM     15  H21 UNL     1     -28.077  -5.541  41.791  1.00  0.00     0.274 HD
ENDBRANCH   3  12
BRANCH   1  16
HETATM   16  N1  UNL     1     -30.809  -3.909  44.263  1.00  0.00    -0.075 N
ATOM     17  H13 UNL     1     -29.949  -4.440  44.396  1.00  0.00     0.274 HD
ATOM     18  H12 UNL     1     -30.401  -2.974  44.236  1.00  0.00     0.274 HD
ATOM     19  H11 UNL     1     -31.456  -4.023  45.042  1.00  0.00     0.274 HD
ENDBRANCH   1  16
TORSDOF 4
ENDMDL