MODEL 5
REMARK VINA RESULT: -4.652143030      1.565      5.152
REMARK  5 active torsions:
REMARK  status: ('A' for Active; 'I' for Inactive)
REMARK    1  A    between atoms: N1_2  and  C2_3
REMARK    2  A    between atoms: N1_2  and  C4_7
REMARK    3  A    between atoms: C2_3  and  C3_4
REMARK    4  A    between atoms: C3_4  and  O1_5
REMARK    5  A    between atoms: C8_11  and  O2_12
ROOT
HETATM    1  C4  UNL     1     -31.117  -6.468  42.418  1.00  0.00     0.116 C
HETATM    2  C5  UNL     1     -30.623  -6.809  41.008  1.00  0.00     0.066 C
HETATM    3  C6  UNL     1     -31.246  -8.142  40.852  1.00  0.00     0.261 A
HETATM    4  C7  UNL     1     -32.674  -7.677  41.257  1.00  0.00     0.286 A
HETATM    5  C8  UNL     1     -32.297  -7.413  42.666  1.00  0.00     0.176 C
HETATM    6  N2  UNL     1     -32.397  -8.579  40.295  1.00  0.00     0.100 N
HETATM    7  C9  UNL     1     -32.692  -9.962  40.220  1.00  0.00     0.311 C
ENDROOT
BRANCH   1   8
HETATM    8  N1  UNL     1     -31.437  -5.147  42.676  1.00  0.00    -0.388 N
HETATM    9  C1  UNL     1     -32.028  -4.804  43.923  1.00  0.00     0.149 C
BRANCH   8  10
HETATM   10  C2  UNL     1     -30.667  -4.112  42.116  1.00  0.00     0.084 C
BRANCH  10  11
HETATM   11  C3  UNL     1     -30.619  -2.842  42.947  1.00  0.00     0.208 C
BRANCH  11  12
HETATM   12  O1  UNL     1     -29.490  -2.064  42.638  1.00  0.00    -0.396 OA
ATOM     13  H1  UNL     1     -28.779  -2.596  42.302  1.00  0.00     0.209 HD
ENDBRANCH  11  12
ENDBRANCH  10  11
ENDBRANCH   8  10
ENDBRANCH   1   8
BRANCH   5  14
HETATM   14  O2  UNL     1     -31.957  -8.522  43.395  1.00  0.00    -0.391 OA
ATOM     15  H2  UNL     1     -32.698  -9.083  43.590  1.00  0.00     0.210 HD
ENDBRANCH   5  14
TORSDOF 5
ENDMDL