MODEL 2
REMARK VINA RESULT: -8.006090546      2.193      3.865
REMARK  16 active torsions:
REMARK  status: ('A' for Active; 'I' for Inactive)
REMARK       I    between atoms: N1_2  and  C2_4
REMARK    1  A    between atoms: C2_4  and  C3_6
REMARK    2  A    between atoms: C3_6  and  N2_7
REMARK    3  A    between atoms: N2_7  and  C4_9
REMARK    4  A    between atoms: C7_14  and  C8_15
REMARK    5  A    between atoms: C8_15  and  C9_16
REMARK    6  A    between atoms: C9_16  and  C10_17
REMARK    7  A    between atoms: C10_17  and  C11_18
REMARK    8  A    between atoms: C11_18  and  N4_19
REMARK    9  A    between atoms: N5_22  and  C14_23
REMARK   10  A    between atoms: C14_23  and  C15_24
REMARK   11  A    between atoms: C19_28  and  C20_29
REMARK   12  A    between atoms: C24_34  and  N6_35
REMARK   13  A    between atoms: N6_35  and  C25_37
REMARK   14  A    between atoms: C25_37  and  C26_38
REMARK   15  A    between atoms: C26_38  and  C27_39
REMARK   16  A    between atoms: C27_39  and  O3_40
ROOT
HETATM    1  C4  UNL     1      15.629 -21.775 -15.828  1.00  0.00     0.680 A
HETATM    2  N3  UNL     1      14.609 -21.030 -15.424  1.00  0.00    -0.195 N
ATOM      3  H3  UNL     1      14.773 -20.271 -14.762  1.00  0.00     0.184 HD
HETATM    4  C5  UNL     1      13.338 -21.263 -15.881  1.00  0.00     0.032 A
HETATM    5  C6  UNL     1      12.255 -20.397 -15.386  1.00  0.00     0.069 C
HETATM    6  C7  UNL     1      13.083 -22.276 -16.772  1.00  0.00     0.009 A
HETATM    7  C24 UNL     1      14.161 -23.034 -17.175  1.00  0.00     0.125 A
HETATM    8  N7  UNL     1      15.410 -22.784 -16.708  1.00  0.00    -0.176 N
ATOM      9  H7  UNL     1      16.192 -23.360 -17.021  1.00  0.00     0.186 HD
ENDROOT
BRANCH   6  10
HETATM   10  C8  UNL     1      11.726 -22.531 -17.260  1.00  0.00     0.044 C
BRANCH  10  11
HETATM   11  C9  UNL     1      11.546 -22.321 -18.727  1.00  0.00     0.006 C
BRANCH  11  12
HETATM   12  C10 UNL     1      11.743 -20.887 -19.156  1.00  0.00     0.020 C
BRANCH  12  13
HETATM   13  C11 UNL     1      10.473 -20.195 -19.504  1.00  0.00     0.126 C
BRANCH  13  14
HETATM   14  N4  UNL     1      10.094 -19.181 -18.528  1.00  0.00    -0.349 N
HETATM   15  C12 UNL     1      10.974 -18.119 -18.117  1.00  0.00     0.156 C
HETATM   16  C13 UNL     1      10.203 -16.900 -17.707  1.00  0.00     0.293 C
HETATM   17  N5  UNL     1       9.147 -17.046 -16.791  1.00  0.00     0.104 N
HETATM   18  C19 UNL     1       8.519 -18.341 -16.721  1.00  0.00     0.318 C
HETATM   19  C23 UNL     1       8.807 -19.200 -17.907  1.00  0.00     0.254 C
HETATM   20  O2  UNL     1       7.940 -19.966 -18.407  1.00  0.00    -0.271 OA
BRANCH  17  21
HETATM   21  C14 UNL     1       8.167 -16.013 -16.989  1.00  0.00     0.278 C
BRANCH  21  22
HETATM   22  C15 UNL     1       7.863 -15.032 -15.967  1.00  0.00     0.014 C
HETATM   23  C16 UNL     1       6.666 -15.245 -15.076  1.00  0.00     0.006 C
HETATM   24  C17 UNL     1       7.599 -15.174 -13.864  1.00  0.00     0.001 C
HETATM   25  C18 UNL     1       8.700 -14.712 -14.805  1.00  0.00     0.006 C
ENDBRANCH  21  22
ENDBRANCH  17  21
BRANCH  18  26
HETATM   26  C20 UNL     1       8.666 -19.062 -15.412  1.00  0.00     0.028 A
HETATM   27  C21 UNL     1       9.190 -18.428 -14.181  1.00  0.00     0.008 A
HETATM   28  C22 UNL     1       7.760 -18.819 -14.255  1.00  0.00     0.008 A
ENDBRANCH  18  26
ENDBRANCH  13  14
ENDBRANCH  12  13
ENDBRANCH  11  12
ENDBRANCH  10  11
ENDBRANCH   6  10
BRANCH   7  29
HETATM   29  N6  UNL     1      13.973 -23.999 -18.008  1.00  0.00    -0.375 N
ATOM     30  H6  UNL     1      13.036 -24.396 -18.086  1.00  0.00     0.161 HD
BRANCH  29  31
HETATM   31  C25 UNL     1      15.023 -24.547 -18.838  1.00  0.00     0.123 C
BRANCH  31  32
HETATM   32  C26 UNL     1      15.224 -23.744 -20.108  1.00  0.00     0.046 C
BRANCH  32  33
HETATM   33  C27 UNL     1      16.144 -24.503 -21.048  1.00  0.00     0.168 C
BRANCH  33  34
HETATM   34  O3  UNL     1      17.466 -24.290 -20.672  1.00  0.00    -0.396 OA
HETATM   35  C28 UNL     1      18.044 -25.540 -20.445  1.00  0.00     0.201 C
ENDBRANCH  33  34
ENDBRANCH  32  33
ENDBRANCH  31  32
ENDBRANCH  29  31
ENDBRANCH   7  29
BRANCH   1  36
HETATM   36  N2  UNL     1      16.833 -21.576 -15.413  1.00  0.00    -0.217 N
ATOM     37  H2  UNL     1      17.023 -20.689 -14.946  1.00  0.00     0.178 HD
BRANCH  36  38
HETATM   38  C3  UNL     1      17.931 -22.492 -15.551  1.00  0.00     0.240 C
BRANCH  38  39
HETATM   39  C2  UNL     1      19.191 -21.893 -15.044  1.00  0.00     0.235 C
HETATM   40  N1  UNL     1      19.343 -21.617 -13.670  1.00  0.00    -0.364 N
HETATM   41  C1  UNL     1      20.546 -21.035 -13.126  1.00  0.00     0.149 C
ATOM     42  H1  UNL     1      18.575 -21.838 -13.037  1.00  0.00     0.161 HD
HETATM   43  O1  UNL     1      20.125 -21.635 -15.876  1.00  0.00    -0.272 OA
ENDBRANCH  38  39
ENDBRANCH  36  38
ENDBRANCH   1  36
TORSDOF 16
ENDMDL