MODEL 3
REMARK VINA RESULT: -8.263895305      1.234      1.699
REMARK  16 active torsions:
REMARK  status: ('A' for Active; 'I' for Inactive)
REMARK    1  A    between atoms: O1_2  and  C2_3
REMARK       I    between atoms: C2_3  and  N1_5
REMARK    2  A    between atoms: N1_5  and  C3_7
REMARK    3  A    between atoms: C3_7  and  C4_8
REMARK    4  A    between atoms: C4_8  and  C5_9
REMARK    5  A    between atoms: C5_9  and  C6_10
REMARK       I    between atoms: C6_10  and  N2_12
REMARK       I    between atoms: N3_15  and  C9_16
REMARK    6  A    between atoms: C9_16  and  C10_18
REMARK    7  A    between atoms: C10_18  and  C11_19
REMARK    8  A    between atoms: C11_19  and  C12_20
REMARK    9  A    between atoms: C12_20  and  C13_21
REMARK   10  A    between atoms: C13_21  and  C14_22
REMARK   11  A    between atoms: C14_22  and  C15_23
REMARK   12  A    between atoms: C15_23  and  C16_24
REMARK   13  A    between atoms: C16_24  and  N4_25
REMARK       I    between atoms: N4_25  and  C17_27
REMARK       I    between atoms: C17_27  and  N5_29
REMARK   14  A    between atoms: N5_29  and  C18_31
REMARK   15  A    between atoms: C18_31  and  C19_32
REMARK   16  A    between atoms: C19_32  and  N6_33
ROOT
HETATM    1  C10 UNL     1      12.905 -22.854 -18.946  1.00  0.00     0.103 C
ENDROOT
BRANCH   1   2
HETATM    2  C9  UNL     1      11.705 -22.585 -18.163  1.00  0.00     0.219 C
HETATM    3  N3  UNL     1      10.867 -21.448 -18.444  1.00  0.00    -0.349 N
HETATM    4  C8  UNL     1      11.275 -20.570 -19.514  1.00  0.00     0.145 C
HETATM    5  C25 UNL     1       9.695 -21.231 -17.663  1.00  0.00     0.145 C
HETATM    6  C7  UNL     1      11.209 -19.129 -19.163  1.00  0.00     0.145 C
HETATM    7  N2  UNL     1      10.420 -18.904 -17.995  1.00  0.00    -0.349 N
HETATM    8  C6  UNL     1      10.772 -17.779 -17.155  1.00  0.00     0.219 C
HETATM    9  C26 UNL     1       9.314 -19.751 -17.673  1.00  0.00     0.145 C
HETATM   10  O3  UNL     1      11.733 -17.034 -17.458  1.00  0.00    -0.273 OA
HETATM   11  O4  UNL     1      11.330 -23.304 -17.220  1.00  0.00    -0.273 OA
BRANCH   8  12
HETATM   12  C5  UNL     1      10.000 -17.492 -15.932  1.00  0.00     0.104 C
BRANCH  12  13
HETATM   13  C4  UNL     1      10.813 -17.077 -14.763  1.00  0.00     0.029 C
BRANCH  13  14
HETATM   14  C3  UNL     1      10.088 -16.369 -13.674  1.00  0.00     0.125 C
BRANCH  14  15
HETATM   15  N1  UNL     1       9.583 -15.107 -14.209  1.00  0.00    -0.337 N
HETATM   16  C2  UNL     1       8.193 -14.950 -14.399  1.00  0.00     0.360 C
HETATM   17  O2  UNL     1       7.402 -15.873 -14.117  1.00  0.00    -0.239 OA
ATOM     18  H1  UNL     1      10.226 -14.350 -14.442  1.00  0.00     0.164 HD
BRANCH  16  19
HETATM   19  O1  UNL     1       7.638 -13.782 -14.902  1.00  0.00    -0.309 OA
HETATM   20  C1  UNL     1       6.260 -13.450 -14.742  1.00  0.00     0.215 C
ENDBRANCH  16  19
ENDBRANCH  14  15
ENDBRANCH  13  14
ENDBRANCH  12  13
ENDBRANCH   8  12
ENDBRANCH   1   2
BRANCH   1  21
HETATM   21  C11 UNL     1      13.953 -23.709 -18.364  1.00  0.00     0.009 C
BRANCH  21  22
HETATM   22  C12 UNL     1      14.311 -24.914 -19.178  1.00  0.00     0.000 C
BRANCH  22  23
HETATM   23  C13 UNL     1      14.888 -24.470 -20.467  1.00  0.00     0.000 C
BRANCH  23  24
HETATM   24  C14 UNL     1      16.325 -24.601 -20.673  1.00  0.00     0.002 C
BRANCH  24  25
HETATM   25  C15 UNL     1      17.025 -25.803 -20.190  1.00  0.00     0.020 C
BRANCH  25  26
HETATM   26  C16 UNL     1      18.137 -25.678 -19.221  1.00  0.00     0.124 C
BRANCH  26  27
HETATM   27  N4  UNL     1      17.534 -25.343 -17.900  1.00  0.00    -0.343 N
HETATM   28  C17 UNL     1      17.760 -24.088 -17.316  1.00  0.00     0.316 C
HETATM   29  O5  UNL     1      18.469 -23.243 -17.945  1.00  0.00    -0.247 OA
HETATM   30  N5  UNL     1      17.199 -23.798 -16.045  1.00  0.00    -0.338 N
ATOM     31  H5  UNL     1      16.629 -24.517 -15.600  1.00  0.00     0.164 HD
ATOM     32  H4  UNL     1      16.955 -26.031 -17.417  1.00  0.00     0.164 HD
BRANCH  30  33
HETATM   33  C18 UNL     1      17.384 -22.547 -15.339  1.00  0.00     0.168 C
BRANCH  33  34
HETATM   34  C19 UNL     1      16.204 -22.140 -14.534  1.00  0.00     0.077 C
BRANCH  34  35
HETATM   35  N6  UNL     1      15.109 -21.550 -15.173  1.00  0.00    -0.392 N
HETATM   36  C20 UNL     1      15.329 -20.655 -16.245  1.00  0.00     0.122 C
HETATM   37  C21 UNL     1      13.990 -20.134 -16.781  1.00  0.00     0.020 C
HETATM   38  C22 UNL     1      13.149 -19.791 -15.569  1.00  0.00     0.003 C
HETATM   39  C23 UNL     1      12.801 -21.065 -14.828  1.00  0.00     0.020 C
HETATM   40  C24 UNL     1      13.837 -22.168 -15.081  1.00  0.00     0.122 C
ENDBRANCH  34  35
ENDBRANCH  33  34
ENDBRANCH  30  33
ENDBRANCH  26  27
ENDBRANCH  25  26
ENDBRANCH  24  25
ENDBRANCH  23  24
ENDBRANCH  22  23
ENDBRANCH  21  22
ENDBRANCH   1  21
TORSDOF 16
ENDMDL