MODEL 1
REMARK VINA RESULT: -8.476591055      0.000      0.000
REMARK  15 active torsions:
REMARK  status: ('A' for Active; 'I' for Inactive)
REMARK    1  A    between atoms: C2_2  and  C3_3
REMARK    2  A    between atoms: C3_3  and  C4_4
REMARK    3  A    between atoms: C4_4  and  C5_5
REMARK    4  A    between atoms: C5_5  and  C6_6
REMARK    5  A    between atoms: C6_6  and  O1_7
REMARK    6  A    between atoms: O1_7  and  C7_8
REMARK       I    between atoms: C7_8  and  N1_10
REMARK       I    between atoms: N2_13  and  C10_14
REMARK    7  A    between atoms: C10_14  and  C11_16
REMARK    8  A    between atoms: C11_16  and  C12_17
REMARK    9  A    between atoms: C11_16  and  N6_25
REMARK   10  A    between atoms: C12_17  and  C13_18
REMARK   11  A    between atoms: C13_18  and  C14_19
REMARK   12  A    between atoms: C14_19  and  N3_20
REMARK       I    between atoms: N6_25  and  C16_27
REMARK   13  A    between atoms: C16_27  and  C17_29
REMARK   14  A    between atoms: N7_32  and  C20_33
REMARK   15  A    between atoms: C20_33  and  C21_34
ROOT
HETATM    1  C11 UNL     1      10.856 -19.941 -18.968  1.00  0.00     0.176 C
ENDROOT
BRANCH   1   2
HETATM    2  C10 UNL     1      11.540 -21.193 -18.645  1.00  0.00     0.242 C
HETATM    3  N2  UNL     1      12.824 -21.372 -18.112  1.00  0.00    -0.347 N
HETATM    4  C9  UNL     1      13.658 -20.259 -17.752  1.00  0.00     0.146 C
HETATM    5  C26 UNL     1      13.345 -22.719 -17.916  1.00  0.00     0.146 C
HETATM    6  C8  UNL     1      14.669 -20.615 -16.682  1.00  0.00     0.148 C
HETATM    7  N1  UNL     1      15.329 -21.854 -16.978  1.00  0.00    -0.325 N
HETATM    8  C7  UNL     1      16.420 -22.270 -16.161  1.00  0.00     0.362 C
HETATM    9  C27 UNL     1      14.864 -22.672 -18.109  1.00  0.00     0.148 C
HETATM   10  O2  UNL     1      16.757 -21.530 -15.208  1.00  0.00    -0.238 OA
HETATM   11  O3  UNL     1      10.882 -22.285 -18.872  1.00  0.00    -0.271 OA
BRANCH   8  12
HETATM   12  O1  UNL     1      17.117 -23.422 -16.354  1.00  0.00    -0.304 OA
BRANCH  12  13
HETATM   13  C6  UNL     1      18.349 -23.605 -16.998  1.00  0.00     0.180 C
BRANCH  13  14
HETATM   14  C5  UNL     1      18.334 -24.910 -17.746  1.00  0.00     0.027 C
BRANCH  14  15
HETATM   15  C4  UNL     1      17.603 -24.799 -19.069  1.00  0.00     0.002 C
BRANCH  15  16
HETATM   16  C3  UNL     1      18.117 -25.826 -20.016  1.00  0.00    -0.000 C
BRANCH  16  17
HETATM   17  C2  UNL     1      17.181 -25.832 -21.237  1.00  0.00    -0.005 C
HETATM   18  C1  UNL     1      16.016 -24.938 -20.865  1.00  0.00     0.005 C
ENDBRANCH  16  17
ENDBRANCH  15  16
ENDBRANCH  14  15
ENDBRANCH  13  14
ENDBRANCH  12  13
ENDBRANCH   8  12
ENDBRANCH   1   2
BRANCH   1  19
HETATM   19  C12 UNL     1       9.903 -19.935 -20.089  1.00  0.00     0.036 C
BRANCH  19  20
HETATM   20  C13 UNL     1       9.762 -18.777 -20.977  1.00  0.00     0.022 C
BRANCH  20  21
HETATM   21  C14 UNL     1       8.395 -18.205 -21.096  1.00  0.00     0.122 C
BRANCH  21  22
HETATM   22  N3  UNL     1       8.343 -16.976 -20.274  1.00  0.00    -0.367 N
HETATM   23  C15 UNL     1       7.818 -16.927 -19.121  1.00  0.00     0.196 C
HETATM   24  N4  UNL     1       7.841 -15.677 -18.446  1.00  0.00    -0.067 NA
HETATM   25  N5  UNL     1       7.212 -18.033 -18.467  1.00  0.00    -0.067 NA
ATOM     26  H3  UNL     1       8.752 -16.123 -20.656  1.00  0.00     0.161 HD
ENDBRANCH  21  22
ENDBRANCH  20  21
ENDBRANCH  19  20
ENDBRANCH   1  19
BRANCH   1  27
HETATM   27  N6  UNL     1      10.228 -19.386 -17.751  1.00  0.00    -0.347 N
HETATM   28  C16 UNL     1      10.650 -18.136 -17.265  1.00  0.00     0.222 C
HETATM   29  O4  UNL     1      11.570 -17.487 -17.875  1.00  0.00    -0.273 OA
ATOM     30  H6  UNL     1       9.494 -19.905 -17.268  1.00  0.00     0.163 HD
BRANCH  28  31
HETATM   31  C17 UNL     1      10.046 -17.558 -16.056  1.00  0.00     0.081 C
HETATM   32  C18 UNL     1      11.130 -17.192 -15.047  1.00  0.00     0.033 C
HETATM   33  C19 UNL     1      10.579 -17.049 -13.658  1.00  0.00     0.117 C
HETATM   34  N7  UNL     1       9.158 -16.862 -13.595  1.00  0.00    -0.412 N
HETATM   35  C24 UNL     1       8.381 -17.808 -14.301  1.00  0.00     0.117 C
HETATM   36  C25 UNL     1       9.146 -18.543 -15.386  1.00  0.00     0.033 C
BRANCH  34  37
HETATM   37  C20 UNL     1       8.780 -15.501 -13.649  1.00  0.00     0.121 C
BRANCH  37  38
HETATM   38  C21 UNL     1       7.387 -15.220 -14.059  1.00  0.00     0.003 A
HETATM   39  C22 UNL     1       6.744 -13.899 -13.913  1.00  0.00     0.007 A
HETATM   40  C23 UNL     1       7.245 -14.276 -15.258  1.00  0.00     0.007 A
ENDBRANCH  37  38
ENDBRANCH  34  37
ENDBRANCH  28  31
ENDBRANCH   1  27
TORSDOF 15
ENDMDL