MODEL 1
REMARK VINA RESULT: -9.116850420      0.000      0.000
REMARK  14 active torsions:
REMARK  status: ('A' for Active; 'I' for Inactive)
REMARK    1  A    between atoms: C2_2  and  C3_4
REMARK    2  A    between atoms: C3_4  and  C4_5
REMARK    3  A    between atoms: C4_5  and  C5_6
REMARK    4  A    between atoms: C5_6  and  N1_7
REMARK    5  A    between atoms: C5_6  and  C15_23
REMARK       I    between atoms: N1_7  and  C6_9
REMARK    6  A    between atoms: C6_9  and  C7_11
REMARK    7  A    between atoms: C7_11  and  C8_12
REMARK    8  A    between atoms: C8_12  and  C9_13
REMARK    9  A    between atoms: C9_13  and  C10_14
REMARK   10  A    between atoms: C10_14  and  C11_15
REMARK   11  A    between atoms: C11_15  and  N2_16
REMARK       I    between atoms: C15_23  and  N4_25
REMARK   12  A    between atoms: N4_25  and  C16_27
REMARK   13  A    between atoms: C16_27  and  C17_28
REMARK   14  A    between atoms: C17_28  and  C18_30
REMARK       I    between atoms: C18_30  and  N5_32
ROOT
HETATM    1  C5  UNL     1      17.532 -23.047 -14.618  1.00  0.00     0.177 C
ENDROOT
BRANCH   1   2
HETATM    2  C4  UNL     1      17.788 -23.634 -13.295  1.00  0.00     0.042 C
BRANCH   2   3
HETATM    3  C3  UNL     1      16.666 -24.453 -12.724  1.00  0.00     0.080 C
BRANCH   3   4
HETATM    4  C2  UNL     1      17.027 -25.897 -12.726  1.00  0.00     0.123 C
HETATM    5  C1  UNL     1      16.486 -26.767 -11.656  1.00  0.00     0.091 C
HETATM    6  O1  UNL     1      17.751 -26.320 -13.597  1.00  0.00    -0.298 OA
ENDBRANCH   3   4
ENDBRANCH   2   3
ENDBRANCH   1   2
BRANCH   1   7
HETATM    7  N1  UNL     1      16.151 -23.032 -15.049  1.00  0.00    -0.348 N
HETATM    8  C6  UNL     1      15.291 -21.925 -15.010  1.00  0.00     0.218 C
HETATM    9  O2  UNL     1      15.725 -20.829 -14.581  1.00  0.00    -0.274 OA
ATOM     10  H1  UNL     1      15.769 -23.905 -15.414  1.00  0.00     0.163 HD
BRANCH   8  11
HETATM   11  C7  UNL     1      13.901 -22.030 -15.466  1.00  0.00     0.103 C
BRANCH  11  12
HETATM   12  C8  UNL     1      13.043 -21.163 -14.530  1.00  0.00     0.009 C
BRANCH  12  13
HETATM   13  C9  UNL     1      12.393 -20.114 -15.359  1.00  0.00     0.002 C
BRANCH  13  14
HETATM   14  C10 UNL     1      11.352 -20.708 -16.243  1.00  0.00     0.020 C
BRANCH  14  15
HETATM   15  C11 UNL     1      10.162 -19.810 -16.502  1.00  0.00     0.127 C
BRANCH  15  16
HETATM   16  N2  UNL     1      10.280 -19.130 -17.769  1.00  0.00    -0.333 N
HETATM   17  C12 UNL     1       9.547 -19.407 -18.978  1.00  0.00     0.147 C
HETATM   18  C13 UNL     1      10.427 -18.876 -20.093  1.00  0.00     0.144 C
HETATM   19  N3  UNL     1      11.463 -18.074 -19.455  1.00  0.00    -0.341 N
HETATM   20  C14 UNL     1      11.147 -18.052 -18.064  1.00  0.00     0.318 C
ATOM     21  H3  UNL     1      12.254 -17.620 -19.911  1.00  0.00     0.164 HD
HETATM   22  O3  UNL     1      11.584 -17.202 -17.262  1.00  0.00    -0.247 OA
ENDBRANCH  15  16
ENDBRANCH  14  15
ENDBRANCH  13  14
ENDBRANCH  12  13
ENDBRANCH  11  12
ENDBRANCH   8  11
ENDBRANCH   1   7
BRANCH   1  23
HETATM   23  C15 UNL     1      18.331 -23.634 -15.720  1.00  0.00     0.240 C
HETATM   24  O4  UNL     1      19.394 -23.057 -16.051  1.00  0.00    -0.271 OA
HETATM   25  N4  UNL     1      17.916 -24.806 -16.376  1.00  0.00    -0.352 N
ATOM     26  H4  UNL     1      17.044 -25.283 -16.147  1.00  0.00     0.162 HD
BRANCH  25  27
HETATM   27  C16 UNL     1      18.834 -25.294 -17.420  1.00  0.00     0.211 C
BRANCH  27  28
HETATM   28  C17 UNL     1      18.018 -26.092 -18.391  1.00  0.00     0.234 C
HETATM   29  O5  UNL     1      17.878 -27.297 -18.123  1.00  0.00    -0.285 OA
BRANCH  28  30
HETATM   30  C18 UNL     1      17.467 -25.412 -19.542  1.00  0.00     0.291 C
HETATM   31  O6  UNL     1      18.291 -25.028 -20.459  1.00  0.00    -0.264 OA
HETATM   32  N5  UNL     1      16.079 -25.136 -19.733  1.00  0.00    -0.345 N
HETATM   33  C19 UNL     1      15.164 -25.425 -18.674  1.00  0.00     0.127 C
HETATM   34  C27 UNL     1      15.638 -24.597 -21.014  1.00  0.00     0.127 C
HETATM   35  C20 UNL     1      13.895 -24.646 -18.807  1.00  0.00     0.029 C
HETATM   36  C21 UNL     1      14.102 -23.349 -19.503  1.00  0.00    -0.037 C
HETATM   37  C22 UNL     1      12.824 -22.530 -19.446  1.00  0.00     0.010 C
HETATM   38  C25 UNL     1      15.133 -22.500 -18.780  1.00  0.00     0.010 C
HETATM   39  C26 UNL     1      14.608 -23.533 -20.923  1.00  0.00     0.029 C
HETATM   40  C23 UNL     1      13.185 -21.159 -18.961  1.00  0.00     0.001 C
HETATM   41  C24 UNL     1      14.669 -21.074 -19.107  1.00  0.00     0.001 C
ENDBRANCH  28  30
ENDBRANCH  27  28
ENDBRANCH  25  27
ENDBRANCH   1  23
TORSDOF 14
ENDMDL