MODEL 5
REMARK VINA RESULT: -7.447883013      3.352      9.405
REMARK  14 active torsions:
REMARK  status: ('A' for Active; 'I' for Inactive)
REMARK    1  A    between atoms: C3_3  and  N1_4
REMARK       I    between atoms: N1_4  and  C4_6
REMARK    2  A    between atoms: C4_6  and  C5_8
REMARK    3  A    between atoms: C5_8  and  C6_9
REMARK    4  A    between atoms: C5_8  and  N2_11
REMARK    5  A    between atoms: N2_11  and  C8_12
REMARK       I    between atoms: N2_11  and  C12_16
REMARK    6  A    between atoms: C8_12  and  C9_13
REMARK    7  A    between atoms: C12_16  and  C13_18
REMARK       I    between atoms: N3_22  and  C17_23
REMARK    8  A    between atoms: C17_23  and  C18_25
REMARK    9  A    between atoms: C18_25  and  C19_26
REMARK   10  A    between atoms: C18_25  and  N4_30
REMARK   11  A    between atoms: C19_26  and  C20_27
REMARK   12  A    between atoms: C20_27  and  C21_28
REMARK       I    between atoms: N4_30  and  C23_32
REMARK   13  A    between atoms: C23_32  and  C24_34
REMARK   14  A    between atoms: C24_34  and  C25_35
ROOT
HETATM    1  C1  UNL     1       3.655 -17.985 -17.938  1.00  0.00     0.014 C
HETATM    2  C2  UNL     1       4.162 -17.515 -16.966  1.00  0.00    -0.098 C
HETATM    3  C3  UNL     1       4.807 -16.946 -15.782  1.00  0.00     0.216 C
ENDROOT
BRANCH   3   4
HETATM    4  N1  UNL     1       6.106 -17.606 -15.627  1.00  0.00    -0.349 N
HETATM    5  C4  UNL     1       7.187 -16.950 -15.013  1.00  0.00     0.241 C
HETATM    6  O1  UNL     1       7.046 -15.789 -14.588  1.00  0.00    -0.271 OA
ATOM      7  H1  UNL     1       6.228 -18.559 -15.970  1.00  0.00     0.163 HD
BRANCH   5   8
HETATM    8  C5  UNL     1       8.515 -17.631 -14.856  1.00  0.00     0.179 C
BRANCH   8   9
HETATM    9  C6  UNL     1       9.265 -17.000 -13.758  1.00  0.00     0.030 C
HETATM   10  C7  UNL     1      10.754 -17.219 -13.924  1.00  0.00     0.007 C
ENDBRANCH   8   9
BRANCH   8  11
HETATM   11  N2  UNL     1       9.154 -17.823 -16.117  1.00  0.00    -0.337 N
HETATM   12  C12 UNL     1       9.296 -19.213 -16.564  1.00  0.00     0.243 C
HETATM   13  O2  UNL     1       8.894 -20.098 -15.778  1.00  0.00    -0.271 OA
BRANCH  11  14
HETATM   14  C8  UNL     1       9.643 -16.856 -17.038  1.00  0.00     0.131 C
BRANCH  14  15
HETATM   15  C9  UNL     1       8.857 -16.423 -18.198  1.00  0.00     0.004 A
HETATM   16  C10 UNL     1       7.465 -16.739 -18.580  1.00  0.00     0.007 A
HETATM   17  C11 UNL     1       7.773 -15.396 -18.038  1.00  0.00     0.007 A
ENDBRANCH  14  15
ENDBRANCH  11  14
BRANCH  12  18
HETATM   18  C13 UNL     1       9.872 -19.583 -17.856  1.00  0.00     0.179 C
HETATM   19  C14 UNL     1       8.705 -20.201 -18.651  1.00  0.00     0.037 C
HETATM   20  C15 UNL     1       9.186 -21.484 -19.231  1.00  0.00     0.022 C
HETATM   21  C16 UNL     1      10.654 -21.525 -18.928  1.00  0.00     0.127 C
HETATM   22  N3  UNL     1      10.858 -20.680 -17.774  1.00  0.00    -0.337 N
HETATM   23  C17 UNL     1      11.845 -20.837 -16.794  1.00  0.00     0.243 C
HETATM   24  O3  UNL     1      11.923 -19.903 -15.899  1.00  0.00    -0.271 OA
BRANCH  23  25
HETATM   25  C18 UNL     1      12.829 -21.918 -16.615  1.00  0.00     0.176 C
BRANCH  25  26
HETATM   26  C19 UNL     1      13.586 -21.936 -15.339  1.00  0.00     0.035 C
BRANCH  26  27
HETATM   27  C20 UNL     1      15.034 -22.290 -15.579  1.00  0.00     0.002 C
BRANCH  27  28
HETATM   28  C21 UNL     1      15.978 -21.268 -14.976  1.00  0.00    -0.004 C
HETATM   29  C22 UNL     1      15.652 -19.854 -15.343  1.00  0.00     0.005 C
ENDBRANCH  27  28
ENDBRANCH  26  27
ENDBRANCH  25  26
BRANCH  25  30
HETATM   30  N4  UNL     1      13.771 -21.936 -17.729  1.00  0.00    -0.348 N
HETATM   31  C23 UNL     1      13.966 -23.013 -18.610  1.00  0.00     0.221 C
HETATM   32  O4  UNL     1      13.294 -24.049 -18.467  1.00  0.00    -0.274 OA
ATOM     33  H4  UNL     1      14.334 -21.098 -17.880  1.00  0.00     0.163 HD
BRANCH  31  34
HETATM   34  C24 UNL     1      14.956 -22.918 -19.697  1.00  0.00     0.146 C
BRANCH  34  35
HETATM   35  C25 UNL     1      15.429 -24.293 -20.081  1.00  0.00     0.255 C
HETATM   36  N5  UNL     1      16.102 -24.364 -21.335  1.00  0.00    -0.061 N
HETATM   37  C26 UNL     1      16.898 -25.574 -21.342  1.00  0.00     0.243 C
ATOM     38  H52 UNL     1      15.466 -24.303 -22.130  1.00  0.00     0.278 HD
ATOM     39  H51 UNL     1      16.651 -23.528 -21.537  1.00  0.00     0.278 HD
HETATM   40  C27 UNL     1      17.894 -25.480 -20.204  1.00  0.00     0.103 C
HETATM   41  S1  UNL     1      16.813 -24.702 -18.940  1.00  0.00    -0.134 SA
ENDBRANCH  34  35
ENDBRANCH  31  34
ENDBRANCH  25  30
ENDBRANCH  23  25
ENDBRANCH  12  18
ENDBRANCH   8  11
ENDBRANCH   5   8
ENDBRANCH   3   4
TORSDOF 14
ENDMDL