MODEL 3
REMARK VINA RESULT: -8.198134036      2.497      9.162
REMARK  16 active torsions:
REMARK  status: ('A' for Active; 'I' for Inactive)
REMARK    1  A    between atoms: N1_4  and  C4_5
REMARK    2  A    between atoms: C4_5  and  C5_6
REMARK    3  A    between atoms: C4_5  and  C13_19
REMARK       I    between atoms: C5_6  and  N2_8
REMARK    4  A    between atoms: N2_8  and  C6_10
REMARK    5  A    between atoms: C6_10  and  C7_11
REMARK    6  A    between atoms: C7_11  and  C8_12
REMARK    7  A    between atoms: C8_12  and  N3_13
REMARK    8  A    between atoms: C20_27  and  C21_28
REMARK    9  A    between atoms: C21_28  and  C22_29
REMARK   10  A    between atoms: C22_29  and  C23_30
REMARK   11  A    between atoms: C23_30  and  C24_31
REMARK   12  A    between atoms: C24_31  and  C25_32
REMARK   13  A    between atoms: C25_32  and  C26_33
REMARK   14  A    between atoms: N5_36  and  C27_37
REMARK   15  A    between atoms: C27_37  and  C28_38
REMARK   16  A    between atoms: C28_38  and  N6_39
ROOT
HETATM    1  C1  UNL     1      10.860 -18.283 -19.841  1.00  0.00     0.045 C
HETATM    2  C2  UNL     1      11.116 -19.485 -18.916  1.00  0.00     0.238 C
HETATM    3  C3  UNL     1      12.397 -19.208 -18.218  1.00  0.00     0.162 C
HETATM    4  N1  UNL     1      12.638 -20.274 -17.235  1.00  0.00    -0.334 N
HETATM    5  C19 UNL     1      11.545 -20.448 -16.360  1.00  0.00     0.254 C
HETATM    6  O3  UNL     1      11.618 -20.929 -15.204  1.00  0.00    -0.271 OA
HETATM    7  C20 UNL     1      10.169 -20.054 -16.766  1.00  0.00     0.314 C
HETATM    8  N5  UNL     1       9.994 -19.769 -18.124  1.00  0.00     0.109 N
ENDROOT
BRANCH   4   9
HETATM    9  C4  UNL     1      13.842 -21.025 -17.172  1.00  0.00     0.183 C
BRANCH   9  10
HETATM   10  C5  UNL     1      14.316 -21.145 -15.783  1.00  0.00     0.241 C
HETATM   11  O1  UNL     1      14.943 -20.209 -15.277  1.00  0.00    -0.271 OA
HETATM   12  N2  UNL     1      14.058 -22.310 -15.037  1.00  0.00    -0.359 N
ATOM     13  H2  UNL     1      13.539 -23.073 -15.472  1.00  0.00     0.162 HD
BRANCH  12  14
HETATM   14  C6  UNL     1      14.517 -22.455 -13.651  1.00  0.00     0.124 C
BRANCH  14  15
HETATM   15  C7  UNL     1      15.319 -23.721 -13.462  1.00  0.00     0.050 C
BRANCH  15  16
HETATM   16  C8  UNL     1      16.775 -23.391 -13.486  1.00  0.00     0.274 C
BRANCH  16  17
HETATM   17  N3  UNL     1      17.279 -23.059 -14.780  1.00  0.00     0.092 N
HETATM   18  C9  UNL     1      17.923 -21.767 -14.827  1.00  0.00     0.298 C
HETATM   19  C10 UNL     1      19.422 -21.902 -14.916  1.00  0.00     0.198 C
HETATM   20  O2  UNL     1      19.840 -22.529 -16.082  1.00  0.00    -0.388 OA
HETATM   21  C11 UNL     1      18.858 -23.382 -16.544  1.00  0.00     0.198 C
HETATM   22  C12 UNL     1      18.118 -24.052 -15.378  1.00  0.00     0.298 C
ENDBRANCH  16  17
ENDBRANCH  15  16
ENDBRANCH  14  15
ENDBRANCH  12  14
ENDBRANCH   9  10
BRANCH   9  23
HETATM   23  C13 UNL     1      13.941 -22.340 -17.852  1.00  0.00     0.018 C
HETATM   24  C14 UNL     1      15.366 -22.864 -17.947  1.00  0.00     0.007 C
HETATM   25  C15 UNL     1      15.280 -24.119 -18.830  1.00  0.00     0.000 C
HETATM   26  C16 UNL     1      15.049 -23.569 -20.237  1.00  0.00     0.000 C
HETATM   27  C17 UNL     1      13.726 -22.855 -20.314  1.00  0.00     0.000 C
HETATM   28  C18 UNL     1      13.071 -22.663 -18.983  1.00  0.00     0.007 C
ENDBRANCH   9  23
ENDBRANCH   4   9
BRANCH   7  29
HETATM   29  C21 UNL     1       9.829 -18.820 -15.959  1.00  0.00     0.046 C
BRANCH  29  30
HETATM   30  C22 UNL     1       8.530 -19.066 -15.168  1.00  0.00     0.003 C
BRANCH  30  31
HETATM   31  C23 UNL     1       8.501 -18.061 -14.074  1.00  0.00     0.001 C
BRANCH  31  32
HETATM   32  C24 UNL     1       9.630 -17.110 -13.989  1.00  0.00     0.009 C
BRANCH  32  33
HETATM   33  C25 UNL     1       9.355 -15.667 -13.861  1.00  0.00     0.099 C
BRANCH  33  34
HETATM   34  C26 UNL     1       8.692 -14.978 -14.971  1.00  0.00     0.231 C
HETATM   35  N4  UNL     1       7.908 -13.788 -14.754  1.00  0.00    -0.062 NA
HETATM   36  O4  UNL     1       8.776 -15.380 -16.166  1.00  0.00    -0.277 OA
ENDBRANCH  33  34
ENDBRANCH  32  33
ENDBRANCH  31  32
ENDBRANCH  30  31
ENDBRANCH  29  30
ENDBRANCH   7  29
BRANCH   8  37
HETATM   37  C27 UNL     1       9.147 -20.777 -18.718  1.00  0.00     0.301 C
BRANCH  37  38
HETATM   38  C28 UNL     1       7.960 -20.227 -19.453  1.00  0.00     0.259 C
BRANCH  38  39
HETATM   39  N6  UNL     1       7.179 -19.339 -18.586  1.00  0.00    -0.078 N
ATOM     40  H63 UNL     1       6.176 -19.455 -18.732  1.00  0.00     0.274 HD
ATOM     41  H62 UNL     1       7.227 -19.628 -17.609  1.00  0.00     0.274 HD
ATOM     42  H61 UNL     1       7.469 -18.369 -18.708  1.00  0.00     0.274 HD
ENDBRANCH  38  39
ENDBRANCH  37  38
ENDBRANCH   8  37
TORSDOF 16
ENDMDL