MODEL 1
REMARK VINA RESULT: -8.983929867      0.000      0.000
REMARK  14 active torsions:
REMARK  status: ('A' for Active; 'I' for Inactive)
REMARK    1  A    between atoms: C1_2  and  C2_3
REMARK       I    between atoms: C1_2  and  N5_31
REMARK    2  A    between atoms: C2_3  and  C3_4
REMARK    3  A    between atoms: C3_4  and  C4_5
REMARK    4  A    between atoms: C3_4  and  N3_18
REMARK       I    between atoms: C4_5  and  N1_7
REMARK    5  A    between atoms: N1_7  and  C5_9
REMARK    6  A    between atoms: C5_9  and  C6_10
REMARK    7  A    between atoms: C6_10  and  C7_11
REMARK    8  A    between atoms: C7_11  and  N2_12
REMARK    9  A    between atoms: C14_21  and  C15_22
REMARK   10  A    between atoms: C15_22  and  C16_23
REMARK   11  A    between atoms: C16_23  and  N4_24
REMARK   12  A    between atoms: N5_31  and  C22_33
REMARK   13  A    between atoms: C22_33  and  C23_34
REMARK   14  A    between atoms: C23_34  and  C24_35
ROOT
HETATM    1  C3  UNL     1      12.197 -19.921 -16.955  1.00  0.00     0.188 C
ENDROOT
BRANCH   1   2
HETATM    2  C2  UNL     1      12.614 -20.241 -18.349  1.00  0.00     0.138 C
BRANCH   2   3
HETATM    3  C1  UNL     1      13.777 -21.094 -18.515  1.00  0.00     0.220 C
HETATM    4  O1  UNL     1      14.932 -20.629 -18.464  1.00  0.00    -0.274 OA
HETATM    5  N5  UNL     1      13.619 -22.482 -18.737  1.00  0.00    -0.361 N
ATOM      6  H5  UNL     1      12.684 -22.886 -18.781  1.00  0.00     0.162 HD
BRANCH   5   7
HETATM    7  C22 UNL     1      14.778 -23.330 -18.902  1.00  0.00     0.123 C
BRANCH   7   8
HETATM    8  C23 UNL     1      14.414 -24.766 -19.088  1.00  0.00     0.024 C
BRANCH   8   9
HETATM    9  C24 UNL     1      15.589 -25.554 -19.556  1.00  0.00    -0.010 C
HETATM   10  C25 UNL     1      16.057 -25.078 -20.932  1.00  0.00     0.032 C
HETATM   11  C26 UNL     1      17.223 -25.923 -21.367  1.00  0.00     0.232 C
HETATM   12  N6  UNL     1      18.324 -25.930 -20.455  1.00  0.00    -0.075 N
HETATM   13  C27 UNL     1      17.882 -26.359 -19.166  1.00  0.00     0.232 C
ATOM     14  H62 UNL     1      19.103 -26.491 -20.799  1.00  0.00     0.277 HD
ATOM     15  H61 UNL     1      18.797 -25.027 -20.418  1.00  0.00     0.277 HD
HETATM   16  C28 UNL     1      16.755 -25.462 -18.633  1.00  0.00     0.032 C
ENDBRANCH   8   9
ENDBRANCH   7   8
ENDBRANCH   5   7
ENDBRANCH   2   3
ENDBRANCH   1   2
BRANCH   1  17
HETATM   17  C4  UNL     1      12.488 -20.974 -15.958  1.00  0.00     0.241 C
HETATM   18  O2  UNL     1      12.012 -22.134 -16.023  1.00  0.00    -0.271 OA
HETATM   19  N1  UNL     1      13.357 -20.650 -14.870  1.00  0.00    -0.359 N
ATOM     20  H1  UNL     1      13.754 -19.714 -14.792  1.00  0.00     0.162 HD
BRANCH  19  21
HETATM   21  C5  UNL     1      13.669 -21.654 -13.885  1.00  0.00     0.124 C
BRANCH  21  22
HETATM   22  C6  UNL     1      14.819 -22.522 -14.273  1.00  0.00     0.039 C
BRANCH  22  23
HETATM   23  C7  UNL     1      16.006 -21.805 -14.824  1.00  0.00     0.118 C
BRANCH  23  24
HETATM   24  N2  UNL     1      17.144 -22.642 -15.036  1.00  0.00    -0.408 N
HETATM   25  C8  UNL     1      18.250 -22.420 -14.162  1.00  0.00     0.143 C
HETATM   26  C9  UNL     1      19.443 -21.811 -14.844  1.00  0.00     0.187 C
HETATM   27  O3  UNL     1      19.857 -22.551 -15.924  1.00  0.00    -0.388 OA
HETATM   28  C10 UNL     1      18.922 -23.408 -16.447  1.00  0.00     0.187 C
HETATM   29  C11 UNL     1      17.504 -22.871 -16.398  1.00  0.00     0.143 C
ENDBRANCH  23  24
ENDBRANCH  22  23
ENDBRANCH  21  22
ENDBRANCH  19  21
ENDBRANCH   1  17
BRANCH   1  30
HETATM   30  N3  UNL     1      10.842 -19.404 -16.825  1.00  0.00    -0.338 N
HETATM   31  C12 UNL     1       9.838 -19.271 -17.842  1.00  0.00     0.127 C
HETATM   32  C13 UNL     1       8.540 -18.832 -17.155  1.00  0.00     0.034 C
HETATM   33  C14 UNL     1       8.787 -19.121 -15.726  1.00  0.00     0.081 C
HETATM   34  C21 UNL     1      10.238 -18.929 -15.608  1.00  0.00     0.224 C
HETATM   35  O4  UNL     1      10.856 -18.452 -14.654  1.00  0.00    -0.273 OA
BRANCH  33  36
HETATM   36  C15 UNL     1       7.951 -18.515 -14.688  1.00  0.00     0.044 C
BRANCH  36  37
HETATM   37  C16 UNL     1       6.936 -17.514 -15.043  1.00  0.00     0.273 C
BRANCH  37  38
HETATM   38  N4  UNL     1       7.341 -16.144 -15.124  1.00  0.00     0.088 N
HETATM   39  C17 UNL     1       8.149 -15.744 -13.980  1.00  0.00     0.272 C
HETATM   40  C18 UNL     1       7.694 -14.385 -13.535  1.00  0.00     0.032 C
HETATM   41  C19 UNL     1       6.910 -13.921 -14.772  1.00  0.00     0.032 C
HETATM   42  C20 UNL     1       6.209 -15.228 -15.076  1.00  0.00     0.272 C
ENDBRANCH  37  38
ENDBRANCH  36  37
ENDBRANCH  33  36
ENDBRANCH   1  30
TORSDOF 14
ENDMDL