MODEL 2
REMARK VINA RESULT: -8.261443151      2.837      5.123
REMARK  14 active torsions:
REMARK  status: ('A' for Active; 'I' for Inactive)
REMARK    1  A    between atoms: C2_2  and  C3_3
REMARK    2  A    between atoms: C3_3  and  N1_4
REMARK       I    between atoms: N1_4  and  C4_6
REMARK    3  A    between atoms: C4_6  and  C5_8
REMARK    4  A    between atoms: C5_8  and  N2_9
REMARK       I    between atoms: N2_9  and  C6_11
REMARK    5  A    between atoms: C6_11  and  C7_13
REMARK    6  A    between atoms: C7_13  and  C8_15
REMARK    7  A    between atoms: C8_15  and  C9_16
REMARK    8  A    between atoms: C8_15  and  N3_20
REMARK    9  A    between atoms: C9_16  and  C10_17
REMARK   10  A    between atoms: C10_17  and  C11_18
REMARK       I    between atoms: N3_20  and  C13_22
REMARK   11  A    between atoms: C13_22  and  C14_24
REMARK       I    between atoms: N4_28  and  C18_29
REMARK   12  A    between atoms: C18_29  and  C19_31
REMARK   13  A    between atoms: C19_31  and  C20_32
REMARK   14  A    between atoms: C20_32  and  C21_33
REMARK       I    between atoms: N5_39  and  C27_41
ROOT
HETATM    1  N3  UNL     1       9.729 -18.246 -19.001  1.00  0.00    -0.347 N
ATOM      2  H3  UNL     1       9.472 -17.946 -18.060  1.00  0.00     0.163 HD
HETATM    3  C13 UNL     1       8.925 -17.897 -20.121  1.00  0.00     0.241 C
HETATM    4  O4  UNL     1       9.317 -18.317 -21.254  1.00  0.00    -0.271 OA
ENDROOT
BRANCH   3   5
HETATM    5  C14 UNL     1       7.683 -17.097 -20.079  1.00  0.00     0.179 C
HETATM    6  C15 UNL     1       6.706 -17.542 -21.149  1.00  0.00     0.037 C
HETATM    7  C16 UNL     1       6.287 -18.924 -20.661  1.00  0.00     0.022 C
HETATM    8  C17 UNL     1       6.144 -18.669 -19.170  1.00  0.00     0.127 C
HETATM    9  N4  UNL     1       6.991 -17.578 -18.846  1.00  0.00    -0.334 N
HETATM   10  C18 UNL     1       7.231 -16.920 -17.598  1.00  0.00     0.267 C
HETATM   11  O5  UNL     1       7.952 -15.859 -17.623  1.00  0.00    -0.266 OA
BRANCH  10  12
HETATM   12  C19 UNL     1       6.741 -17.348 -16.342  1.00  0.00     0.080 C
HETATM   13  N5  UNL     1       5.607 -16.873 -15.925  1.00  0.00    -0.326 N
HETATM   14  C27 UNL     1       4.736 -15.982 -16.503  1.00  0.00     0.218 C
ATOM     15  H5  UNL     1       5.311 -17.221 -15.012  1.00  0.00     0.168 HD
HETATM   16  C28 UNL     1       4.786 -14.532 -16.212  1.00  0.00     0.117 C
HETATM   17  O6  UNL     1       3.852 -16.382 -17.313  1.00  0.00    -0.274 OA
BRANCH  12  18
HETATM   18  C20 UNL     1       7.489 -18.249 -15.440  1.00  0.00     0.067 C
BRANCH  18  19
HETATM   19  C21 UNL     1       8.743 -17.552 -14.978  1.00  0.00    -0.009 C
HETATM   20  C22 UNL     1       8.641 -16.732 -13.748  1.00  0.00     0.005 C
HETATM   21  C23 UNL     1       9.771 -15.687 -13.851  1.00  0.00     0.000 C
HETATM   22  C24 UNL     1      11.095 -16.415 -13.883  1.00  0.00     0.000 C
HETATM   23  C25 UNL     1      11.165 -17.499 -14.908  1.00  0.00     0.000 C
HETATM   24  C26 UNL     1       9.955 -18.432 -14.890  1.00  0.00     0.005 C
ENDBRANCH  18  19
ENDBRANCH  12  18
ENDBRANCH  10  12
ENDBRANCH   3   5
BRANCH   1  25
HETATM   25  C8  UNL     1      10.918 -19.037 -19.228  1.00  0.00     0.164 C
BRANCH  25  26
HETATM   26  C7  UNL     1      12.074 -18.611 -18.399  1.00  0.00     0.238 C
HETATM   27  O3  UNL     1      12.162 -17.429 -18.038  1.00  0.00    -0.285 OA
BRANCH  26  28
HETATM   28  C6  UNL     1      13.097 -19.574 -18.012  1.00  0.00     0.289 C
HETATM   29  N2  UNL     1      13.953 -20.240 -18.924  1.00  0.00    -0.346 N
ATOM     30  H2  UNL     1      13.902 -20.064 -19.927  1.00  0.00     0.163 HD
HETATM   31  O2  UNL     1      13.202 -19.810 -16.758  1.00  0.00    -0.264 OA
BRANCH  29  32
HETATM   32  C5  UNL     1      14.904 -21.182 -18.369  1.00  0.00     0.225 C
BRANCH  32  33
HETATM   33  C4  UNL     1      14.837 -22.460 -19.084  1.00  0.00     0.235 C
HETATM   34  N1  UNL     1      15.869 -23.407 -18.847  1.00  0.00    -0.356 N
ATOM     35  H1  UNL     1      16.595 -23.172 -18.170  1.00  0.00     0.162 HD
HETATM   36  O1  UNL     1      13.886 -22.673 -19.874  1.00  0.00    -0.272 OA
BRANCH  34  37
HETATM   37  C3  UNL     1      15.943 -24.675 -19.508  1.00  0.00     0.149 C
BRANCH  37  38
HETATM   38  C2  UNL     1      16.745 -24.710 -20.741  1.00  0.00    -0.018 C
HETATM   39  C1  UNL     1      17.171 -25.808 -21.301  1.00  0.00     0.008 C
ENDBRANCH  37  38
ENDBRANCH  34  37
ENDBRANCH  32  33
ENDBRANCH  29  32
ENDBRANCH  26  28
ENDBRANCH  25  26
BRANCH  25  40
HETATM   40  C9  UNL     1      10.645 -20.519 -19.010  1.00  0.00     0.033 C
BRANCH  40  41
HETATM   41  C10 UNL     1       9.617 -20.763 -17.937  1.00  0.00     0.002 C
BRANCH  41  42
HETATM   42  C11 UNL     1      10.163 -21.689 -16.865  1.00  0.00    -0.004 C
HETATM   43  C12 UNL     1      11.141 -22.628 -17.533  1.00  0.00     0.005 C
ENDBRANCH  41  42
ENDBRANCH  40  41
ENDBRANCH  25  40
ENDBRANCH   1  25
TORSDOF 14
ENDMDL