MODEL 3
REMARK VINA RESULT: -8.129938640      2.148      7.892
REMARK  20 active torsions:
REMARK  status: ('A' for Active; 'I' for Inactive)
REMARK    1  A    between atoms: C2_2  and  N1_3
REMARK       I    between atoms: N1_3  and  C3_5
REMARK    2  A    between atoms: C3_5  and  C4_7
REMARK    3  A    between atoms: C4_7  and  C5_8
REMARK    4  A    between atoms: C5_8  and  C6_9
REMARK    5  A    between atoms: C6_9  and  C7_10
REMARK    6  A    between atoms: C8_11  and  C9_12
REMARK    7  A    between atoms: C9_12  and  C10_13
REMARK    8  A    between atoms: C11_14  and  C12_15
REMARK    9  A    between atoms: C12_15  and  C13_16
REMARK   10  A    between atoms: C13_16  and  C14_17
REMARK   11  A    between atoms: C14_17  and  C15_18
REMARK   12  A    between atoms: C15_18  and  O2_19
REMARK   13  A    between atoms: C15_18  and  N2_21
REMARK   14  A    between atoms: C16_22  and  C17_23
REMARK   15  A    between atoms: C17_23  and  C18_24
REMARK   16  A    between atoms: C18_24  and  C19_25
REMARK   17  A    between atoms: C19_25  and  N3_26
REMARK   18  A    between atoms: C27_36  and  C28_37
REMARK   19  A    between atoms: C28_37  and  O5_38
REMARK   20  A    between atoms: C29_40  and  O6_41
ROOT
HETATM    1  C10 UNL     1       8.165 -19.515 -19.856  1.00  0.00     0.050 C
HETATM    2  C11 UNL     1       9.114 -18.418 -19.530  1.00  0.00     0.132 C
HETATM    3  O4  UNL     1       8.380 -17.255 -19.593  1.00  0.00    -0.375 OA
HETATM    4  C27 UNL     1       7.036 -17.504 -19.597  1.00  0.00     0.174 C
HETATM    5  C29 UNL     1       6.809 -18.960 -19.925  1.00  0.00     0.156 C
ENDROOT
BRANCH   2   6
HETATM    6  C12 UNL     1      10.227 -18.380 -20.582  1.00  0.00     0.059 C
BRANCH   6   7
HETATM    7  C13 UNL     1      11.523 -18.224 -19.870  1.00  0.00    -0.020 C
BRANCH   7   8
HETATM    8  C14 UNL     1      11.686 -18.490 -18.599  1.00  0.00     0.052 C
BRANCH   8   9
HETATM    9  C15 UNL     1      12.879 -18.803 -17.869  1.00  0.00     0.138 C
BRANCH   9  10
HETATM   10  O2  UNL     1      13.988 -18.363 -18.396  1.00  0.00    -0.346 OA
ATOM     11  H2  UNL     1      14.749 -18.915 -18.262  1.00  0.00     0.219 HD
ENDBRANCH   9  10
BRANCH   9  12
HETATM   12  N2  UNL     1      13.003 -19.524 -16.659  1.00  0.00    -0.345 N
HETATM   13  C16 UNL     1      11.812 -19.843 -15.859  1.00  0.00     0.088 C
HETATM   14  C23 UNL     1      12.209 -20.982 -15.001  1.00  0.00     0.040 C
HETATM   15  C24 UNL     1      13.687 -20.848 -14.847  1.00  0.00     0.090 A
HETATM   16  C25 UNL     1      14.509 -21.426 -15.923  1.00  0.00     0.157 A
HETATM   17  C26 UNL     1      14.173 -20.017 -16.005  1.00  0.00     0.168 A
HETATM   18  O3  UNL     1      15.034 -22.457 -16.316  1.00  0.00    -0.295 OA
BRANCH  13  19
HETATM   19  C17 UNL     1      11.253 -18.665 -15.145  1.00  0.00     0.027 C
BRANCH  19  20
HETATM   20  C18 UNL     1       9.773 -18.440 -15.381  1.00  0.00     0.032 C
BRANCH  20  21
HETATM   21  C19 UNL     1       9.181 -17.663 -14.196  1.00  0.00     0.272 C
BRANCH  21  22
HETATM   22  N3  UNL     1       8.834 -16.314 -14.616  1.00  0.00     0.088 N
HETATM   23  C20 UNL     1       8.945 -15.402 -13.486  1.00  0.00     0.274 C
HETATM   24  C21 UNL     1       7.751 -14.667 -14.066  1.00  0.00     0.060 C
HETATM   25  C22 UNL     1       7.398 -16.059 -14.604  1.00  0.00     0.274 C
ENDBRANCH  21  22
ENDBRANCH  20  21
ENDBRANCH  19  20
ENDBRANCH  13  19
ENDBRANCH   9  12
ENDBRANCH   8   9
ENDBRANCH   7   8
ENDBRANCH   6   7
ENDBRANCH   2   6
BRANCH   1  26
HETATM   26  C9  UNL     1       8.362 -20.735 -18.992  1.00  0.00     0.036 C
BRANCH  26  27
HETATM   27  C8  UNL     1       9.651 -21.409 -19.114  1.00  0.00    -0.030 C
HETATM   28  C7  UNL     1      10.361 -21.885 -18.114  1.00  0.00    -0.031 C
BRANCH  28  29
HETATM   29  C6  UNL     1      11.684 -22.567 -18.357  1.00  0.00     0.027 C
BRANCH  29  30
HETATM   30  C5  UNL     1      12.379 -21.977 -19.535  1.00  0.00     0.013 C
BRANCH  30  31
HETATM   31  C4  UNL     1      13.865 -22.120 -19.559  1.00  0.00     0.103 C
BRANCH  31  32
HETATM   32  C3  UNL     1      14.380 -23.210 -20.409  1.00  0.00     0.217 C
HETATM   33  N1  UNL     1      15.140 -24.234 -19.771  1.00  0.00    -0.361 N
ATOM     34  H1  UNL     1      15.300 -24.180 -18.765  1.00  0.00     0.162 HD
HETATM   35  O1  UNL     1      14.195 -23.290 -21.630  1.00  0.00    -0.274 OA
BRANCH  33  36
HETATM   36  C2  UNL     1      15.691 -25.349 -20.516  1.00  0.00     0.118 C
HETATM   37  C1  UNL     1      17.148 -25.135 -20.887  1.00  0.00     0.026 C
ENDBRANCH  33  36
ENDBRANCH  31  32
ENDBRANCH  30  31
ENDBRANCH  29  30
ENDBRANCH  28  29
ENDBRANCH  26  27
ENDBRANCH   1  26
BRANCH   5  38
HETATM   38  O6  UNL     1       5.856 -19.471 -19.080  1.00  0.00    -0.392 OA
ATOM     39  H6  UNL     1       4.949 -19.227 -19.225  1.00  0.00     0.210 HD
ENDBRANCH   5  38
BRANCH   4  40
HETATM   40  C28 UNL     1       6.464 -17.131 -18.242  1.00  0.00     0.198 C
BRANCH  40  41
HETATM   41  O5  UNL     1       5.256 -16.469 -18.361  1.00  0.00    -0.398 OA
ATOM     42  H5  UNL     1       4.552 -16.944 -17.937  1.00  0.00     0.209 HD
ENDBRANCH  40  41
ENDBRANCH   4  40
TORSDOF 20
ENDMDL