MODEL 5
REMARK VINA RESULT: -8.706909539      2.198      9.923
REMARK  15 active torsions:
REMARK  status: ('A' for Active; 'I' for Inactive)
REMARK    1  A    between atoms: C2_2  and  N1_3
REMARK    2  A    between atoms: N1_3  and  C3_4
REMARK       I    between atoms: N1_3  and  C5_6
REMARK    3  A    between atoms: C5_6  and  C6_8
REMARK    4  A    between atoms: C6_8  and  N2_9
REMARK    5  A    between atoms: C6_8  and  C22_32
REMARK       I    between atoms: N2_9  and  C7_11
REMARK    6  A    between atoms: C7_11  and  C8_13
REMARK       I    between atoms: N3_16  and  C11_17
REMARK    7  A    between atoms: C11_17  and  C12_19
REMARK    8  A    between atoms: C12_19  and  C13_20
REMARK    9  A    between atoms: C12_19  and  N4_24
REMARK   10  A    between atoms: C13_20  and  C14_21
REMARK       I    between atoms: N4_24  and  C17_26
REMARK   11  A    between atoms: C17_26  and  C18_28
REMARK       I    between atoms: C22_32  and  N5_34
REMARK   12  A    between atoms: N5_34  and  C23_36
REMARK   13  A    between atoms: C23_36  and  C24_37
REMARK   14  A    between atoms: C23_36  and  C31_44
REMARK   15  A    between atoms: C24_37  and  C25_38
ROOT
HETATM    1  C6  UNL     1     -13.030  19.919 -16.041  1.00  0.00     0.269 C
ENDROOT
BRANCH   1   2
HETATM    2  C5  UNL     1     -13.648  21.114 -15.530  1.00  0.00     0.252 C
HETATM    3  N1  UNL     1     -15.057  21.351 -15.392  1.00  0.00    -0.351 N
HETATM    4  O1  UNL     1     -12.972  22.121 -15.132  1.00  0.00    -0.270 OA
BRANCH   3   5
HETATM    5  C2  UNL     1     -15.587  22.693 -15.285  1.00  0.00     0.121 C
HETATM    6  C1  UNL     1     -16.699  22.930 -16.275  1.00  0.00     0.026 C
ENDBRANCH   3   5
BRANCH   3   7
HETATM    7  C3  UNL     1     -15.938  20.206 -15.227  1.00  0.00     0.121 C
HETATM    8  C4  UNL     1     -16.331  20.223 -13.731  1.00  0.00     0.026 C
ENDBRANCH   3   7
ENDBRANCH   1   2
BRANCH   1   9
HETATM    9  N2  UNL     1     -11.709  19.635 -15.685  1.00  0.00    -0.338 N
HETATM   10  C7  UNL     1     -11.037  18.353 -15.654  1.00  0.00     0.241 C
HETATM   11  O2  UNL     1     -11.651  17.321 -16.090  1.00  0.00    -0.271 OA
ATOM     12  H2  UNL     1     -11.143  20.438 -15.409  1.00  0.00     0.163 HD
BRANCH  10  13
HETATM   13  C8  UNL     1      -9.738  18.312 -15.106  1.00  0.00     0.180 C
HETATM   14  C9  UNL     1      -8.841  19.451 -14.875  1.00  0.00     0.055 C
HETATM   15  C10 UNL     1      -7.949  18.239 -14.355  1.00  0.00     0.129 C
HETATM   16  N3  UNL     1      -8.627  17.562 -15.567  1.00  0.00    -0.337 N
HETATM   17  C11 UNL     1      -7.931  16.773 -16.499  1.00  0.00     0.243 C
HETATM   18  O3  UNL     1      -8.214  16.704 -17.682  1.00  0.00    -0.271 OA
BRANCH  17  19
HETATM   19  C12 UNL     1      -6.746  15.932 -15.975  1.00  0.00     0.177 C
BRANCH  19  20
HETATM   20  C13 UNL     1      -7.333  14.593 -15.727  1.00  0.00     0.038 C
BRANCH  20  21
HETATM   21  C14 UNL     1      -7.366  13.977 -14.417  1.00  0.00    -0.020 C
HETATM   22  C15 UNL     1      -7.774  14.787 -13.217  1.00  0.00     0.009 C
HETATM   23  C16 UNL     1      -5.841  13.672 -14.095  1.00  0.00     0.009 C
ENDBRANCH  20  21
ENDBRANCH  19  20
BRANCH  19  24
HETATM   24  N4  UNL     1      -5.567  16.056 -16.726  1.00  0.00    -0.347 N
HETATM   25  C17 UNL     1      -4.426  16.837 -16.450  1.00  0.00     0.226 C
HETATM   26  O4  UNL     1      -4.319  17.555 -15.416  1.00  0.00    -0.273 OA
ATOM     27  H4  UNL     1      -5.531  15.508 -17.586  1.00  0.00     0.163 HD
BRANCH  25  28
HETATM   28  C18 UNL     1      -3.255  16.876 -17.367  1.00  0.00     0.030 C
HETATM   29  C19 UNL     1      -2.649  18.266 -17.469  1.00  0.00     0.024 C
HETATM   30  C20 UNL     1      -3.593  16.444 -18.778  1.00  0.00     0.024 C
HETATM   31  C21 UNL     1      -2.208  15.881 -16.881  1.00  0.00     0.024 C
ENDBRANCH  25  28
ENDBRANCH  19  24
ENDBRANCH  17  19
ENDBRANCH  10  13
ENDBRANCH   1   9
BRANCH   1  32
HETATM   32  C22 UNL     1     -13.168  19.971 -17.572  1.00  0.00     0.250 C
HETATM   33  O5  UNL     1     -13.550  18.934 -18.112  1.00  0.00    -0.271 OA
HETATM   34  N5  UNL     1     -12.848  21.153 -18.166  1.00  0.00    -0.347 N
ATOM     35  H5  UNL     1     -12.457  21.823 -17.505  1.00  0.00     0.163 HD
BRANCH  34  36
HETATM   36  C23 UNL     1     -12.927  21.704 -19.544  1.00  0.00     0.154 C
BRANCH  36  37
HETATM   37  C24 UNL     1     -11.521  21.906 -19.981  1.00  0.00     0.037 C
BRANCH  37  38
HETATM   38  C25 UNL     1     -10.750  20.737 -20.485  1.00  0.00    -0.012 C
HETATM   39  C26 UNL     1     -10.037  19.876 -19.501  1.00  0.00     0.005 C
HETATM   40  C27 UNL     1      -9.923  18.488 -20.204  1.00  0.00     0.000 C
HETATM   41  C28 UNL     1      -9.413  18.662 -21.592  1.00  0.00     0.000 C
HETATM   42  C29 UNL     1      -8.840  20.027 -21.892  1.00  0.00     0.000 C
HETATM   43  C30 UNL     1      -9.687  21.191 -21.500  1.00  0.00     0.005 C
ENDBRANCH  37  38
ENDBRANCH  36  37
BRANCH  36  44
HETATM   44  C31 UNL     1     -13.797  22.849 -19.417  1.00  0.00     0.145 C
HETATM   45  C32 UNL     1     -14.663  23.403 -20.460  1.00  0.00     0.093 C
HETATM   46  O6  UNL     1     -13.842  23.413 -18.327  1.00  0.00    -0.296 OA
ENDBRANCH  36  44
ENDBRANCH  34  36
ENDBRANCH   1  32
TORSDOF 15
ENDMDL