MODEL 3
REMARK VINA RESULT: -9.212408290      2.443      6.868
REMARK  14 active torsions:
REMARK  status: ('A' for Active; 'I' for Inactive)
REMARK    1  A    between atoms: C2_2  and  N1_3
REMARK    2  A    between atoms: N2_6  and  C5_7
REMARK    3  A    between atoms: C5_7  and  C6_8
REMARK    4  A    between atoms: C6_8  and  C7_9
REMARK    5  A    between atoms: C7_9  and  N3_10
REMARK       I    between atoms: N3_10  and  C8_12
REMARK    6  A    between atoms: C8_12  and  C9_14
REMARK    7  A    between atoms: C9_14  and  C10_15
REMARK    8  A    between atoms: C10_15  and  N4_16
REMARK    9  A    between atoms: C10_15  and  C25_35
REMARK       I    between atoms: N4_16  and  C11_18
REMARK   10  A    between atoms: C11_18  and  C12_20
REMARK       I    between atoms: N5_24  and  C16_25
REMARK   11  A    between atoms: C16_25  and  C17_27
REMARK   12  A    between atoms: C17_27  and  C18_28
REMARK   13  A    between atoms: C18_28  and  C19_29
REMARK       I    between atoms: C25_35  and  N6_37
REMARK   14  A    between atoms: N6_37  and  C26_39
ROOT
HETATM    1  C10 UNL     1     -13.102  22.164 -17.066  1.00  0.00     0.185 C
ENDROOT
BRANCH   1   2
HETATM    2  C9  UNL     1     -11.838  22.893 -17.285  1.00  0.00     0.137 C
BRANCH   2   3
HETATM    3  C8  UNL     1     -10.597  22.093 -17.215  1.00  0.00     0.220 C
HETATM    4  N3  UNL     1     -10.277  21.138 -18.224  1.00  0.00    -0.361 N
ATOM      5  H3  UNL     1     -10.941  21.024 -18.990  1.00  0.00     0.162 HD
HETATM    6  O1  UNL     1      -9.821  22.264 -16.243  1.00  0.00    -0.274 OA
BRANCH   4   7
HETATM    7  C7  UNL     1      -9.108  20.332 -18.246  1.00  0.00     0.124 C
BRANCH   7   8
HETATM    8  C6  UNL     1      -9.379  18.826 -18.270  1.00  0.00     0.050 C
BRANCH   8   9
HETATM    9  C5  UNL     1      -8.905  18.196 -16.982  1.00  0.00     0.274 C
BRANCH   9  10
HETATM   10  N2  UNL     1      -9.726  18.696 -15.891  1.00  0.00     0.094 N
HETATM   11  C4  UNL     1     -10.682  17.681 -15.466  1.00  0.00     0.293 C
HETATM   12  C3  UNL     1     -10.429  17.189 -14.077  1.00  0.00     0.157 C
HETATM   13  N1  UNL     1      -9.055  16.826 -13.838  1.00  0.00    -0.371 N
HETATM   14  C33 UNL     1      -8.204  17.893 -14.151  1.00  0.00     0.093 C
HETATM   15  C32 UNL     1      -8.899  19.095 -14.761  1.00  0.00     0.317 C
BRANCH  13  16
HETATM   16  C2  UNL     1      -8.763  15.511 -14.207  1.00  0.00     0.059 C
HETATM   17  C1  UNL     1      -7.839  14.717 -13.378  1.00  0.00     0.055 C
ENDBRANCH  13  16
ENDBRANCH   9  10
ENDBRANCH   8   9
ENDBRANCH   7   8
ENDBRANCH   4   7
ENDBRANCH   2   3
ENDBRANCH   1   2
BRANCH   1  18
HETATM   18  N4  UNL     1     -13.853  22.482 -15.878  1.00  0.00    -0.346 N
HETATM   19  C11 UNL     1     -13.582  21.883 -14.628  1.00  0.00     0.241 C
HETATM   20  O2  UNL     1     -12.616  21.024 -14.526  1.00  0.00    -0.271 OA
ATOM     21  H4  UNL     1     -14.607  23.165 -15.942  1.00  0.00     0.163 HD
BRANCH  19  22
HETATM   22  C12 UNL     1     -14.311  22.148 -13.409  1.00  0.00     0.179 C
HETATM   23  C13 UNL     1     -14.613  20.865 -12.629  1.00  0.00     0.037 C
HETATM   24  C14 UNL     1     -15.847  20.359 -13.390  1.00  0.00     0.022 C
HETATM   25  C15 UNL     1     -16.466  21.610 -13.990  1.00  0.00     0.127 C
HETATM   26  N5  UNL     1     -15.629  22.696 -13.525  1.00  0.00    -0.339 N
HETATM   27  C16 UNL     1     -16.051  23.994 -13.221  1.00  0.00     0.220 C
HETATM   28  O3  UNL     1     -15.212  24.828 -12.786  1.00  0.00    -0.273 OA
BRANCH  27  29
HETATM   29  C17 UNL     1     -17.446  24.475 -13.378  1.00  0.00     0.103 C
BRANCH  29  30
HETATM   30  C18 UNL     1     -17.635  25.836 -12.705  1.00  0.00     0.014 C
BRANCH  30  31
HETATM   31  C19 UNL     1     -18.139  26.855 -13.708  1.00  0.00    -0.014 C
HETATM   32  C20 UNL     1     -18.387  26.252 -15.053  1.00  0.00     0.004 C
HETATM   33  C21 UNL     1     -19.004  27.147 -16.060  1.00  0.00     0.000 C
HETATM   34  C22 UNL     1     -19.255  28.502 -15.418  1.00  0.00     0.000 C
HETATM   35  C23 UNL     1     -20.168  28.231 -14.231  1.00  0.00     0.000 C
HETATM   36  C24 UNL     1     -19.315  27.608 -13.155  1.00  0.00     0.004 C
ENDBRANCH  30  31
ENDBRANCH  29  30
ENDBRANCH  27  29
ENDBRANCH  19  22
ENDBRANCH   1  18
BRANCH   1  37
HETATM   37  C25 UNL     1     -14.011  22.375 -18.263  1.00  0.00     0.241 C
HETATM   38  O4  UNL     1     -14.037  21.524 -19.165  1.00  0.00    -0.271 OA
HETATM   39  N6  UNL     1     -14.804  23.556 -18.301  1.00  0.00    -0.355 N
ATOM     40  H6  UNL     1     -14.752  24.230 -17.537  1.00  0.00     0.162 HD
BRANCH  39  41
HETATM   41  C26 UNL     1     -15.687  23.799 -19.425  1.00  0.00     0.084 C
HETATM   42  C27 UNL     1     -17.137  23.931 -19.030  1.00  0.00     0.025 C
HETATM   43  C28 UNL     1     -17.463  25.412 -18.859  1.00  0.00     0.002 C
HETATM   44  C29 UNL     1     -17.476  26.097 -20.226  1.00  0.00     0.000 C
HETATM   45  C30 UNL     1     -16.472  25.372 -21.121  1.00  0.00     0.002 C
HETATM   46  C31 UNL     1     -15.274  24.996 -20.248  1.00  0.00     0.025 C
ENDBRANCH  39  41
ENDBRANCH   1  37
TORSDOF 14
ENDMDL