MODEL 4
REMARK VINA RESULT: -8.445857138      2.381      9.890
REMARK  18 active torsions:
REMARK  status: ('A' for Active; 'I' for Inactive)
REMARK    1  A    between atoms: C2_2  and  C3_3
REMARK    2  A    between atoms: C6_7  and  C8_9
REMARK    3  A    between atoms: C8_9  and  C9_10
REMARK    4  A    between atoms: C8_9  and  C29_43
REMARK    5  A    between atoms: C9_10  and  O1_11
REMARK    6  A    between atoms: C9_10  and  N2_13
REMARK    7  A    between atoms: N3_16  and  C12_17
REMARK    8  A    between atoms: C12_17  and  O2_18
REMARK    9  A    between atoms: C12_17  and  C13_20
REMARK   10  A    between atoms: C13_20  and  C14_21
REMARK   11  A    between atoms: C13_20  and  N4_25
REMARK   12  A    between atoms: C14_21  and  C15_22
REMARK   13  A    between atoms: C20_29  and  C21_30
REMARK       I    between atoms: C21_30  and  N5_32
REMARK   14  A    between atoms: N5_32  and  C22_34
REMARK   15  A    between atoms: C22_34  and  C23_35
REMARK   16  A    between atoms: C22_34  and  C26_40
REMARK   17  A    between atoms: C23_35  and  C24_36
REMARK   18  A    between atoms: C24_36  and  C25_37
ROOT
HETATM    1  N2  UNL     1     -11.968  19.784 -16.006  1.00  0.00    -0.345 N
HETATM    2  C10 UNL     1     -11.714  18.806 -14.913  1.00  0.00     0.146 C
HETATM    3  C11 UNL     1     -10.267  18.380 -15.058  1.00  0.00     0.144 C
HETATM    4  N3  UNL     1     -10.198  17.586 -16.247  1.00  0.00    -0.360 N
HETATM    5  C19 UNL     1     -11.266  17.772 -17.227  1.00  0.00     0.159 C
HETATM    6  C20 UNL     1     -11.665  19.260 -17.287  1.00  0.00     0.196 C
ENDROOT
BRANCH   1   7
HETATM    7  C9  UNL     1     -12.494  20.995 -15.594  1.00  0.00     0.147 C
BRANCH   7   8
HETATM    8  C8  UNL     1     -13.777  21.631 -15.353  1.00  0.00     0.022 C
BRANCH   8   9
HETATM    9  C6  UNL     1     -14.867  21.537 -16.309  1.00  0.00     0.015 C
HETATM   10  N1  UNL     1     -15.323  22.642 -16.944  1.00  0.00    -0.379 N
HETATM   11  C3  UNL     1     -14.983  23.398 -18.016  1.00  0.00     0.085 C
HETATM   12  C5  UNL     1     -16.683  23.064 -16.957  1.00  0.00     0.125 C
HETATM   13  C4  UNL     1     -16.473  23.248 -18.455  1.00  0.00     0.045 C
HETATM   14  C7  UNL     1     -14.830  20.348 -17.254  1.00  0.00     0.068 C
BRANCH  11  15
HETATM   15  C2  UNL     1     -14.159  22.992 -19.178  1.00  0.00     0.021 C
HETATM   16  C1  UNL     1     -14.690  23.468 -20.511  1.00  0.00     0.007 C
ENDBRANCH  11  15
ENDBRANCH   8   9
BRANCH   8  17
HETATM   17  C29 UNL     1     -14.169  21.485 -13.896  1.00  0.00    -0.018 C
HETATM   18  C30 UNL     1     -14.635  22.833 -13.339  1.00  0.00     0.019 C
HETATM   19  C31 UNL     1     -15.457  20.634 -13.736  1.00  0.00     0.019 C
HETATM   20  C32 UNL     1     -13.208  20.870 -12.975  1.00  0.00     0.019 C
ENDBRANCH   8  17
ENDBRANCH   7   8
BRANCH   7  21
HETATM   21  O1  UNL     1     -11.511  21.862 -15.335  1.00  0.00    -0.346 OA
ATOM     22  H1  UNL     1     -10.969  21.966 -16.107  1.00  0.00     0.219 HD
ENDBRANCH   7  21
ENDBRANCH   1   7
BRANCH   6  23
HETATM   23  C21 UNL     1     -10.642  19.873 -18.115  1.00  0.00     0.242 C
HETATM   24  O3  UNL     1     -10.223  21.009 -17.942  1.00  0.00    -0.271 OA
HETATM   25  N5  UNL     1     -10.049  19.154 -19.228  1.00  0.00    -0.354 N
ATOM     26  H5  UNL     1     -10.368  18.202 -19.408  1.00  0.00     0.162 HD
BRANCH  25  27
HETATM   27  C22 UNL     1      -9.048  19.697 -20.082  1.00  0.00     0.088 C
BRANCH  27  28
HETATM   28  C23 UNL     1      -8.013  18.670 -20.420  1.00  0.00     0.034 C
BRANCH  28  29
HETATM   29  C24 UNL     1      -6.802  18.738 -19.536  1.00  0.00     0.101 C
BRANCH  29  30
HETATM   30  C25 UNL     1      -6.132  17.426 -19.434  1.00  0.00     0.231 C
HETATM   31  N6  UNL     1      -4.769  17.329 -19.078  1.00  0.00    -0.062 NA
HETATM   32  O4  UNL     1      -6.776  16.383 -19.666  1.00  0.00    -0.277 OA
ENDBRANCH  29  30
ENDBRANCH  28  29
ENDBRANCH  27  28
BRANCH  27  33
HETATM   33  C26 UNL     1      -9.626  20.143 -21.427  1.00  0.00     0.000 C
HETATM   34  C27 UNL     1      -9.997  21.622 -21.238  1.00  0.00     0.011 C
HETATM   35  C28 UNL     1      -8.515  20.015 -22.440  1.00  0.00     0.011 C
ENDBRANCH  27  33
ENDBRANCH  25  27
ENDBRANCH   6  23
BRANCH   4  36
HETATM   36  C12 UNL     1      -9.198  16.673 -16.514  1.00  0.00     0.136 C
BRANCH  36  37
HETATM   37  O2  UNL     1      -9.016  16.433 -17.790  1.00  0.00    -0.348 OA
ATOM     38  H2  UNL     1      -9.240  15.549 -18.057  1.00  0.00     0.219 HD
ENDBRANCH  36  37
BRANCH  36  39
HETATM   39  C13 UNL     1      -8.287  15.902 -15.670  1.00  0.00     0.151 C
BRANCH  39  40
HETATM   40  C14 UNL     1      -7.281  15.154 -16.448  1.00  0.00     0.037 C
BRANCH  40  41
HETATM   41  C15 UNL     1      -5.837  15.380 -16.057  1.00  0.00    -0.020 C
HETATM   42  C16 UNL     1      -5.577  16.774 -15.526  1.00  0.00     0.009 C
HETATM   43  C17 UNL     1      -5.184  14.296 -15.289  1.00  0.00     0.009 C
ENDBRANCH  40  41
ENDBRANCH  39  40
BRANCH  39  44
HETATM   44  N4  UNL     1      -8.972  15.157 -14.641  1.00  0.00    -0.414 N
HETATM   45  C18 UNL     1      -8.363  15.104 -13.364  1.00  0.00     0.140 C
ATOM     46  H4  UNL     1      -9.858  14.687 -14.826  1.00  0.00     0.153 HD
ENDBRANCH  39  44
ENDBRANCH  36  39
ENDBRANCH   4  36
TORSDOF 18
ENDMDL