MODEL 3
REMARK VINA RESULT: -9.046486522      1.207      1.823
REMARK  18 active torsions:
REMARK  status: ('A' for Active; 'I' for Inactive)
REMARK    1  A    between atoms: C2_2  and  C4_4
REMARK    2  A    between atoms: C4_4  and  C5_5
REMARK    3  A    between atoms: C5_5  and  N1_6
REMARK    4  A    between atoms: C5_5  and  C20_28
REMARK       I    between atoms: N1_6  and  C6_8
REMARK    5  A    between atoms: C6_8  and  C7_10
REMARK    6  A    between atoms: C7_10  and  C8_11
REMARK    7  A    between atoms: C7_10  and  N2_18
REMARK    8  A    between atoms: C8_11  and  C9_12
REMARK    9  A    between atoms: N2_18  and  C15_20
REMARK   10  A    between atoms: C15_20  and  O2_21
REMARK   11  A    between atoms: C16_23  and  N3_24
REMARK       I    between atoms: C20_28  and  N4_30
REMARK   12  A    between atoms: N4_30  and  C21_32
REMARK   13  A    between atoms: C21_32  and  C22_33
REMARK   14  A    between atoms: C21_32  and  C27_40
REMARK   15  A    between atoms: C22_33  and  O5_35
REMARK   16  A    between atoms: O5_35  and  C23_36
REMARK   17  A    between atoms: C27_40  and  O7_42
REMARK   18  A    between atoms: O7_42  and  C28_43
ROOT
HETATM    1  C5  UNL     1     -14.323  21.897 -15.738  1.00  0.00     0.177 C
ENDROOT
BRANCH   1   2
HETATM    2  C4  UNL     1     -14.261  22.409 -14.327  1.00  0.00     0.038 C
BRANCH   2   3
HETATM    3  C2  UNL     1     -14.723  21.646 -13.170  1.00  0.00    -0.020 C
HETATM    4  C1  UNL     1     -15.761  20.595 -13.546  1.00  0.00     0.009 C
HETATM    5  C3  UNL     1     -13.561  20.833 -12.546  1.00  0.00     0.009 C
ENDBRANCH   2   3
ENDBRANCH   1   2
BRANCH   1   6
HETATM    6  N1  UNL     1     -12.912  21.751 -16.116  1.00  0.00    -0.346 N
HETATM    7  C6  UNL     1     -12.429  20.581 -16.734  1.00  0.00     0.244 C
HETATM    8  O1  UNL     1     -13.250  19.721 -17.079  1.00  0.00    -0.271 OA
ATOM      9  H1  UNL     1     -12.265  22.515 -15.925  1.00  0.00     0.163 HD
BRANCH   7  10
HETATM   10  C7  UNL     1     -10.934  20.357 -16.948  1.00  0.00     0.199 C
BRANCH  10  11
HETATM   11  C8  UNL     1     -10.320  20.559 -15.649  1.00  0.00     0.010 C
BRANCH  11  12
HETATM   12  C9  UNL     1      -9.909  19.487 -14.723  1.00  0.00    -0.081 C
HETATM   13  C10 UNL     1     -10.959  18.513 -14.342  1.00  0.00     0.034 C
HETATM   14  C11 UNL     1     -10.695  17.078 -14.348  1.00  0.00     0.004 C
HETATM   15  C12 UNL     1      -9.269  16.638 -14.595  1.00  0.00     0.001 C
HETATM   16  C13 UNL     1      -8.319  17.729 -14.094  1.00  0.00     0.004 C
HETATM   17  C14 UNL     1      -8.552  18.895 -15.034  1.00  0.00     0.034 C
ENDBRANCH  11  12
ENDBRANCH  10  11
BRANCH  10  18
HETATM   18  N2  UNL     1     -10.759  19.167 -17.689  1.00  0.00    -0.353 N
ATOM     19  H2  UNL     1     -10.448  18.392 -17.105  1.00  0.00     0.162 HD
BRANCH  18  20
HETATM   20  C15 UNL     1     -10.908  18.796 -19.015  1.00  0.00     0.160 C
HETATM   21  C16 UNL     1     -10.308  19.223 -20.259  1.00  0.00     0.256 C
BRANCH  20  22
HETATM   22  O2  UNL     1     -11.795  17.837 -19.264  1.00  0.00    -0.345 OA
ATOM     23  H2  UNL     1     -12.365  17.973 -20.011  1.00  0.00     0.219 HD
ENDBRANCH  20  22
BRANCH  21  24
HETATM   24  N3  UNL     1      -9.282  20.162 -20.384  1.00  0.00    -0.055 N
HETATM   25  C17 UNL     1      -8.082  19.574 -19.732  1.00  0.00     0.277 C
HETATM   26  C18 UNL     1      -8.900  20.190 -21.840  1.00  0.00     0.277 C
HETATM   27  C19 UNL     1      -9.409  21.498 -19.992  1.00  0.00     0.277 C
ENDBRANCH  21  24
ENDBRANCH  18  20
ENDBRANCH  10  18
ENDBRANCH   7  10
ENDBRANCH   1   6
BRANCH   1  28
HETATM   28  C20 UNL     1     -15.071  22.818 -16.668  1.00  0.00     0.241 C
HETATM   29  O3  UNL     1     -14.664  23.140 -17.797  1.00  0.00    -0.271 OA
HETATM   30  N4  UNL     1     -16.277  23.293 -16.169  1.00  0.00    -0.337 N
ATOM     31  H4  UNL     1     -16.473  22.915 -15.243  1.00  0.00     0.163 HD
BRANCH  30  32
HETATM   32  C21 UNL     1     -17.311  24.165 -16.605  1.00  0.00     0.285 C
BRANCH  32  33
HETATM   33  C22 UNL     1     -18.046  23.487 -17.748  1.00  0.00     0.292 C
HETATM   34  O4  UNL     1     -18.973  22.684 -17.566  1.00  0.00    -0.262 OA
BRANCH  33  35
HETATM   35  O5  UNL     1     -17.664  23.808 -19.014  1.00  0.00    -0.314 OA
BRANCH  35  36
HETATM   36  C23 UNL     1     -16.964  24.930 -19.457  1.00  0.00     0.132 C
HETATM   37  C24 UNL     1     -16.309  24.550 -20.875  1.00  0.00     0.032 C
HETATM   38  C25 UNL     1     -16.832  25.865 -21.391  1.00  0.00     0.005 C
HETATM   39  C26 UNL     1     -17.803  25.930 -20.212  1.00  0.00     0.032 C
ENDBRANCH  35  36
ENDBRANCH  33  35
ENDBRANCH  32  33
BRANCH  32  40
HETATM   40  C27 UNL     1     -18.205  24.513 -15.482  1.00  0.00     0.292 C
HETATM   41  O6  UNL     1     -17.953  23.989 -14.375  1.00  0.00    -0.262 OA
BRANCH  40  42
HETATM   42  O7  UNL     1     -19.282  25.373 -15.591  1.00  0.00    -0.309 OA
BRANCH  42  43
HETATM   43  C28 UNL     1     -19.210  26.783 -15.517  1.00  0.00     0.060 C
HETATM   44  C29 UNL     1     -20.623  27.291 -15.362  1.00  0.00     0.045 C
HETATM   45  C30 UNL     1     -18.734  27.340 -16.874  1.00  0.00     0.045 C
HETATM   46  C31 UNL     1     -18.332  27.297 -14.424  1.00  0.00     0.045 C
ENDBRANCH  42  43
ENDBRANCH  40  42
ENDBRANCH  32  40
ENDBRANCH  30  32
ENDBRANCH   1  28
TORSDOF 18
ENDMDL