MODEL 4
REMARK VINA RESULT: -8.934843932      1.635      1.984
REMARK  17 active torsions:
REMARK  status: ('A' for Active; 'I' for Inactive)
REMARK    1  A    between atoms: C2_2  and  C4_4
REMARK    2  A    between atoms: C4_4  and  C5_5
REMARK    3  A    between atoms: C5_5  and  N1_6
REMARK    4  A    between atoms: C5_5  and  C31_44
REMARK       I    between atoms: N1_6  and  C6_8
REMARK    5  A    between atoms: C6_8  and  C7_10
REMARK    6  A    between atoms: C7_10  and  C8_11
REMARK    7  A    between atoms: C7_10  and  N2_15
REMARK    8  A    between atoms: C8_11  and  C9_12
REMARK       I    between atoms: N2_15  and  C12_17
REMARK    9  A    between atoms: C12_17  and  C13_19
REMARK   10  A    between atoms: N3_23  and  C17_24
REMARK   11  A    between atoms: C17_24  and  O3_25
REMARK   12  A    between atoms: C17_24  and  C18_27
REMARK   13  A    between atoms: C18_27  and  N4_28
REMARK   14  A    between atoms: C18_27  and  C28_41
REMARK       I    between atoms: N4_28  and  C19_30
REMARK   15  A    between atoms: C19_30  and  C20_32
REMARK   16  A    between atoms: C20_32  and  C21_33
REMARK   17  A    between atoms: C20_32  and  N5_36
ROOT
HETATM    1  C13 UNL     1     -10.658  20.974 -18.307  1.00  0.00     0.178 C
HETATM    2  C14 UNL     1     -10.116  21.523 -17.021  1.00  0.00     0.037 C
HETATM    3  C15 UNL     1     -11.097  20.835 -16.053  1.00  0.00     0.022 C
HETATM    4  C16 UNL     1     -11.257  19.441 -16.661  1.00  0.00     0.126 C
HETATM    5  N3  UNL     1     -10.738  19.514 -17.977  1.00  0.00    -0.347 N
ENDROOT
BRANCH   1   6
HETATM    6  C12 UNL     1     -12.018  21.439 -18.603  1.00  0.00     0.241 C
HETATM    7  N2  UNL     1     -12.627  22.552 -17.999  1.00  0.00    -0.346 N
ATOM      8  H2  UNL     1     -12.097  23.091 -17.314  1.00  0.00     0.163 HD
HETATM    9  O2  UNL     1     -12.706  20.794 -19.466  1.00  0.00    -0.271 OA
BRANCH   7  10
HETATM   10  C7  UNL     1     -14.009  22.972 -18.321  1.00  0.00     0.177 C
BRANCH  10  11
HETATM   11  C6  UNL     1     -14.934  22.549 -17.291  1.00  0.00     0.241 C
HETATM   12  N1  UNL     1     -15.537  23.381 -16.342  1.00  0.00    -0.346 N
ATOM     13  H1  UNL     1     -15.345  24.383 -16.342  1.00  0.00     0.163 HD
HETATM   14  O1  UNL     1     -15.211  21.280 -17.277  1.00  0.00    -0.271 OA
BRANCH  12  15
HETATM   15  C5  UNL     1     -16.465  22.788 -15.326  1.00  0.00     0.174 C
BRANCH  15  16
HETATM   16  C4  UNL     1     -15.783  22.800 -14.017  1.00  0.00     0.038 C
BRANCH  16  17
HETATM   17  C2  UNL     1     -15.331  21.504 -13.475  1.00  0.00    -0.020 C
HETATM   18  C1  UNL     1     -13.928  21.077 -13.706  1.00  0.00     0.009 C
HETATM   19  C3  UNL     1     -16.249  20.365 -13.993  1.00  0.00     0.009 C
ENDBRANCH  16  17
ENDBRANCH  15  16
BRANCH  15  20
HETATM   20  C31 UNL     1     -17.764  23.466 -15.440  1.00  0.00     0.254 C
HETATM   21  N6  UNL     1     -18.617  23.354 -16.599  1.00  0.00    -0.060 NA
HETATM   22  O5  UNL     1     -18.227  24.216 -14.514  1.00  0.00    -0.275 OA
ENDBRANCH  15  20
ENDBRANCH  12  15
ENDBRANCH  10  11
BRANCH  10  23
HETATM   23  C8  UNL     1     -14.021  24.443 -18.550  1.00  0.00     0.038 C
BRANCH  23  24
HETATM   24  C9  UNL     1     -14.792  24.925 -19.716  1.00  0.00    -0.020 C
HETATM   25  C10 UNL     1     -16.207  25.359 -19.347  1.00  0.00     0.009 C
HETATM   26  C11 UNL     1     -14.902  23.777 -20.727  1.00  0.00     0.009 C
ENDBRANCH  23  24
ENDBRANCH  10  23
ENDBRANCH   7  10
ENDBRANCH   1   6
BRANCH   5  27
HETATM   27  C17 UNL     1     -10.274  18.532 -18.881  1.00  0.00     0.162 C
BRANCH  27  28
HETATM   28  O3  UNL     1     -11.209  18.169 -19.744  1.00  0.00    -0.345 OA
ATOM     29  H3  UNL     1     -11.120  18.616 -20.577  1.00  0.00     0.219 HD
ENDBRANCH  27  28
BRANCH  27  30
HETATM   30  C18 UNL     1      -9.008  17.854 -19.057  1.00  0.00     0.066 C
BRANCH  30  31
HETATM   31  N4  UNL     1      -8.682  17.006 -18.221  1.00  0.00    -0.325 N
HETATM   32  C19 UNL     1      -7.983  15.994 -17.731  1.00  0.00     0.256 C
HETATM   33  O4  UNL     1      -7.980  14.851 -18.330  1.00  0.00    -0.271 OA
ATOM     34  H4  UNL     1      -9.333  17.199 -17.460  1.00  0.00     0.169 HD
BRANCH  32  35
HETATM   35  C20 UNL     1      -7.131  16.054 -16.453  1.00  0.00     0.317 C
BRANCH  35  36
HETATM   36  C21 UNL     1      -8.060  15.801 -15.336  1.00  0.00     0.020 C
HETATM   37  C22 UNL     1      -7.953  16.966 -14.324  1.00  0.00     0.012 C
HETATM   38  C23 UNL     1      -7.985  14.502 -14.610  1.00  0.00     0.012 C
ENDBRANCH  35  36
BRANCH  35  39
HETATM   39  N5  UNL     1      -5.986  15.279 -16.643  1.00  0.00     0.102 N
HETATM   40  C24 UNL     1      -5.159  15.991 -17.669  1.00  0.00     0.273 C
HETATM   41  C25 UNL     1      -4.489  17.057 -16.840  1.00  0.00     0.032 C
HETATM   42  C26 UNL     1      -4.331  16.472 -15.458  1.00  0.00     0.032 C
HETATM   43  C27 UNL     1      -5.009  15.122 -15.637  1.00  0.00     0.273 C
ENDBRANCH  35  39
ENDBRANCH  32  35
ENDBRANCH  30  31
BRANCH  30  44
HETATM   44  C28 UNL     1      -8.114  18.247 -20.164  1.00  0.00     0.032 C
HETATM   45  C29 UNL     1      -6.776  18.781 -19.601  1.00  0.00     0.016 C
HETATM   46  C30 UNL     1      -7.745  17.116 -21.101  1.00  0.00     0.016 C
ENDBRANCH  30  44
ENDBRANCH  27  30
ENDBRANCH   5  27
TORSDOF 17
ENDMDL