MODEL 3
REMARK VINA RESULT: -9.217160537      1.668      3.579
REMARK  20 active torsions:
REMARK  status: ('A' for Active; 'I' for Inactive)
REMARK    1  A    between atoms: C2_2  and  C3_3
REMARK    2  A    between atoms: C3_3  and  C4_4
REMARK    3  A    between atoms: C4_4  and  C24_36
REMARK    4  A    between atoms: N1_5  and  C5_7
REMARK    5  A    between atoms: C5_7  and  O1_8
REMARK    6  A    between atoms: C5_7  and  C6_10
REMARK    7  A    between atoms: C6_10  and  N2_11
REMARK    8  A    between atoms: C6_10  and  C20_32
REMARK    9  A    between atoms: N2_11  and  C7_14
REMARK   10  A    between atoms: C7_14  and  C8_15
REMARK   11  A    between atoms: C7_14  and  C12_19
REMARK   12  A    between atoms: C8_15  and  C9_16
REMARK       I    between atoms: C12_19  and  N3_21
REMARK   13  A    between atoms: N3_21  and  C13_23
REMARK   14  A    between atoms: C13_23  and  O3_24
REMARK   15  A    between atoms: C13_23  and  C14_26
REMARK   16  A    between atoms: C20_32  and  C22_34
REMARK       I    between atoms: C24_36  and  N4_38
REMARK   17  A    between atoms: N4_38  and  C25_40
REMARK   18  A    between atoms: C25_40  and  C27_42
REMARK   19  A    between atoms: C27_42  and  O5_43
REMARK   20  A    between atoms: C27_42  and  N5_45
ROOT
HETATM    1  C6  UNL     1     -11.346  19.427 -18.114  1.00  0.00     0.264 C
ENDROOT
BRANCH   1   2
HETATM    2  C5  UNL     1     -12.654  19.872 -18.590  1.00  0.00     0.147 C
BRANCH   2   3
HETATM    3  N1  UNL     1     -13.057  20.856 -19.458  1.00  0.00    -0.338 N
HETATM    4  C4  UNL     1     -13.754  21.933 -19.283  1.00  0.00     0.079 C
ATOM      5  H1  UNL     1     -12.750  20.712 -20.420  1.00  0.00     0.167 HD
BRANCH   4   6
HETATM    6  C3  UNL     1     -13.967  22.717 -20.548  1.00  0.00     0.062 C
BRANCH   6   7
HETATM    7  C2  UNL     1     -15.189  23.529 -20.627  1.00  0.00     0.002 C
HETATM    8  C1  UNL     1     -15.027  25.001 -20.377  1.00  0.00     0.005 C
ENDBRANCH   6   7
ENDBRANCH   4   6
BRANCH   4   9
HETATM    9  C24 UNL     1     -14.316  22.412 -18.059  1.00  0.00     0.264 C
HETATM   10  O4  UNL     1     -13.742  23.296 -17.342  1.00  0.00    -0.266 OA
HETATM   11  N4  UNL     1     -15.535  21.936 -17.558  1.00  0.00    -0.344 N
ATOM     12  H4  UNL     1     -16.077  21.239 -18.069  1.00  0.00     0.163 HD
BRANCH  11  13
HETATM   13  C25 UNL     1     -16.010  22.471 -16.274  1.00  0.00     0.155 C
HETATM   14  C26 UNL     1     -17.316  23.224 -16.576  1.00  0.00     0.041 C
BRANCH  13  15
HETATM   15  C27 UNL     1     -16.213  21.421 -15.287  1.00  0.00     0.136 C
BRANCH  15  16
HETATM   16  O5  UNL     1     -17.406  20.904 -15.182  1.00  0.00    -0.348 OA
ATOM     17  H5  UNL     1     -17.810  20.886 -14.323  1.00  0.00     0.219 HD
ENDBRANCH  15  16
BRANCH  15  18
HETATM   18  N5  UNL     1     -15.235  20.907 -14.429  1.00  0.00    -0.360 N
HETATM   19  C28 UNL     1     -13.876  20.726 -14.868  1.00  0.00     0.151 C
HETATM   20  C29 UNL     1     -12.958  21.128 -13.738  1.00  0.00     0.187 C
HETATM   21  O6  UNL     1     -13.292  20.325 -12.620  1.00  0.00    -0.388 OA
HETATM   22  C30 UNL     1     -14.470  20.876 -12.111  1.00  0.00     0.187 C
HETATM   23  C31 UNL     1     -15.632  20.585 -13.041  1.00  0.00     0.151 C
ENDBRANCH  15  18
ENDBRANCH  13  15
ENDBRANCH  11  13
ENDBRANCH   4   9
ENDBRANCH   2   3
BRANCH   2  24
HETATM   24  O1  UNL     1     -13.700  19.198 -18.110  1.00  0.00    -0.348 OA
ATOM     25  H1  UNL     1     -13.424  18.393 -17.688  1.00  0.00     0.219 HD
ENDBRANCH   2  24
ENDBRANCH   1   2
BRANCH   1  26
HETATM   26  N2  UNL     1     -11.007  18.185 -18.859  1.00  0.00    -0.050 N
ATOM     27  H22 UNL     1     -11.061  17.357 -18.265  1.00  0.00     0.279 HD
ATOM     28  H21 UNL     1     -11.731  17.935 -19.532  1.00  0.00     0.279 HD
BRANCH  26  29
HETATM   29  C7  UNL     1      -9.665  18.318 -19.508  1.00  0.00     0.278 C
BRANCH  29  30
HETATM   30  C8  UNL     1      -9.551  19.728 -19.868  1.00  0.00     0.046 C
BRANCH  30  31
HETATM   31  C9  UNL     1      -9.928  20.263 -21.193  1.00  0.00    -0.020 C
HETATM   32  C10 UNL     1     -10.040  21.811 -21.002  1.00  0.00     0.009 C
HETATM   33  C11 UNL     1      -8.742  20.181 -22.191  1.00  0.00     0.009 C
ENDBRANCH  30  31
ENDBRANCH  29  30
BRANCH  29  34
HETATM   34  C12 UNL     1      -8.701  17.669 -18.649  1.00  0.00     0.254 C
HETATM   35  O2  UNL     1      -7.707  18.384 -18.294  1.00  0.00    -0.271 OA
HETATM   36  N3  UNL     1      -8.780  16.351 -18.173  1.00  0.00    -0.309 N
ATOM     37  H3  UNL     1      -9.552  15.824 -18.581  1.00  0.00     0.170 HD
BRANCH  36  38
HETATM   38  C13 UNL     1      -8.035  15.610 -17.266  1.00  0.00     0.122 C
BRANCH  38  39
HETATM   39  O3  UNL     1      -7.154  14.822 -17.890  1.00  0.00    -0.349 OA
ATOM     40  H3  UNL     1      -7.493  13.942 -17.999  1.00  0.00     0.219 HD
ENDBRANCH  38  39
BRANCH  38  41
HETATM   41  C14 UNL     1      -7.978  15.470 -15.842  1.00  0.00     0.060 C
HETATM   42  C15 UNL     1      -7.990  16.787 -15.068  1.00  0.00     0.013 C
HETATM   43  C16 UNL     1      -8.522  16.456 -13.677  1.00  0.00     0.001 C
HETATM   44  C17 UNL     1      -8.436  15.014 -13.320  1.00  0.00     0.000 C
HETATM   45  C18 UNL     1      -7.244  14.267 -13.812  1.00  0.00     0.001 C
HETATM   46  C19 UNL     1      -6.933  14.567 -15.296  1.00  0.00     0.013 C
ENDBRANCH  38  41
ENDBRANCH  36  38
ENDBRANCH  29  34
ENDBRANCH  26  29
ENDBRANCH   1  26
BRANCH   1  47
HETATM   47  C20 UNL     1     -11.241  19.178 -16.666  1.00  0.00     0.020 C
HETATM   48  C21 UNL     1     -11.464  17.731 -16.328  1.00  0.00     0.012 C
BRANCH  47  49
HETATM   49  C22 UNL     1     -10.118  19.835 -15.920  1.00  0.00     0.002 C
HETATM   50  C23 UNL     1      -9.830  21.227 -16.505  1.00  0.00     0.005 C
ENDBRANCH  47  49
ENDBRANCH   1  47
TORSDOF 20
ENDMDL