MODEL 1
REMARK VINA RESULT: -10.257025083      0.000      0.000
REMARK  13 active torsions:
REMARK  status: ('A' for Active; 'I' for Inactive)
REMARK    1  A    between atoms: C3_3  and  O1_4
REMARK    2  A    between atoms: C3_3  and  C4_6
REMARK    3  A    between atoms: C4_6  and  N1_7
REMARK       I    between atoms: N1_7  and  C5_9
REMARK    4  A    between atoms: C5_9  and  C6_11
REMARK    5  A    between atoms: C6_11  and  C7_12
REMARK    6  A    between atoms: C7_12  and  C8_13
REMARK       I    between atoms: N2_19  and  C14_21
REMARK    7  A    between atoms: C14_21  and  C15_23
REMARK    8  A    between atoms: C16_24  and  C17_25
REMARK    9  A    between atoms: C20_28  and  O4_29
REMARK   10  A    between atoms: C20_28  and  N3_31
REMARK   11  A    between atoms: C24_35  and  C25_36
REMARK       I    between atoms: C25_36  and  N4_38
REMARK   12  A    between atoms: N4_38  and  C26_39
REMARK   13  A    between atoms: C26_39  and  C28_41
REMARK       I    between atoms: C28_41  and  N5_43
ROOT
HETATM    1  C4  UNL     1      -9.729  19.220 -18.010  1.00  0.00     0.119 C
HETATM    2  C20 UNL     1      -8.902  18.349 -18.793  1.00  0.00     0.169 C
ENDROOT
BRANCH   1   3
HETATM    3  C3  UNL     1      -9.433  19.647 -16.672  1.00  0.00     0.092 C
HETATM    4  C2  UNL     1      -9.247  19.732 -15.301  1.00  0.00     0.008 C
HETATM    5  C1  UNL     1      -8.756  18.395 -14.771  1.00  0.00     0.039 C
BRANCH   3   6
HETATM    6  O1  UNL     1      -9.004  21.136 -17.014  1.00  0.00    -0.359 OA
ATOM      7  H1  UNL     1      -8.606  20.949 -17.855  1.00  0.00     0.217 HD
ENDBRANCH   3   6
ENDBRANCH   1   3
BRANCH   1   8
HETATM    8  N1  UNL     1     -10.779  20.053 -18.483  1.00  0.00    -0.316 N
HETATM    9  C5  UNL     1     -11.505  20.710 -19.433  1.00  0.00     0.268 C
HETATM   10  O2  UNL     1     -11.322  20.947 -20.631  1.00  0.00    -0.266 OA
ATOM     11  H1  UNL     1     -11.267  20.300 -17.622  1.00  0.00     0.169 HD
BRANCH   9  12
HETATM   12  C6  UNL     1     -12.855  21.257 -18.921  1.00  0.00     0.081 C
HETATM   13  N2  UNL     1     -13.011  21.555 -17.668  1.00  0.00    -0.322 N
HETATM   14  C14 UNL     1     -12.526  21.873 -16.381  1.00  0.00     0.245 C
ATOM     15  H2  UNL     1     -14.024  21.566 -17.550  1.00  0.00     0.169 HD
HETATM   16  O3  UNL     1     -11.508  22.242 -15.927  1.00  0.00    -0.268 OA
BRANCH  12  17
HETATM   17  C7  UNL     1     -13.670  21.775 -20.043  1.00  0.00     0.067 C
BRANCH  17  18
HETATM   18  C8  UNL     1     -14.565  22.934 -19.773  1.00  0.00    -0.009 C
HETATM   19  C9  UNL     1     -14.944  23.816 -20.853  1.00  0.00     0.005 C
HETATM   20  C10 UNL     1     -15.092  25.277 -20.234  1.00  0.00     0.000 C
HETATM   21  C11 UNL     1     -16.273  25.173 -19.334  1.00  0.00     0.000 C
HETATM   22  C12 UNL     1     -16.704  23.826 -18.897  1.00  0.00     0.000 C
HETATM   23  C13 UNL     1     -15.669  22.755 -18.736  1.00  0.00     0.005 C
ENDBRANCH  17  18
ENDBRANCH  12  17
BRANCH  14  24
HETATM   24  C15 UNL     1     -13.670  21.605 -15.433  1.00  0.00     0.071 C
HETATM   25  C16 UNL     1     -14.014  21.850 -14.132  1.00  0.00    -0.017 C
BRANCH  25  26
HETATM   26  C17 UNL     1     -13.353  21.313 -12.947  1.00  0.00    -0.000 C
HETATM   27  C18 UNL     1     -12.558  19.998 -13.308  1.00  0.00     0.013 C
HETATM   28  C19 UNL     1     -14.487  20.717 -12.072  1.00  0.00     0.013 C
ENDBRANCH  25  26
ENDBRANCH  14  24
ENDBRANCH   9  12
ENDBRANCH   1   8
BRANCH   2  29
HETATM   29  O4  UNL     1      -9.575  17.680 -19.707  1.00  0.00    -0.344 OA
ATOM     30  H4  UNL     1      -9.025  17.349 -20.407  1.00  0.00     0.219 HD
ENDBRANCH   2  29
BRANCH   2  31
HETATM   31  N3  UNL     1      -7.538  18.076 -18.746  1.00  0.00    -0.345 N
HETATM   32  C21 UNL     1      -6.429  18.894 -19.421  1.00  0.00     0.126 C
HETATM   33  C22 UNL     1      -5.655  17.719 -20.045  1.00  0.00     0.022 C
HETATM   34  C23 UNL     1      -5.625  16.761 -18.960  1.00  0.00     0.038 C
HETATM   35  C24 UNL     1      -6.841  17.111 -18.068  1.00  0.00     0.193 C
BRANCH  35  36
HETATM   36  C25 UNL     1      -7.450  15.723 -17.695  1.00  0.00     0.310 C
HETATM   37  O5  UNL     1      -8.146  15.153 -18.441  1.00  0.00    -0.255 OA
HETATM   38  N4  UNL     1      -6.961  15.507 -16.402  1.00  0.00    -0.399 NA
BRANCH  38  39
HETATM   39  C26 UNL     1      -6.507  15.284 -15.176  1.00  0.00     0.254 C
HETATM   40  C27 UNL     1      -7.487  14.226 -14.507  1.00  0.00     0.058 C
BRANCH  39  41
HETATM   41  C28 UNL     1      -5.157  14.766 -14.899  1.00  0.00     0.255 C
HETATM   42  O6  UNL     1      -5.084  13.562 -14.462  1.00  0.00    -0.270 OA
HETATM   43  N5  UNL     1      -3.921  15.399 -15.075  1.00  0.00    -0.349 N
HETATM   44  C29 UNL     1      -2.557  14.976 -14.889  1.00  0.00     0.126 C
HETATM   45  C32 UNL     1      -3.828  16.822 -15.497  1.00  0.00     0.126 C
HETATM   46  C30 UNL     1      -1.730  15.789 -15.827  1.00  0.00     0.021 C
HETATM   47  C31 UNL     1      -2.542  16.945 -16.276  1.00  0.00     0.021 C
ENDBRANCH  39  41
ENDBRANCH  38  39
ENDBRANCH  35  36
ENDBRANCH   2  31
TORSDOF 13
ENDMDL