MODEL 2
REMARK VINA RESULT: -9.713437952      3.086     10.655
REMARK  15 active torsions:
REMARK  status: ('A' for Active; 'I' for Inactive)
REMARK    1  A    between atoms: C2_2  and  C3_3
REMARK    2  A    between atoms: C3_3  and  C4_4
REMARK    3  A    between atoms: C4_4  and  N1_5
REMARK    4  A    between atoms: C4_4  and  C25_40
REMARK       I    between atoms: N1_5  and  C5_7
REMARK    5  A    between atoms: C5_7  and  C6_9
REMARK    6  A    between atoms: C6_9  and  C7_10
REMARK    7  A    between atoms: C6_9  and  N2_17
REMARK    8  A    between atoms: C7_10  and  C8_11
REMARK       I    between atoms: N2_17  and  C14_19
REMARK    9  A    between atoms: C14_19  and  C15_21
REMARK       I    between atoms: N3_25  and  C19_26
REMARK   10  A    between atoms: C19_26  and  C20_28
REMARK   11  A    between atoms: C20_28  and  C21_29
REMARK   12  A    between atoms: C20_28  and  N4_33
REMARK   13  A    between atoms: C21_29  and  C22_30
REMARK   14  A    between atoms: N4_33  and  N5_35
REMARK       I    between atoms: C25_40  and  N7_42
REMARK   15  A    between atoms: C29_46  and  C30_47
ROOT
HETATM    1  C6  UNL     1      -9.851  19.439 -15.674  1.00  0.00     0.177 C
ENDROOT
BRANCH   1   2
HETATM    2  C5  UNL     1      -9.540  20.003 -17.075  1.00  0.00     0.241 C
HETATM    3  N1  UNL     1      -9.596  19.116 -18.151  1.00  0.00    -0.346 N
ATOM      4  H1  UNL     1      -9.833  18.140 -17.975  1.00  0.00     0.163 HD
HETATM    5  O1  UNL     1      -9.257  21.188 -17.195  1.00  0.00    -0.271 OA
BRANCH   3   6
HETATM    6  C4  UNL     1      -9.325  19.546 -19.532  1.00  0.00     0.176 C
BRANCH   6   7
HETATM    7  C3  UNL     1     -10.616  19.855 -20.195  1.00  0.00     0.034 C
BRANCH   7   8
HETATM    8  C2  UNL     1     -10.889  21.319 -20.282  1.00  0.00    -0.002 C
HETATM    9  C1  UNL     1     -12.374  21.643 -20.346  1.00  0.00     0.005 C
ENDBRANCH   7   8
ENDBRANCH   6   7
BRANCH   6  10
HETATM   10  C25 UNL     1      -8.571  18.415 -20.186  1.00  0.00     0.243 C
HETATM   11  O4  UNL     1      -9.196  17.533 -20.824  1.00  0.00    -0.271 OA
HETATM   12  N7  UNL     1      -7.160  18.304 -20.104  1.00  0.00    -0.337 N
HETATM   13  C26 UNL     1      -6.330  19.271 -19.390  1.00  0.00     0.127 C
HETATM   14  C29 UNL     1      -6.306  17.270 -20.649  1.00  0.00     0.176 C
HETATM   15  C27 UNL     1      -5.122  18.451 -18.961  1.00  0.00     0.022 C
HETATM   16  C28 UNL     1      -4.922  17.594 -20.171  1.00  0.00     0.036 C
BRANCH  14  17
HETATM   17  C30 UNL     1      -6.380  17.137 -22.110  1.00  0.00     0.254 C
HETATM   18  N8  UNL     1      -7.112  16.076 -22.690  1.00  0.00    -0.060 NA
HETATM   19  O5  UNL     1      -5.804  17.952 -22.854  1.00  0.00    -0.275 OA
ENDBRANCH  14  17
ENDBRANCH   6  10
ENDBRANCH   3   6
ENDBRANCH   1   2
BRANCH   1  20
HETATM   20  C7  UNL     1      -8.609  19.211 -14.957  1.00  0.00     0.039 C
BRANCH  20  21
HETATM   21  C8  UNL     1      -8.363  17.873 -14.369  1.00  0.00    -0.012 C
HETATM   22  C9  UNL     1      -9.698  17.092 -14.338  1.00  0.00     0.005 C
HETATM   23  C10 UNL     1      -9.458  15.831 -13.567  1.00  0.00     0.000 C
HETATM   24  C11 UNL     1      -8.417  14.965 -14.284  1.00  0.00     0.000 C
HETATM   25  C12 UNL     1      -7.144  15.706 -14.377  1.00  0.00     0.000 C
HETATM   26  C13 UNL     1      -7.349  17.046 -15.070  1.00  0.00     0.005 C
ENDBRANCH  20  21
ENDBRANCH   1  20
BRANCH   1  27
HETATM   27  N2  UNL     1     -10.700  20.467 -15.057  1.00  0.00    -0.346 N
HETATM   28  C14 UNL     1     -12.109  20.243 -15.001  1.00  0.00     0.241 C
HETATM   29  O2  UNL     1     -12.622  19.221 -15.443  1.00  0.00    -0.271 OA
ATOM     30  H2  UNL     1     -10.293  21.321 -14.678  1.00  0.00     0.163 HD
BRANCH  28  31
HETATM   31  C15 UNL     1     -12.903  21.345 -14.371  1.00  0.00     0.179 C
HETATM   32  C16 UNL     1     -13.511  20.907 -13.081  1.00  0.00     0.037 C
HETATM   33  C17 UNL     1     -14.996  20.842 -13.368  1.00  0.00     0.022 C
HETATM   34  C18 UNL     1     -15.172  21.941 -14.402  1.00  0.00     0.127 C
HETATM   35  N3  UNL     1     -13.954  21.850 -15.192  1.00  0.00    -0.337 N
HETATM   36  C19 UNL     1     -13.819  22.225 -16.571  1.00  0.00     0.244 C
HETATM   37  O3  UNL     1     -12.705  22.120 -17.134  1.00  0.00    -0.271 OA
BRANCH  36  38
HETATM   38  C20 UNL     1     -14.960  22.743 -17.382  1.00  0.00     0.193 C
BRANCH  38  39
HETATM   39  C21 UNL     1     -14.443  23.799 -18.331  1.00  0.00     0.040 C
BRANCH  39  40
HETATM   40  C22 UNL     1     -15.459  24.273 -19.335  1.00  0.00    -0.020 C
HETATM   41  C23 UNL     1     -15.027  24.156 -20.773  1.00  0.00     0.009 C
HETATM   42  C24 UNL     1     -15.824  25.723 -19.082  1.00  0.00     0.009 C
ENDBRANCH  39  40
ENDBRANCH  38  39
BRANCH  38  43
HETATM   43  N4  UNL     1     -15.505  21.643 -18.194  1.00  0.00    -0.309 N
ATOM     44  H4  UNL     1     -16.227  21.823 -18.891  1.00  0.00     0.182 HD
BRANCH  43  45
HETATM   45  N5  UNL     1     -15.068  20.482 -18.015  1.00  0.00    -0.253 N
HETATM   46  N6  UNL     1     -14.366  19.460 -18.187  1.00  0.00    -0.331 N
ATOM     47  H62 UNL     1     -13.804  19.812 -18.961  1.00  0.00     0.178 HD
ATOM     48  H61 UNL     1     -14.010  18.515 -18.042  1.00  0.00     0.178 HD
ATOM     49  H5  UNL     1     -15.656  20.177 -17.240  1.00  0.00     0.207 HD
ENDBRANCH  43  45
ENDBRANCH  38  43
ENDBRANCH  36  38
ENDBRANCH  28  31
ENDBRANCH   1  27
TORSDOF 15
ENDMDL