MODEL 3
REMARK VINA RESULT: -9.220003829      2.358      4.895
REMARK  14 active torsions:
REMARK  status: ('A' for Active; 'I' for Inactive)
REMARK    1  A    between atoms: C2_2  and  C3_3
REMARK    2  A    between atoms: C3_3  and  C4_4
REMARK    3  A    between atoms: C4_4  and  N1_5
REMARK       I    between atoms: N1_5  and  C5_7
REMARK    4  A    between atoms: C5_7  and  C6_9
REMARK       I    between atoms: N2_11  and  C8_12
REMARK    5  A    between atoms: C8_12  and  C9_14
REMARK    6  A    between atoms: C9_14  and  N3_15
REMARK    7  A    between atoms: C9_14  and  C22_34
REMARK       I    between atoms: N3_15  and  C10_17
REMARK    8  A    between atoms: C10_17  and  C11_19
REMARK    9  A    between atoms: C11_19  and  C12_20
REMARK   10  A    between atoms: C11_19  and  N4_24
REMARK   11  A    between atoms: C12_20  and  C13_21
REMARK   12  A    between atoms: C13_21  and  C14_22
REMARK       I    between atoms: N4_24  and  C16_26
REMARK   13  A    between atoms: C16_26  and  C17_28
REMARK   14  A    between atoms: C22_34  and  C24_36
ROOT
HETATM    1  C9  UNL     1     -14.724  22.267 -17.228  1.00  0.00     0.180 C
ENDROOT
BRANCH   1   2
HETATM    2  C8  UNL     1     -13.335  22.717 -17.107  1.00  0.00     0.243 C
HETATM    3  N2  UNL     1     -12.257  21.975 -16.574  1.00  0.00    -0.349 N
HETATM    4  C7  UNL     1     -12.166  20.675 -15.949  1.00  0.00     0.147 C
HETATM    5  C26 UNL     1     -10.857  22.473 -16.595  1.00  0.00     0.132 C
HETATM    6  C6  UNL     1     -10.896  20.055 -16.547  1.00  0.00     0.088 C
HETATM    7  C27 UNL     1     -10.077  21.214 -16.938  1.00  0.00     0.027 C
HETATM    8  C33 UNL     1     -11.261  19.068 -17.590  1.00  0.00     0.294 C
HETATM    9  C28 UNL     1      -9.717  21.339 -18.396  1.00  0.00     0.043 C
HETATM   10  C29 UNL     1      -9.552  19.983 -18.968  1.00  0.00     0.223 C
HETATM   11  C30 UNL     1      -9.303  19.982 -20.463  1.00  0.00     0.037 C
HETATM   12  N5  UNL     1     -10.886  19.369 -18.930  1.00  0.00     0.094 N
HETATM   13  C31 UNL     1      -9.710  18.561 -20.821  1.00  0.00     0.032 C
HETATM   14  C32 UNL     1     -10.604  18.134 -19.667  1.00  0.00     0.273 C
HETATM   15  O2  UNL     1     -13.116  23.904 -17.535  1.00  0.00    -0.271 OA
BRANCH   6  16
HETATM   16  C5  UNL     1     -10.166  19.314 -15.451  1.00  0.00     0.230 C
HETATM   17  N1  UNL     1      -8.764  19.207 -15.390  1.00  0.00    -0.360 N
ATOM     18  H1  UNL     1      -8.204  19.647 -16.120  1.00  0.00     0.162 HD
HETATM   19  O1  UNL     1     -10.851  18.774 -14.559  1.00  0.00    -0.273 OA
BRANCH  17  20
HETATM   20  C4  UNL     1      -8.095  18.498 -14.332  1.00  0.00     0.122 C
BRANCH  20  21
HETATM   21  C3  UNL     1      -7.850  17.048 -14.678  1.00  0.00     0.019 C
BRANCH  21  22
HETATM   22  C2  UNL     1      -8.722  16.121 -13.859  1.00  0.00    -0.003 C
HETATM   23  C1  UNL     1      -7.881  14.923 -13.476  1.00  0.00     0.005 C
ENDBRANCH  21  22
ENDBRANCH  20  21
ENDBRANCH  17  20
ENDBRANCH   6  16
ENDBRANCH   1   2
BRANCH   1  24
HETATM   24  N3  UNL     1     -15.708  23.335 -17.032  1.00  0.00    -0.342 N
HETATM   25  C10 UNL     1     -16.806  23.226 -16.210  1.00  0.00     0.264 C
HETATM   26  O3  UNL     1     -16.924  22.095 -15.584  1.00  0.00    -0.266 OA
ATOM     27  H3  UNL     1     -15.570  24.211 -17.535  1.00  0.00     0.163 HD
BRANCH  25  28
HETATM   28  C11 UNL     1     -17.874  24.162 -15.909  1.00  0.00     0.080 C
BRANCH  28  29
HETATM   29  C12 UNL     1     -18.701  24.726 -16.987  1.00  0.00     0.063 C
BRANCH  29  30
HETATM   30  C13 UNL     1     -18.420  26.145 -17.363  1.00  0.00     0.006 C
BRANCH  30  31
HETATM   31  C14 UNL     1     -17.414  26.220 -18.512  1.00  0.00    -0.004 C
HETATM   32  C15 UNL     1     -17.939  25.450 -19.688  1.00  0.00     0.005 C
ENDBRANCH  30  31
ENDBRANCH  29  30
ENDBRANCH  28  29
BRANCH  28  33
HETATM   33  N4  UNL     1     -17.534  25.112 -14.861  1.00  0.00    -0.326 N
HETATM   34  C16 UNL     1     -18.003  25.063 -13.538  1.00  0.00     0.226 C
HETATM   35  O4  UNL     1     -18.769  24.133 -13.195  1.00  0.00    -0.273 OA
ATOM     36  H4  UNL     1     -16.904  25.876 -15.107  1.00  0.00     0.168 HD
BRANCH  34  37
HETATM   37  C17 UNL     1     -17.618  26.086 -12.544  1.00  0.00     0.082 C
HETATM   38  C18 UNL     1     -16.137  25.949 -12.164  1.00  0.00     0.040 C
HETATM   39  C19 UNL     1     -15.766  27.167 -11.379  1.00  0.00     0.168 C
HETATM   40  O5  UNL     1     -16.827  27.601 -10.602  1.00  0.00    -0.391 OA
HETATM   41  C20 UNL     1     -17.559  26.508 -10.131  1.00  0.00     0.168 C
HETATM   42  C21 UNL     1     -18.363  25.848 -11.227  1.00  0.00     0.040 C
ENDBRANCH  34  37
ENDBRANCH  28  33
ENDBRANCH  25  28
ENDBRANCH   1  24
BRANCH   1  43
HETATM   43  C22 UNL     1     -14.909  21.679 -18.618  1.00  0.00     0.013 C
HETATM   44  C23 UNL     1     -14.702  20.173 -18.606  1.00  0.00     0.012 C
BRANCH  43  45
HETATM   45  C24 UNL     1     -14.038  22.363 -19.633  1.00  0.00     0.002 C
HETATM   46  C25 UNL     1     -14.821  23.329 -20.472  1.00  0.00     0.005 C
ENDBRANCH  43  45
ENDBRANCH   1  43
TORSDOF 14
ENDMDL