MODEL 4
REMARK VINA RESULT: -8.991752878      1.045      1.838
REMARK  18 active torsions:
REMARK  status: ('A' for Active; 'I' for Inactive)
REMARK    1  A    between atoms: C2_2  and  C4_4
REMARK    2  A    between atoms: C4_4  and  C5_5
REMARK    3  A    between atoms: C5_5  and  N1_6
REMARK    4  A    between atoms: C5_5  and  C7_10
REMARK    5  A    between atoms: N1_6  and  C6_8
REMARK       I    between atoms: C7_10  and  N2_12
REMARK    6  A    between atoms: C13_18  and  C14_19
REMARK       I    between atoms: C14_19  and  N3_21
REMARK    7  A    between atoms: N3_21  and  C15_23
REMARK    8  A    between atoms: C15_23  and  C16_24
REMARK    9  A    between atoms: C15_23  and  C23_31
REMARK   10  A    between atoms: C16_24  and  C17_25
REMARK   11  A    between atoms: C23_31  and  C24_32
REMARK   12  A    between atoms: C23_31  and  C30_46
REMARK   13  A    between atoms: C24_32  and  C25_33
REMARK   14  A    between atoms: C25_33  and  O4_34
REMARK   15  A    between atoms: C25_33  and  N4_36
REMARK   16  A    between atoms: N4_36  and  C26_38
REMARK   17  A    between atoms: C26_38  and  O5_39
REMARK   18  A    between atoms: C26_38  and  C27_41
REMARK       I    between atoms: C27_41  and  N5_43
ROOT
HETATM    1  C15 UNL     1     -12.920  22.830 -16.957  1.00  0.00     0.089 C
ENDROOT
BRANCH   1   2
HETATM    2  N3  UNL     1     -12.051  21.669 -16.916  1.00  0.00    -0.354 N
HETATM    3  C14 UNL     1     -10.710  21.661 -16.489  1.00  0.00     0.241 C
HETATM    4  O3  UNL     1     -10.162  22.720 -16.125  1.00  0.00    -0.271 OA
ATOM      5  H3  UNL     1     -12.447  20.781 -17.223  1.00  0.00     0.162 HD
BRANCH   3   6
HETATM    6  C13 UNL     1      -9.914  20.407 -16.455  1.00  0.00     0.183 C
HETATM    7  N2  UNL     1     -10.563  19.360 -17.202  1.00  0.00    -0.336 N
HETATM    8  C7  UNL     1     -10.320  18.781 -18.466  1.00  0.00     0.243 C
HETATM    9  C8  UNL     1     -11.703  18.947 -16.366  1.00  0.00     0.132 C
HETATM   10  O2  UNL     1     -11.189  17.925 -18.878  1.00  0.00    -0.271 OA
HETATM   11  C9  UNL     1     -11.248  19.163 -14.963  1.00  0.00     0.010 C
HETATM   12  C10 UNL     1     -10.513  17.952 -14.424  1.00  0.00     0.007 C
HETATM   13  C12 UNL     1      -9.899  19.855 -15.069  1.00  0.00     0.023 C
HETATM   14  C11 UNL     1      -9.212  18.510 -14.924  1.00  0.00     0.008 C
BRANCH   8  15
HETATM   15  C5  UNL     1      -9.172  19.073 -19.348  1.00  0.00     0.176 C
BRANCH  15  16
HETATM   16  C4  UNL     1      -8.330  17.827 -19.659  1.00  0.00     0.038 C
BRANCH  16  17
HETATM   17  C2  UNL     1      -7.641  17.474 -18.347  1.00  0.00    -0.020 C
HETATM   18  C1  UNL     1      -6.137  17.431 -18.543  1.00  0.00     0.009 C
HETATM   19  C3  UNL     1      -8.059  16.135 -17.809  1.00  0.00     0.009 C
ENDBRANCH  16  17
ENDBRANCH  15  16
BRANCH  15  20
HETATM   20  N1  UNL     1      -9.593  19.656 -20.601  1.00  0.00    -0.355 N
ATOM     21  H1  UNL     1     -10.482  20.155 -20.585  1.00  0.00     0.162 HD
BRANCH  20  22
HETATM   22  C6  UNL     1      -8.931  19.620 -21.834  1.00  0.00     0.349 C
HETATM   23  O1  UNL     1      -8.759  20.667 -22.505  1.00  0.00    -0.284 OA
ENDBRANCH  20  22
ENDBRANCH  15  20
ENDBRANCH   8  15
ENDBRANCH   3   6
ENDBRANCH   1   2
BRANCH   1  24
HETATM   24  C16 UNL     1     -13.948  22.950 -15.962  1.00  0.00     0.030 C
BRANCH  24  25
HETATM   25  C17 UNL     1     -14.287  21.762 -15.094  1.00  0.00    -0.013 C
HETATM   26  C18 UNL     1     -15.715  21.569 -14.743  1.00  0.00     0.005 C
HETATM   27  C19 UNL     1     -15.804  20.290 -13.887  1.00  0.00     0.000 C
HETATM   28  C20 UNL     1     -15.170  20.588 -12.567  1.00  0.00     0.000 C
HETATM   29  C21 UNL     1     -13.700  20.877 -12.803  1.00  0.00     0.000 C
HETATM   30  C22 UNL     1     -13.496  21.969 -13.794  1.00  0.00     0.005 C
ENDBRANCH  24  25
ENDBRANCH   1  24
BRANCH   1  31
HETATM   31  C23 UNL     1     -13.410  22.968 -18.455  1.00  0.00     0.019 C
BRANCH  31  32
HETATM   32  C24 UNL     1     -14.820  23.514 -18.257  1.00  0.00     0.091 C
BRANCH  32  33
HETATM   33  C25 UNL     1     -15.163  24.779 -18.864  1.00  0.00     0.117 C
BRANCH  33  34
HETATM   34  O4  UNL     1     -14.356  25.794 -18.610  1.00  0.00    -0.349 OA
ATOM     35  H4  UNL     1     -14.769  26.625 -18.410  1.00  0.00     0.219 HD
ENDBRANCH  33  34
BRANCH  33  36
HETATM   36  N4  UNL     1     -16.230  25.110 -19.695  1.00  0.00    -0.317 N
ATOM     37  H4  UNL     1     -15.978  25.000 -20.677  1.00  0.00     0.170 HD
BRANCH  36  38
HETATM   38  C26 UNL     1     -17.532  25.544 -19.563  1.00  0.00     0.211 C
BRANCH  38  39
HETATM   39  O5  UNL     1     -18.281  25.244 -20.615  1.00  0.00    -0.342 OA
ATOM     40  H5  UNL     1     -18.840  24.491 -20.465  1.00  0.00     0.219 HD
ENDBRANCH  38  39
BRANCH  38  41
HETATM   41  C27 UNL     1     -18.271  26.245 -18.563  1.00  0.00     0.293 C
HETATM   42  O6  UNL     1     -18.566  27.454 -18.704  1.00  0.00    -0.264 OA
HETATM   43  N5  UNL     1     -18.721  25.619 -17.340  1.00  0.00    -0.354 N
HETATM   44  C28 UNL     1     -19.475  26.472 -16.407  1.00  0.00     0.152 C
HETATM   45  C29 UNL     1     -18.478  24.244 -16.992  1.00  0.00     0.152 C
ENDBRANCH  38  41
ENDBRANCH  36  38
ENDBRANCH  33  36
ENDBRANCH  32  33
ENDBRANCH  31  32
BRANCH  31  46
HETATM   46  C30 UNL     1     -13.396  21.579 -18.987  1.00  0.00    -0.016 C
HETATM   47  C31 UNL     1     -14.715  20.865 -18.935  1.00  0.00     0.010 C
HETATM   48  C32 UNL     1     -12.834  21.367 -20.380  1.00  0.00     0.010 C
ENDBRANCH  31  46
ENDBRANCH   1  31
TORSDOF 18
ENDMDL