MODEL 1
REMARK VINA RESULT: -9.477789785      0.000      0.000
REMARK  3 active torsions:
REMARK  status: ('A' for Active; 'I' for Inactive)
REMARK    1  A    between atoms: C3_3  and  O1_4
REMARK    2  A    between atoms: O1_4  and  C4_5
REMARK    3  A    between atoms: N3_21  and  C14_23
ROOT
HETATM    1  C1  UNL     1     -15.503  34.561  -2.277  1.00  0.00     0.056 C
HETATM    2  C2  UNL     1     -16.215  35.676  -2.962  1.00  0.00     0.025 A
HETATM    3  C3  UNL     1     -17.337  36.197  -2.445  1.00  0.00     0.200 A
HETATM    4  O2  UNL     1     -17.910  37.163  -3.167  1.00  0.00    -0.271 OA
HETATM    5  C10 UNL     1     -17.467  37.617  -4.299  1.00  0.00     0.182 A
HETATM    6  N1  UNL     1     -18.172  38.671  -4.999  1.00  0.00    -0.073 NA
HETATM    7  C11 UNL     1     -16.322  37.106  -4.851  1.00  0.00     0.119 A
HETATM    8  C12 UNL     1     -15.885  37.653  -6.107  1.00  0.00     0.106 C
HETATM    9  N2  UNL     1     -15.554  38.107  -7.116  1.00  0.00    -0.191 NA
HETATM   10  C13 UNL     1     -15.643  36.108  -4.203  1.00  0.00     0.064 A
HETATM   11  N3  UNL     1     -14.617  35.576  -4.595  1.00  0.00    -0.384 N
ATOM     12  H3  UNL     1     -14.357  34.876  -3.900  1.00  0.00     0.160 HD
ENDROOT
BRANCH  11  13
HETATM   13  C14 UNL     1     -13.665  35.532  -5.590  1.00  0.00     0.073 C
HETATM   14  C15 UNL     1     -12.385  34.788  -5.179  1.00  0.00     0.031 C
HETATM   15  C16 UNL     1     -14.216  34.689  -6.756  1.00  0.00     0.031 C
ENDBRANCH  11  13
BRANCH   3  16
HETATM   16  O1  UNL     1     -17.954  35.878  -1.298  1.00  0.00    -0.282 OA
BRANCH  16  17
HETATM   17  C4  UNL     1     -17.858  36.261  -0.014  1.00  0.00     0.138 A
HETATM   18  C5  UNL     1     -16.994  35.738   0.895  1.00  0.00     0.154 A
HETATM   19  F1  UNL     1     -16.116  34.723   0.668  1.00  0.00    -0.203 F
HETATM   20  C6  UNL     1     -16.947  36.197   2.230  1.00  0.00     0.087 A
HETATM   21  C7  UNL     1     -17.772  37.185   2.655  1.00  0.00     0.121 A
HETATM   22  F2  UNL     1     -17.715  37.619   3.951  1.00  0.00    -0.206 F
HETATM   23  C8  UNL     1     -18.650  37.731   1.777  1.00  0.00     0.069 A
HETATM   24  C9  UNL     1     -18.694  37.284   0.478  1.00  0.00     0.074 A
HETATM   25 CL1  UNL     1     -19.856  38.025  -0.572  1.00  0.00    -0.081 Cl
ENDBRANCH  16  17
ENDBRANCH   3  16
TORSDOF 3
ENDMDL