MODEL 3
REMARK VINA RESULT: -7.685323300      1.728      2.412
REMARK  4 active torsions:
REMARK  status: ('A' for Active; 'I' for Inactive)
REMARK    1  A    between atoms: C5_6  and  N1_7
REMARK       I    between atoms: N1_7  and  C6_9
REMARK    2  A    between atoms: C6_9  and  C7_11
REMARK    3  A    between atoms: C7_11  and  S1_12
REMARK    4  A    between atoms: S1_12  and  C8_13
ROOT
HETATM    1  C7  UNL     1     -20.689  38.970  -2.473  1.00  0.00     0.185 C
ENDROOT
BRANCH   1   2
HETATM    2  C6  UNL     1     -20.426  38.357  -1.134  1.00  0.00     0.232 C
HETATM    3  N1  UNL     1     -19.116  38.451  -0.612  1.00  0.00    -0.318 N
ATOM      4  H1  UNL     1     -18.428  38.977  -1.150  1.00  0.00     0.169 HD
HETATM    5  O1  UNL     1     -21.365  37.788  -0.550  1.00  0.00    -0.272 OA
BRANCH   3   6
HETATM    6  C5  UNL     1     -18.689  37.866   0.612  1.00  0.00     0.116 A
HETATM    7  C4  UNL     1     -18.912  38.300   1.900  1.00  0.00     0.151 A
HETATM    8  C3  UNL     1     -18.332  37.613   2.874  1.00  0.00     0.059 A
HETATM    9  F1  UNL     1     -19.727  39.402   2.099  1.00  0.00    -0.203 F
HETATM   10  C2  UNL     1     -17.556  36.537   2.559  1.00  0.00    -0.016 A
HETATM   11  C1  UNL     1     -16.776  35.655   3.494  1.00  0.00     0.056 C
HETATM   12  S2  UNL     1     -17.674  36.516   0.844  1.00  0.00    -0.074 SA
ENDBRANCH   3   6
ENDBRANCH   1   2
BRANCH   1  13
HETATM   13  S1  UNL     1     -20.558  37.725  -3.753  1.00  0.00    -0.085 SA
BRANCH  13  14
HETATM   14  C8  UNL     1     -18.860  37.294  -4.057  1.00  0.00     0.146 A
HETATM   15  N2  UNL     1     -18.290  36.344  -3.254  1.00  0.00    -0.339 N
HETATM   16  C9  UNL     1     -17.053  35.889  -3.380  1.00  0.00     0.032 A
ATOM     17  H2  UNL     1     -18.860  35.958  -2.501  1.00  0.00     0.168 HD
HETATM   18  C10 UNL     1     -16.494  34.857  -2.467  1.00  0.00     0.070 C
HETATM   19  C11 UNL     1     -16.262  36.390  -4.382  1.00  0.00     0.094 A
HETATM   20 CL1  UNL     1     -14.628  35.804  -4.624  1.00  0.00    -0.079 Cl
HETATM   21  C12 UNL     1     -16.814  37.345  -5.196  1.00  0.00     0.129 A
HETATM   22 CL2  UNL     1     -15.832  37.996  -6.472  1.00  0.00    -0.062 Cl
HETATM   23  N3  UNL     1     -18.095  37.786  -5.031  1.00  0.00    -0.326 N
ATOM     24  H3  UNL     1     -18.470  38.497  -5.659  1.00  0.00     0.169 HD
ENDBRANCH  13  14
ENDBRANCH   1  13
TORSDOF 4
ENDMDL