MODEL 1
REMARK VINA RESULT: -8.972918432      0.000      0.000
REMARK  3 active torsions:
REMARK  status: ('A' for Active; 'I' for Inactive)
REMARK    1  A    between atoms: C5_10  and  O2_11
REMARK    2  A    between atoms: O2_11  and  C6_12
REMARK    3  A    between atoms: C13_22  and  C14_23
ROOT
HETATM    1  C1  UNL     1     -16.549  36.450   3.912  1.00  0.00     0.078 C
HETATM    2  C2  UNL     1     -17.568  37.056   2.994  1.00  0.00     0.069 A
HETATM    3  O1  UNL     1     -18.451  37.978   3.275  1.00  0.00    -0.296 OA
HETATM    4  C3  UNL     1     -19.194  38.284   2.235  1.00  0.00     0.164 A
HETATM    5  N1  UNL     1     -20.209  39.152   2.038  1.00  0.00    -0.332 N
ATOM      6  H1  UNL     1     -20.532  39.736   2.809  1.00  0.00     0.168 HD
HETATM    7  C4  UNL     1     -20.798  39.256   0.835  1.00  0.00     0.184 A
HETATM    8  N2  UNL     1     -20.417  38.514  -0.219  1.00  0.00    -0.332 N
ATOM      9  H2  UNL     1     -20.886  38.617  -1.119  1.00  0.00     0.168 HD
HETATM   10  C5  UNL     1     -19.407  37.632  -0.070  1.00  0.00     0.165 A
HETATM   11  C12 UNL     1     -18.785  37.516   1.182  1.00  0.00     0.086 A
HETATM   12  C13 UNL     1     -17.753  36.738   1.665  1.00  0.00     0.088 A
ENDROOT
BRANCH  10  13
HETATM   13  O2  UNL     1     -18.913  36.814  -1.044  1.00  0.00    -0.291 OA
BRANCH  13  14
HETATM   14  C6  UNL     1     -18.432  37.156  -2.280  1.00  0.00     0.104 A
HETATM   15  C7  UNL     1     -18.708  38.402  -2.784  1.00  0.00     0.081 A
HETATM   16  C8  UNL     1     -18.258  38.801  -4.006  1.00  0.00     0.120 A
HETATM   17  F1  UNL     1     -18.570  40.054  -4.444  1.00  0.00    -0.206 F
HETATM   18  C9  UNL     1     -17.507  37.924  -4.744  1.00  0.00     0.068 A
HETATM   19  C10 UNL     1     -17.193  36.652  -4.295  1.00  0.00     0.061 A
HETATM   20 CL1  UNL     1     -16.237  35.542  -5.242  1.00  0.00    -0.082 Cl
HETATM   21  C11 UNL     1     -17.680  36.292  -3.033  1.00  0.00     0.089 A
HETATM   22 CL2  UNL     1     -17.261  34.683  -2.472  1.00  0.00    -0.080 Cl
ENDBRANCH  13  14
ENDBRANCH  10  13
BRANCH  12  23
HETATM   23  C14 UNL     1     -17.020  35.763   0.868  1.00  0.00     0.213 C
HETATM   24  O3  UNL     1     -17.527  34.624   0.712  1.00  0.00    -0.644 OA
HETATM   25  O4  UNL     1     -15.809  36.033   0.287  1.00  0.00    -0.644 OA
ENDBRANCH  12  23
TORSDOF 3
ENDMDL