MODEL 5
REMARK VINA RESULT: -7.846386985      3.397      5.738
REMARK  4 active torsions:
REMARK  status: ('A' for Active; 'I' for Inactive)
REMARK    1  A    between atoms: C2_2  and  C4_5
REMARK    2  A    between atoms: C4_5  and  C5_6
REMARK    3  A    between atoms: C5_6  and  C6_7
REMARK       I    between atoms: N1_8  and  C7_10
REMARK    4  A    between atoms: C7_10  and  C8_12
ROOT
HETATM    1  C8  UNL     1     -18.577  35.938  -2.425  1.00  0.00     0.142 A
HETATM    2  C9  UNL     1     -17.633  34.991  -2.864  1.00  0.00     0.127 A
HETATM    3  N2  UNL     1     -16.840  34.756  -1.825  1.00  0.00    -0.343 N
ATOM      4  H2  UNL     1     -16.053  34.107  -1.837  1.00  0.00     0.167 HD
HETATM    5  C10 UNL     1     -17.206  35.478  -0.763  1.00  0.00     0.172 A
HETATM    6  N3  UNL     1     -18.265  36.202  -1.124  1.00  0.00    -0.226 N
HETATM    7  N4  UNL     1     -18.915  37.078  -0.263  1.00  0.00    -0.279 N
ATOM      8  H4  UNL     1     -19.717  37.586  -0.639  1.00  0.00     0.188 HD
HETATM    9  C11 UNL     1     -18.574  37.329   1.065  1.00  0.00     0.147 A
HETATM   10 CL2  UNL     1     -19.541  38.494   1.999  1.00  0.00    -0.061 Cl
HETATM   11  C12 UNL     1     -17.579  36.786   1.746  1.00  0.00     0.117 A
HETATM   12 CL3  UNL     1     -17.254  37.178   3.397  1.00  0.00    -0.073 Cl
HETATM   13  S1  UNL     1     -16.553  35.603   0.887  1.00  0.00    -0.037 SA
ENDROOT
BRANCH   1  14
HETATM   14  C7  UNL     1     -19.638  36.478  -3.252  1.00  0.00     0.275 C
HETATM   15  N1  UNL     1     -19.975  37.847  -3.145  1.00  0.00    -0.335 N
HETATM   16  C6  UNL     1     -21.057  38.367  -3.557  1.00  0.00     0.064 C
ATOM     17  H1  UNL     1     -19.295  38.466  -2.703  1.00  0.00     0.168 HD
HETATM   18  O1  UNL     1     -20.275  35.789  -4.058  1.00  0.00    -0.266 OA
BRANCH  16  19
HETATM   19  C5  UNL     1     -21.297  39.807  -3.392  1.00  0.00     0.046 C
BRANCH  19  20
HETATM   20  C4  UNL     1     -20.850  40.285  -2.030  1.00  0.00     0.030 C
BRANCH  20  21
HETATM   21  C2  UNL     1     -22.054  40.479  -1.134  1.00  0.00     0.030 C
HETATM   22  C1  UNL     1     -22.216  39.203  -0.332  1.00  0.00     0.032 C
HETATM   23  C3  UNL     1     -23.307  40.683  -1.933  1.00  0.00     0.032 C
HETATM   24 CL1  UNL     1     -21.805  41.844  -0.024  1.00  0.00    -0.120 Cl
ENDBRANCH  20  21
ENDBRANCH  19  20
ENDBRANCH  16  19
ENDBRANCH   1  14
TORSDOF 4
ENDMDL