MODEL 1
REMARK VINA RESULT: -7.370162155      0.000      0.000
REMARK  6 active torsions:
REMARK  status: ('A' for Active; 'I' for Inactive)
REMARK    1  A    between atoms: C3_3  and  C4_4
REMARK    2  A    between atoms: C4_4  and  S1_5
REMARK    3  A    between atoms: S1_5  and  C5_6
REMARK    4  A    between atoms: C6_8  and  C7_9
REMARK    5  A    between atoms: C13_20  and  N2_21
REMARK    6  A    between atoms: N2_21  and  O2_23
ROOT
HETATM    1  C1  UNL     1     -12.486  34.654  -5.134  1.00  0.00     0.112 C
HETATM    2  C2  UNL     1     -13.566  34.872  -6.101  1.00  0.00    -0.110 C
HETATM    3  C3  UNL     1     -14.439  35.051  -6.913  1.00  0.00    -0.097 C
ENDROOT
BRANCH   3   4
HETATM    4  C4  UNL     1     -15.481  35.264  -7.915  1.00  0.00     0.175 C
BRANCH   4   5
HETATM    5  S1  UNL     1     -17.147  35.126  -7.191  1.00  0.00    -0.089 SA
BRANCH   5   6
HETATM    6  C5  UNL     1     -17.088  35.891  -5.576  1.00  0.00     0.161 A
HETATM    7  O1  UNL     1     -17.258  35.296  -4.400  1.00  0.00    -0.282 OA
HETATM    8  C6  UNL     1     -17.151  36.144  -3.426  1.00  0.00     0.162 A
HETATM    9  N1  UNL     1     -16.900  37.342  -3.987  1.00  0.00    -0.318 N
HETATM   10  C13 UNL     1     -16.853  37.227  -5.328  1.00  0.00     0.168 A
ATOM     11  H1  UNL     1     -16.765  38.212  -3.471  1.00  0.00     0.169 HD
BRANCH   8  12
HETATM   12  C7  UNL     1     -17.269  35.907  -1.989  1.00  0.00     0.039 A
HETATM   13  C8  UNL     1     -18.345  36.371  -1.271  1.00  0.00     0.043 A
HETATM   14  C9  UNL     1     -18.482  36.160   0.089  1.00  0.00     0.056 A
HETATM   15 CL1  UNL     1     -19.868  36.767   0.973  1.00  0.00    -0.083 Cl
HETATM   16  C10 UNL     1     -17.494  35.448   0.769  1.00  0.00     0.057 A
HETATM   17 CL2  UNL     1     -17.679  35.185   2.501  1.00  0.00    -0.082 Cl
HETATM   18  C11 UNL     1     -16.407  34.975   0.067  1.00  0.00     0.050 A
HETATM   19  C12 UNL     1     -16.301  35.204  -1.300  1.00  0.00     0.050 A
HETATM   20 CL3  UNL     1     -14.917  34.599  -2.187  1.00  0.00    -0.083 Cl
ENDBRANCH   8  12
BRANCH  10  21
HETATM   21  N2  UNL     1     -16.620  38.214  -6.326  1.00  0.00    -0.250 N
ATOM     22  H2  UNL     1     -17.422  38.590  -6.832  1.00  0.00     0.196 HD
BRANCH  21  23
HETATM   23  O2  UNL     1     -15.482  38.643  -6.615  1.00  0.00    -0.288 OA
ATOM     24  H2  UNL     1     -15.064  39.364  -6.158  1.00  0.00     0.244 HD
ENDBRANCH  21  23
ENDBRANCH  10  21
ENDBRANCH   5   6
ENDBRANCH   4   5
ENDBRANCH   3   4
TORSDOF 6
ENDMDL