MODEL 3
REMARK VINA RESULT: -7.276840069      3.179      4.449
REMARK  5 active torsions:
REMARK  status: ('A' for Active; 'I' for Inactive)
REMARK    1  A    between atoms: O1_2  and  N1_3
REMARK    2  A    between atoms: N1_3  and  O2_4
REMARK    3  A    between atoms: N1_3  and  C2_6
REMARK    4  A    between atoms: C4_9  and  N2_10
REMARK       I    between atoms: N2_10  and  C5_12
REMARK    5  A    between atoms: C5_12  and  C6_14
ROOT
HETATM    1  N2  UNL     1     -16.480  37.027  -4.061  1.00  0.00    -0.317 N
ATOM      2  H2  UNL     1     -16.028  37.716  -3.461  1.00  0.00     0.169 HD
HETATM    3  C5  UNL     1     -17.317  36.087  -3.457  1.00  0.00     0.260 C
HETATM    4  O3  UNL     1     -17.908  35.179  -4.154  1.00  0.00    -0.267 OA
ENDROOT
BRANCH   1   5
HETATM    5  C4  UNL     1     -16.217  37.087  -5.455  1.00  0.00     0.079 A
HETATM    6  S1  UNL     1     -14.887  36.363  -6.307  1.00  0.00    -0.082 SA
HETATM    7  C3  UNL     1     -15.255  36.870  -7.884  1.00  0.00     0.086 A
HETATM    8  C2  UNL     1     -16.404  37.591  -7.721  1.00  0.00     0.097 A
HETATM    9  C12 UNL     1     -16.893  37.697  -6.454  1.00  0.00     0.072 A
BRANCH   8  10
HETATM   10  N1  UNL     1     -17.056  38.214  -8.874  1.00  0.00    -0.127 N
BRANCH  10  11
HETATM   11  O1  UNL     1     -18.366  37.956  -9.187  1.00  0.00    -0.258 OA
HETATM   12  C1  UNL     1     -18.635  36.656  -9.695  1.00  0.00     0.240 C
ENDBRANCH  10  11
BRANCH  10  13
HETATM   13  O2  UNL     1     -16.434  39.000  -9.605  1.00  0.00    -0.263 OA
ATOM     14  H2  UNL     1     -15.625  38.692  -9.996  1.00  0.00     0.247 HD
ENDBRANCH  10  13
ENDBRANCH   8  10
ENDBRANCH   1   5
BRANCH   3  15
HETATM   15  C6  UNL     1     -17.634  35.985  -2.026  1.00  0.00     0.075 A
HETATM   16  C7  UNL     1     -16.963  35.211  -1.118  1.00  0.00     0.053 A
HETATM   17 CL1  UNL     1     -15.521  34.322  -1.537  1.00  0.00    -0.083 Cl
HETATM   18  C8  UNL     1     -17.370  35.126   0.221  1.00  0.00     0.048 A
HETATM   19  C9  UNL     1     -18.467  35.839   0.623  1.00  0.00     0.037 A
HETATM   20 CL2  UNL     1     -18.971  35.731   2.296  1.00  0.00    -0.084 Cl
HETATM   21  C10 UNL     1     -19.182  36.636  -0.240  1.00  0.00     0.048 A
HETATM   22  C11 UNL     1     -18.746  36.688  -1.542  1.00  0.00     0.053 A
HETATM   23 CL3  UNL     1     -19.649  37.700  -2.670  1.00  0.00    -0.083 Cl
ENDBRANCH   3  15
TORSDOF 5
ENDMDL