MODEL 1
REMARK VINA RESULT: -8.197581955      0.000      0.000
REMARK  4 active torsions:
REMARK  status: ('A' for Active; 'I' for Inactive)
REMARK    1  A    between atoms: C3_3  and  O1_4
REMARK    2  A    between atoms: C5_9  and  C6_10
REMARK    3  A    between atoms: N1_11  and  N2_13
REMARK    4  A    between atoms: C7_15  and  C8_16
ROOT
HETATM    1  C6  UNL     1     -18.995  36.784  -1.170  1.00  0.00     0.126 C
HETATM    2  N1  UNL     1     -18.503  37.404  -2.163  1.00  0.00    -0.311 N
ATOM      3  H1  UNL     1     -17.505  37.613  -2.176  1.00  0.00     0.186 HD
ENDROOT
BRANCH   2   4
HETATM    4  N2  UNL     1     -19.298  37.803  -3.236  1.00  0.00    -0.311 N
HETATM    5  C7  UNL     1     -20.450  38.362  -3.013  1.00  0.00     0.120 C
ATOM      6  H2  UNL     1     -18.978  37.656  -4.193  1.00  0.00     0.186 HD
BRANCH   5   7
HETATM    7  C8  UNL     1     -21.321  38.798  -4.087  1.00  0.00     0.003 A
HETATM    8  C9  UNL     1     -21.159  38.199  -5.333  1.00  0.00     0.016 A
HETATM    9  C10 UNL     1     -21.996  38.626  -6.343  1.00  0.00     0.025 A
HETATM   10  C11 UNL     1     -22.948  39.602  -6.123  1.00  0.00     0.035 A
HETATM   11 CL1  UNL     1     -23.974  40.091  -7.453  1.00  0.00    -0.084 Cl
HETATM   12  C12 UNL     1     -23.086  40.177  -4.880  1.00  0.00     0.048 A
HETATM   13  C13 UNL     1     -22.255  39.758  -3.859  1.00  0.00     0.047 A
HETATM   14 CL2  UNL     1     -22.409  40.479  -2.255  1.00  0.00    -0.083 Cl
ENDBRANCH   5   7
ENDBRANCH   2   4
BRANCH   1  15
HETATM   15  C5  UNL     1     -18.194  36.353  -0.032  1.00  0.00     0.079 A
HETATM   16  C4  UNL     1     -17.378  35.271  -0.103  1.00  0.00     0.303 A
HETATM   17  O2  UNL     1     -16.634  34.839   0.892  1.00  0.00    -0.251 OA
HETATM   18  O3  UNL     1     -17.338  34.640  -1.210  1.00  0.00    -0.259 OA
HETATM   19  C3  UNL     1     -16.646  35.459   2.048  1.00  0.00     0.194 A
HETATM   20  C2  UNL     1     -17.456  36.572   2.188  1.00  0.00     0.019 A
HETATM   21  C1  UNL     1     -17.479  37.283   3.491  1.00  0.00     0.055 C
HETATM   22  C14 UNL     1     -18.249  37.050   1.163  1.00  0.00     0.062 A
HETATM   23 CL3  UNL     1     -19.273  38.448   1.326  1.00  0.00    -0.082 Cl
BRANCH  19  24
HETATM   24  O1  UNL     1     -15.881  35.045   3.128  1.00  0.00    -0.340 OA
ATOM     25  H1  UNL     1     -15.935  34.139   3.410  1.00  0.00     0.220 HD
ENDBRANCH  19  24
ENDBRANCH   1  15
TORSDOF 4
ENDMDL