MODEL 4
REMARK VINA RESULT: -7.876792989      3.981      5.519
REMARK  5 active torsions:
REMARK  status: ('A' for Active; 'I' for Inactive)
REMARK    1  A    between atoms: C3_5  and  O1_6
REMARK    2  A    between atoms: O1_6  and  C4_7
REMARK    3  A    between atoms: C9_19  and  C10_20
REMARK    4  A    between atoms: C10_20  and  O3_22
REMARK    5  A    between atoms: O3_22  and  C11_23
ROOT
HETATM    1  C1  UNL     1     -15.344  34.700  -2.408  1.00  0.00     0.071 C
HETATM    2  C2  UNL     1     -16.725  35.250  -2.223  1.00  0.00     0.041 A
HETATM    3  N1  UNL     1     -17.612  35.538  -3.215  1.00  0.00    -0.323 N
ATOM      4  H1  UNL     1     -17.447  35.416  -4.214  1.00  0.00     0.169 HD
HETATM    5  C3  UNL     1     -18.741  36.010  -2.659  1.00  0.00     0.231 A
HETATM    6  N3  UNL     1     -18.554  36.015  -1.338  1.00  0.00    -0.315 N
ATOM      7  H3  UNL     1     -19.248  36.326  -0.659  1.00  0.00     0.170 HD
HETATM    8  C9  UNL     1     -17.322  35.554  -1.018  1.00  0.00     0.134 A
ENDROOT
BRANCH   5   9
HETATM    9  O1  UNL     1     -19.854  36.400  -3.402  1.00  0.00    -0.262 OA
BRANCH   9  10
HETATM   10  C4  UNL     1     -20.131  37.691  -3.747  1.00  0.00     0.155 A
HETATM   11  C5  UNL     1     -20.436  38.611  -2.780  1.00  0.00     0.082 A
HETATM   12  C6  UNL     1     -20.720  39.928  -3.126  1.00  0.00     0.064 A
HETATM   13 CL1  UNL     1     -21.111  41.121  -1.917  1.00  0.00    -0.082 Cl
HETATM   14  C7  UNL     1     -20.681  40.265  -4.461  1.00  0.00     0.112 A
HETATM   15 CL2  UNL     1     -21.033  41.931  -4.956  1.00  0.00    -0.078 Cl
HETATM   16  C8  UNL     1     -20.375  39.335  -5.410  1.00  0.00     0.213 A
HETATM   17  F1  UNL     1     -20.340  39.682  -6.723  1.00  0.00    -0.184 F
HETATM   18  N2  UNL     1     -20.108  38.072  -5.024  1.00  0.00    -0.312 N
ATOM     19  H2  UNL     1     -19.879  37.380  -5.738  1.00  0.00     0.170 HD
ENDBRANCH   9  10
ENDBRANCH   5   9
BRANCH   8  20
HETATM   20  C10 UNL     1     -16.741  35.407   0.311  1.00  0.00     0.312 C
HETATM   21  O2  UNL     1     -16.180  34.347   0.686  1.00  0.00    -0.258 OA
BRANCH  20  22
HETATM   22  O3  UNL     1     -16.809  36.458   1.181  1.00  0.00    -0.306 OA
BRANCH  22  23
HETATM   23  C11 UNL     1     -17.785  36.617   2.186  1.00  0.00     0.060 C
HETATM   24  C12 UNL     1     -18.684  35.436   2.353  1.00  0.00     0.046 C
HETATM   25  C13 UNL     1     -18.616  37.872   1.907  1.00  0.00     0.046 C
HETATM   26  C14 UNL     1     -17.050  36.845   3.489  1.00  0.00     0.046 C
ENDBRANCH  22  23
ENDBRANCH  20  22
ENDBRANCH   8  20
TORSDOF 5
ENDMDL