MODEL 2
REMARK VINA RESULT: -7.476428888      2.964      4.270
REMARK  4 active torsions:
REMARK  status: ('A' for Active; 'I' for Inactive)
REMARK    1  A    between atoms: C2_2  and  S1_4
REMARK    2  A    between atoms: S1_4  and  C4_5
REMARK    3  A    between atoms: C7_11  and  C8_12
REMARK    4  A    between atoms: N3_21  and  N4_22
ROOT
HETATM    1  C4  UNL     1     -18.906  36.143  -0.009  1.00  0.00     0.132 A
HETATM    2  C5  UNL     1     -17.911  35.744  -0.863  1.00  0.00     0.151 A
HETATM    3  C6  UNL     1     -16.880  34.821  -0.470  1.00  0.00     0.120 C
HETATM    4  N1  UNL     1     -16.041  34.088  -0.145  1.00  0.00    -0.190 NA
HETATM    5  N2  UNL     1     -18.105  36.354  -2.034  1.00  0.00    -0.329 N
ATOM      6  H2  UNL     1     -17.512  36.241  -2.857  1.00  0.00     0.168 HD
HETATM    7  C7  UNL     1     -19.215  37.155  -1.972  1.00  0.00     0.140 A
HETATM    8  N3  UNL     1     -19.680  37.010  -0.743  1.00  0.00    -0.236 N
ENDROOT
BRANCH   1   9
HETATM    9  S1  UNL     1     -19.190  35.676   1.688  1.00  0.00    -0.103 SA
BRANCH   9  10
HETATM   10  C2  UNL     1     -18.324  36.722   2.854  1.00  0.00     0.046 C
HETATM   11  C1  UNL     1     -18.539  38.166   2.447  1.00  0.00     0.021 C
HETATM   12  C3  UNL     1     -16.844  36.417   2.953  1.00  0.00     0.021 C
ENDBRANCH   9  10
ENDBRANCH   1   9
BRANCH   8  13
HETATM   13  N4  UNL     1     -20.827  37.647  -0.206  1.00  0.00    -0.336 N
ATOM     14  H42 UNL     1     -20.868  38.598   0.160  1.00  0.00     0.177 HD
ATOM     15  H41 UNL     1     -21.732  37.182  -0.144  1.00  0.00     0.177 HD
ENDBRANCH   8  13
BRANCH   7  16
HETATM   16  C8  UNL     1     -19.695  37.962  -3.105  1.00  0.00     0.033 A
HETATM   17  C9  UNL     1     -19.640  39.322  -3.171  1.00  0.00     0.042 A
HETATM   18  C10 UNL     1     -20.103  40.036  -4.257  1.00  0.00     0.056 A
HETATM   19 CL1  UNL     1     -20.020  41.784  -4.311  1.00  0.00    -0.083 Cl
HETATM   20  C11 UNL     1     -20.647  39.379  -5.332  1.00  0.00     0.057 A
HETATM   21 CL2  UNL     1     -21.235  40.287  -6.710  1.00  0.00    -0.082 Cl
HETATM   22  C12 UNL     1     -20.714  37.997  -5.291  1.00  0.00     0.050 A
HETATM   23  C13 UNL     1     -20.252  37.298  -4.210  1.00  0.00     0.049 A
HETATM   24 CL3  UNL     1     -20.356  35.543  -4.198  1.00  0.00    -0.083 Cl
ENDBRANCH   7  16
TORSDOF 4
ENDMDL