MODEL 5
REMARK VINA RESULT: -7.232238949      1.804      2.662
REMARK  3 active torsions:
REMARK  status: ('A' for Active; 'I' for Inactive)
REMARK    1  A    between atoms: O1_2  and  C2_3
REMARK    2  A    between atoms: C3_6  and  S1_7
REMARK    3  A    between atoms: C7_12  and  C8_13
ROOT
HETATM    1  C2  UNL     1     -19.547  37.027  -1.441  1.00  0.00     0.168 A
HETATM    2  N1  UNL     1     -18.740  36.495  -0.496  1.00  0.00    -0.329 N
ATOM      3  H1  UNL     1     -19.019  36.557   0.484  1.00  0.00     0.168 HD
HETATM    4  C3  UNL     1     -17.580  35.884  -0.805  1.00  0.00     0.093 A
HETATM    5  C5  UNL     1     -17.221  35.807  -2.122  1.00  0.00     0.091 A
HETATM    6  C6  UNL     1     -16.006  35.182  -2.505  1.00  0.00     0.103 C
HETATM    7  N2  UNL     1     -15.014  34.680  -2.832  1.00  0.00    -0.191 NA
HETATM    8  C7  UNL     1     -18.028  36.344  -3.136  1.00  0.00     0.026 A
HETATM    9  C14 UNL     1     -19.202  36.959  -2.793  1.00  0.00     0.110 A
HETATM   10  N3  UNL     1     -20.017  37.503  -3.813  1.00  0.00    -0.097 NA
ENDROOT
BRANCH   4  11
HETATM   11  S1  UNL     1     -16.559  35.199   0.487  1.00  0.00    -0.115 SA
HETATM   12  C4  UNL     1     -16.902  35.901   2.108  1.00  0.00     0.097 C
ENDBRANCH   4  11
BRANCH   8  13
HETATM   13  C8  UNL     1     -17.614  36.232  -4.531  1.00  0.00    -0.019 A
HETATM   14  C9  UNL     1     -16.737  37.166  -5.078  1.00  0.00     0.039 A
HETATM   15  C10 UNL     1     -16.346  37.070  -6.390  1.00  0.00     0.075 A
HETATM   16 CL1  UNL     1     -15.231  38.263  -7.070  1.00  0.00    -0.081 Cl
HETATM   17  C11 UNL     1     -16.812  36.048  -7.200  1.00  0.00     0.159 A
HETATM   18  F1  UNL     1     -16.397  35.991  -8.500  1.00  0.00    -0.203 F
HETATM   19  C12 UNL     1     -17.683  35.112  -6.672  1.00  0.00     0.075 A
HETATM   20 CL2  UNL     1     -18.239  33.852  -7.747  1.00  0.00    -0.081 Cl
HETATM   21  C13 UNL     1     -18.062  35.223  -5.364  1.00  0.00     0.039 A
ENDBRANCH   8  13
BRANCH   1  22
HETATM   22  O1  UNL     1     -20.741  37.663  -1.183  1.00  0.00    -0.339 OA
HETATM   23  C1  UNL     1     -21.009  38.688  -0.294  1.00  0.00     0.211 C
ENDBRANCH   1  22
TORSDOF 3
ENDMDL