MODEL 5
REMARK VINA RESULT: -7.272379270      2.756      3.003
REMARK  4 active torsions:
REMARK  status: ('A' for Active; 'I' for Inactive)
REMARK    1  A    between atoms: C2_2  and  N2_6
REMARK    2  A    between atoms: C5_9  and  N3_10
REMARK       I    between atoms: N3_10  and  C6_12
REMARK    3  A    between atoms: C6_12  and  C7_14
REMARK       I    between atoms: C7_14  and  N4_16
REMARK    4  A    between atoms: N4_16  and  N5_18
ROOT
HETATM    1  N3  UNL     1      15.463  13.570  61.202  1.00  0.00    -0.348 N
ATOM      2  H3  UNL     1      16.360  14.051  61.129  1.00  0.00     0.163 HD
HETATM    3  C6  UNL     1      14.719  13.752  62.386  1.00  0.00     0.311 C
HETATM    4  O1  UNL     1      13.611  13.174  62.507  1.00  0.00    -0.262 OA
ENDROOT
BRANCH   1   5
HETATM    5  C5  UNL     1      15.053  12.760  60.097  1.00  0.00     0.087 C
HETATM    6  C4  UNL     1      15.153  13.495  58.802  1.00  0.00     0.045 C
HETATM    7  C3  UNL     1      15.548  12.570  57.666  1.00  0.00     0.126 C
HETATM    8  N2  UNL     1      14.785  11.351  57.834  1.00  0.00    -0.371 N
HETATM    9  C10 UNL     1      15.032  10.569  59.026  1.00  0.00     0.126 C
HETATM   10  C9  UNL     1      15.748  11.418  60.062  1.00  0.00     0.045 C
BRANCH   8  11
HETATM   11  C2  UNL     1      13.845  10.982  56.838  1.00  0.00     0.068 C
HETATM   12  C1  UNL     1      13.457   9.577  56.650  1.00  0.00     0.088 C
HETATM   13  N1  UNL     1      13.343  11.895  56.109  1.00  0.00    -0.389 N
ATOM     14  H12 UNL     1      12.667  11.630  55.393  1.00  0.00     0.157 HD
ATOM     15  H11 UNL     1      13.612  12.870  56.239  1.00  0.00     0.157 HD
ENDBRANCH   8  11
ENDBRANCH   1   5
BRANCH   3  16
HETATM   16  C7  UNL     1      15.192  14.587  63.468  1.00  0.00     0.327 C
HETATM   17  O2  UNL     1      15.348  15.812  63.255  1.00  0.00    -0.261 OA
HETATM   18  N4  UNL     1      15.476  14.048  64.744  1.00  0.00    -0.260 N
ATOM     19  H4  UNL     1      15.339  13.048  64.888  1.00  0.00     0.190 HD
BRANCH  18  20
HETATM   20  N5  UNL     1      15.933  14.814  65.814  1.00  0.00    -0.273 N
HETATM   21  C8  UNL     1      15.652  14.468  67.017  1.00  0.00     0.215 C
HETATM   22  N6  UNL     1      14.874  13.303  67.231  1.00  0.00    -0.065 NA
HETATM   23  N7  UNL     1      16.094  15.214  68.143  1.00  0.00    -0.065 NA
ATOM     24  H5  UNL     1      16.492  15.650  65.640  1.00  0.00     0.189 HD
ENDBRANCH  18  20
ENDBRANCH   3  16
TORSDOF 4
ENDMDL