MODEL 1
REMARK VINA RESULT: -6.572696075      0.000      0.000
REMARK  6 active torsions:
REMARK  status: ('A' for Active; 'I' for Inactive)
REMARK    1  A    between atoms: N1_2  and  C2_4
REMARK    2  A    between atoms: C2_4  and  N2_6
REMARK    3  A    between atoms: N2_6  and  N3_8
REMARK       I    between atoms: N3_8  and  C3_10
REMARK    4  A    between atoms: C3_10  and  C4_12
REMARK    5  A    between atoms: C4_12  and  N4_13
REMARK    6  A    between atoms: C4_12  and  C5_17
REMARK       I    between atoms: C5_17  and  N5_19
ROOT
HETATM    1  C4  UNL     1      14.260  11.190  58.683  1.00  0.00     0.367 C
ENDROOT
BRANCH   1   2
HETATM    2  C3  UNL     1      13.445  12.393  59.091  1.00  0.00     0.276 C
HETATM    3  N3  UNL     1      13.957  13.695  58.892  1.00  0.00    -0.266 N
ATOM      4  H3  UNL     1      14.879  13.796  58.467  1.00  0.00     0.190 HD
HETATM    5  O1  UNL     1      12.334  12.193  59.596  1.00  0.00    -0.269 OA
BRANCH   3   6
HETATM    6  N2  UNL     1      13.262  14.839  59.248  1.00  0.00    -0.274 N
ATOM      7  H2  UNL     1      12.591  15.229  58.587  1.00  0.00     0.189 HD
BRANCH   6   8
HETATM    8  C2  UNL     1      13.444  15.489  60.487  1.00  0.00     0.186 C
HETATM    9  S1  UNL     1      12.363  16.612  61.025  1.00  0.00    -0.040 SA
BRANCH   8  10
HETATM   10  N1  UNL     1      14.572  15.169  61.280  1.00  0.00    -0.370 N
HETATM   11  C1  UNL     1      14.430  14.261  62.428  1.00  0.00     0.148 C
ATOM     12  H1  UNL     1      15.483  15.569  61.056  1.00  0.00     0.161 HD
ENDBRANCH   8  10
ENDBRANCH   6   8
ENDBRANCH   3   6
ENDBRANCH   1   2
BRANCH   1  13
HETATM   13  N4  UNL     1      15.217  10.854  59.694  1.00  0.00    -0.058 N
ATOM     14  H43 UNL     1      15.748  10.019  59.447  1.00  0.00     0.275 HD
ATOM     15  H42 UNL     1      15.986  11.523  59.724  1.00  0.00     0.275 HD
ATOM     16  H41 UNL     1      14.767  10.758  60.604  1.00  0.00     0.275 HD
ENDBRANCH   1  13
BRANCH   1  17
HETATM   17  C5  UNL     1      14.837  11.342  57.334  1.00  0.00     0.260 C
HETATM   18  O2  UNL     1      15.695  12.273  57.151  1.00  0.00    -0.270 OA
HETATM   19  N5  UNL     1      14.481  10.509  56.254  1.00  0.00    -0.350 N
HETATM   20  C6  UNL     1      15.094  10.600  54.920  1.00  0.00     0.126 C
HETATM   21  C9  UNL     1      13.469   9.482  56.237  1.00  0.00     0.126 C
HETATM   22  C7  UNL     1      14.765   9.249  54.291  1.00  0.00     0.021 C
HETATM   23  C8  UNL     1      13.320   9.088  54.764  1.00  0.00     0.021 C
ENDBRANCH   1  17
TORSDOF 6
ENDMDL