MODEL 5
REMARK VINA RESULT: -6.557647692      2.413      3.062
REMARK  8 active torsions:
REMARK  status: ('A' for Active; 'I' for Inactive)
REMARK       I    between atoms: C1_2  and  N2_4
REMARK    1  A    between atoms: N2_4  and  N3_6
REMARK    2  A    between atoms: N3_6  and  C2_8
REMARK    3  A    between atoms: C2_8  and  N4_10
REMARK    4  A    between atoms: N4_10  and  N5_12
REMARK    5  A    between atoms: N5_12  and  C3_14
REMARK    6  A    between atoms: C3_14  and  C4_15
REMARK    7  A    between atoms: C4_15  and  N6_16
REMARK    8  A    between atoms: N7_21  and  O2_23
ROOT
HETATM    1  N5  UNL     1      15.523  12.688  58.574  1.00  0.00    -0.281 N
ATOM      2  H5  UNL     1      15.797  12.910  57.617  1.00  0.00     0.188 HD
ENDROOT
BRANCH   1   3
HETATM    3  N4  UNL     1      15.869  13.552  59.590  1.00  0.00    -0.273 N
ATOM      4  H4  UNL     1      16.849  13.817  59.693  1.00  0.00     0.189 HD
BRANCH   3   5
HETATM    5  C2  UNL     1      14.908  14.097  60.511  1.00  0.00     0.205 C
HETATM    6  S1  UNL     1      14.875  13.651  62.074  1.00  0.00    -0.038 SA
BRANCH   5   7
HETATM    7  N3  UNL     1      13.947  15.059  60.076  1.00  0.00    -0.271 N
ATOM      8  H3  UNL     1      14.113  16.040  60.303  1.00  0.00     0.189 HD
BRANCH   7   9
HETATM    9  N2  UNL     1      12.800  14.737  59.363  1.00  0.00    -0.252 N
HETATM   10  C1  UNL     1      11.549  14.455  59.967  1.00  0.00     0.347 C
HETATM   11  N1  UNL     1      10.401  14.129  59.172  1.00  0.00    -0.038 NA
HETATM   12  O1  UNL     1      11.462  14.493  61.226  1.00  0.00    -0.249 OA
ATOM     13  H2  UNL     1      12.861  14.702  58.346  1.00  0.00     0.191 HD
ENDBRANCH   7   9
ENDBRANCH   5   7
ENDBRANCH   3   5
ENDBRANCH   1   3
BRANCH   1  14
HETATM   14  C3  UNL     1      14.795  11.495  58.828  1.00  0.00     0.155 C
HETATM   15  N7  UNL     1      15.371  10.598  59.531  1.00  0.00    -0.251 N
ATOM     16  H7  UNL     1      14.868   9.732  59.726  1.00  0.00     0.196 HD
BRANCH  14  17
HETATM   17  C4  UNL     1      13.455  11.404  58.266  1.00  0.00     0.141 C
BRANCH  17  18
HETATM   18  N6  UNL     1      13.237  10.833  57.024  1.00  0.00    -0.366 N
HETATM   19  C5  UNL     1      14.156  11.150  55.990  1.00  0.00     0.128 C
HETATM   20  C6  UNL     1      14.183   9.972  55.043  1.00  0.00     0.025 C
HETATM   21  C7  UNL     1      13.563   8.863  55.826  1.00  0.00     0.046 C
HETATM   22  C8  UNL     1      12.648   9.625  56.778  1.00  0.00     0.063 C
ENDBRANCH  17  18
ENDBRANCH  14  17
BRANCH  15  23
HETATM   23  O2  UNL     1      16.623  10.747  60.029  1.00  0.00    -0.288 OA
ATOM     24  H2  UNL     1      17.026  11.598  60.161  1.00  0.00     0.244 HD
ENDBRANCH  15  23
ENDBRANCH   1  14
TORSDOF 8
ENDMDL