MODEL 3
REMARK VINA RESULT: -7.045441799      2.229      6.791
REMARK  3 active torsions:
REMARK  status: ('A' for Active; 'I' for Inactive)
REMARK       I    between atoms: N1_3  and  C3_5
REMARK    1  A    between atoms: C3_5  and  C4_7
REMARK    2  A    between atoms: C4_7  and  N2_9
REMARK       I    between atoms: N2_9  and  C6_11
REMARK    3  A    between atoms: C6_11  and  C7_13
REMARK       I    between atoms: N3_18  and  C11_19
ROOT
HETATM    1  C1  UNL     1      14.986  17.166  65.920  1.00  0.00     0.037 C
HETATM    2  C2  UNL     1      14.544  17.139  64.799  1.00  0.00     0.002 C
HETATM    3  N1  UNL     1      14.024  17.096  63.508  1.00  0.00    -0.285 N
ATOM      4  H1  UNL     1      13.683  17.957  63.081  1.00  0.00     0.179 HD
HETATM    5  C3  UNL     1      13.959  15.889  62.771  1.00  0.00     0.251 C
HETATM    6  O1  UNL     1      14.384  14.845  63.317  1.00  0.00    -0.270 OA
ENDROOT
BRANCH   5   7
HETATM    7  C4  UNL     1      13.418  15.790  61.399  1.00  0.00     0.173 C
HETATM    8  C5  UNL     1      12.021  16.384  61.303  1.00  0.00     0.042 C
BRANCH   7   9
HETATM    9  N2  UNL     1      13.400  14.436  60.915  1.00  0.00    -0.346 N
HETATM   10  C6  UNL     1      14.351  13.969  59.979  1.00  0.00     0.243 C
HETATM   11  O2  UNL     1      15.226  14.779  59.575  1.00  0.00    -0.271 OA
ATOM     12  H2  UNL     1      12.682  13.797  61.255  1.00  0.00     0.163 HD
BRANCH  10  13
HETATM   13  C7  UNL     1      14.319  12.550  59.481  1.00  0.00     0.202 C
HETATM   14  C8  UNL     1      14.590  11.577  60.596  1.00  0.00     0.202 C
HETATM   15  O3  UNL     1      15.908  11.169  60.670  1.00  0.00    -0.387 OA
HETATM   16  C9  UNL     1      16.423  10.719  59.471  1.00  0.00     0.187 C
HETATM   17  C10 UNL     1      16.547  11.969  58.587  1.00  0.00     0.152 C
HETATM   18  N3  UNL     1      15.192  12.389  58.355  1.00  0.00    -0.338 N
HETATM   19  C11 UNL     1      14.799  12.619  57.012  1.00  0.00     0.184 C
HETATM   20  N4  UNL     1      13.542  12.485  56.667  1.00  0.00    -0.374 N
HETATM   21  N5  UNL     1      15.706  12.995  55.999  1.00  0.00    -0.064 NA
ATOM     22  H42 UNL     1      12.886  12.214  57.400  1.00  0.00     0.158 HD
ATOM     23  H41 UNL     1      13.259  12.651  55.701  1.00  0.00     0.158 HD
ENDBRANCH  10  13
ENDBRANCH   7   9
ENDBRANCH   5   7
TORSDOF 3
ENDMDL