MODEL 5
REMARK VINA RESULT: -6.258964085      2.932      5.262
REMARK  6 active torsions:
REMARK  status: ('A' for Active; 'I' for Inactive)
REMARK       I    between atoms: C2_2  and  N1_4
REMARK    1  A    between atoms: N1_4  and  C3_6
REMARK    2  A    between atoms: C3_6  and  C4_7
REMARK       I    between atoms: C4_7  and  N2_9
REMARK    3  A    between atoms: N2_9  and  N3_11
REMARK    4  A    between atoms: N3_11  and  C6_13
REMARK    5  A    between atoms: C6_13  and  N4_15
REMARK    6  A    between atoms: N4_15  and  N5_17
REMARK       I    between atoms: N5_17  and  C7_19
ROOT
HETATM    1  N3  UNL     1      12.865  11.929  58.793  1.00  0.00    -0.271 N
ATOM      2  H3  UNL     1      12.479  11.004  58.983  1.00  0.00     0.189 HD
ENDROOT
BRANCH   1   3
HETATM    3  N2  UNL     1      12.592  12.891  59.762  1.00  0.00    -0.262 N
HETATM    4  C4  UNL     1      13.117  12.790  61.078  1.00  0.00     0.255 C
HETATM    5  O2  UNL     1      12.856  13.625  61.930  1.00  0.00    -0.270 OA
HETATM    6  C5  UNL     1      11.741  14.057  59.511  1.00  0.00     0.181 C
BRANCH   4   7
HETATM    7  C3  UNL     1      13.987  11.635  61.364  1.00  0.00     0.227 C
BRANCH   7   8
HETATM    8  N1  UNL     1      15.353  11.942  61.035  1.00  0.00    -0.353 N
HETATM    9  C2  UNL     1      16.142  11.074  60.238  1.00  0.00     0.213 C
HETATM   10  C1  UNL     1      17.559  11.392  59.893  1.00  0.00     0.117 C
HETATM   11  O1  UNL     1      15.717   9.976  59.759  1.00  0.00    -0.274 OA
ATOM     12  H1  UNL     1      15.766  12.807  61.384  1.00  0.00     0.162 HD
ENDBRANCH   7   8
ENDBRANCH   4   7
ENDBRANCH   1   3
BRANCH   1  13
HETATM   13  C6  UNL     1      13.582  12.035  57.610  1.00  0.00     0.205 C
HETATM   14  S1  UNL     1      14.920  13.012  57.492  1.00  0.00    -0.038 SA
BRANCH  13  15
HETATM   15  N4  UNL     1      13.224  11.348  56.423  1.00  0.00    -0.271 N
ATOM     16  H4  UNL     1      12.238  11.147  56.257  1.00  0.00     0.189 HD
BRANCH  15  17
HETATM   17  N5  UNL     1      14.147  10.937  55.480  1.00  0.00    -0.252 N
HETATM   18  C7  UNL     1      14.069   9.660  54.891  1.00  0.00     0.347 C
HETATM   19  N6  UNL     1      15.049   9.258  53.917  1.00  0.00    -0.038 NA
HETATM   20  O3  UNL     1      13.147   8.886  55.222  1.00  0.00    -0.249 OA
ATOM     21  H5  UNL     1      14.898  11.570  55.205  1.00  0.00     0.191 HD
ENDBRANCH  15  17
ENDBRANCH  13  15
ENDBRANCH   1  13
TORSDOF 6
ENDMDL