MODEL 3
REMARK VINA RESULT: -6.669997602      2.234      2.306
REMARK  5 active torsions:
REMARK  status: ('A' for Active; 'I' for Inactive)
REMARK    1  A    between atoms: N1_1  and  C1_5
REMARK    2  A    between atoms: C1_5  and  C2_6
REMARK    3  A    between atoms: C2_6  and  N2_7
REMARK    4  A    between atoms: N5_16  and  N6_17
REMARK       I    between atoms: N6_17  and  C8_19
REMARK    5  A    between atoms: C8_19  and  C9_21
ROOT
HETATM    1  C2  UNL     1      14.735  12.831  58.684  1.00  0.00     0.090 C
HETATM    2  C4  UNL     1      15.333  11.461  58.939  1.00  0.00     0.038 C
HETATM    3  C5  UNL     1      16.819  11.483  59.098  1.00  0.00     0.008 C
HETATM    4  C6  UNL     1      17.227  11.796  60.504  1.00  0.00     0.047 C
HETATM    5  C7  UNL     1      16.140  12.445  61.320  1.00  0.00     0.088 C
HETATM    6  N5  UNL     1      15.626  13.631  60.859  1.00  0.00    -0.281 N
HETATM    7  C10 UNL     1      15.245  13.899  59.564  1.00  0.00     0.121 C
ENDROOT
BRANCH   1   8
HETATM    8  C1  UNL     1      13.233  12.657  58.731  1.00  0.00     0.266 C
BRANCH   8   9
HETATM    9  N1  UNL     1      12.519  13.823  59.103  1.00  0.00    -0.077 N
ATOM     10  H13 UNL     1      11.877  13.617  59.869  1.00  0.00     0.274 HD
ATOM     11  H12 UNL     1      13.139  14.486  59.569  1.00  0.00     0.274 HD
ATOM     12  H11 UNL     1      12.024  14.277  58.336  1.00  0.00     0.274 HD
ENDBRANCH   8   9
ENDBRANCH   1   8
BRANCH   1  13
HETATM   13  N2  UNL     1      15.116  13.177  57.333  1.00  0.00    -0.351 N
HETATM   14  C3  UNL     1      14.914  12.537  56.268  1.00  0.00     0.197 C
HETATM   15  N3  UNL     1      14.253  11.300  56.121  1.00  0.00    -0.067 NA
HETATM   16  N4  UNL     1      15.411  13.128  55.066  1.00  0.00    -0.067 NA
ATOM     17  H2  UNL     1      15.616  14.060  57.229  1.00  0.00     0.163 HD
ENDBRANCH   1  13
BRANCH   6  18
HETATM   18  N6  UNL     1      15.621  14.763  61.660  1.00  0.00    -0.257 N
HETATM   19  C8  UNL     1      14.873  14.912  62.843  1.00  0.00     0.325 C
HETATM   20  O1  UNL     1      14.145  13.988  63.245  1.00  0.00    -0.261 OA
ATOM     21  H6  UNL     1      16.204  15.548  61.369  1.00  0.00     0.191 HD
BRANCH  19  22
HETATM   22  C9  UNL     1      14.936  16.134  63.607  1.00  0.00     0.324 C
HETATM   23  N7  UNL     1      13.801  16.749  64.203  1.00  0.00    -0.053 NA
HETATM   24  O2  UNL     1      16.049  16.722  63.777  1.00  0.00    -0.266 OA
ENDBRANCH  19  22
ENDBRANCH   6  18
TORSDOF 5
ENDMDL