MODEL 1
REMARK VINA RESULT: -7.590992594      0.000      0.000
REMARK  5 active torsions:
REMARK  status: ('A' for Active; 'I' for Inactive)
REMARK    1  A    between atoms: C2_2  and  N1_4
REMARK    2  A    between atoms: C2_2  and  C4_8
REMARK       I    between atoms: C4_8  and  N2_10
REMARK    3  A    between atoms: C8_14  and  C9_15
REMARK       I    between atoms: C9_15  and  N3_17
REMARK    4  A    between atoms: N3_17  and  N4_19
REMARK       I    between atoms: N4_19  and  C10_21
REMARK       I    between atoms: C10_21  and  N6_25
REMARK    5  A    between atoms: N6_25  and  O3_27
ROOT
HETATM    1  C4  UNL     1      14.450  15.293  62.926  1.00  0.00     0.256 C
HETATM    2  O1  UNL     1      13.500  16.162  62.862  1.00  0.00    -0.271 OA
HETATM    3  N2  UNL     1      14.364  14.111  62.183  1.00  0.00    -0.337 N
HETATM    4  C5  UNL     1      15.273  13.010  62.136  1.00  0.00     0.127 C
HETATM    5  C6  UNL     1      14.546  11.893  61.350  1.00  0.00     0.022 C
HETATM    6  C7  UNL     1      13.076  12.336  61.495  1.00  0.00     0.037 C
HETATM    7  C8  UNL     1      13.285  13.808  61.266  1.00  0.00     0.181 C
ENDROOT
BRANCH   7   8
HETATM    8  C9  UNL     1      13.760  13.959  59.857  1.00  0.00     0.259 C
HETATM    9  O2  UNL     1      14.464  14.907  59.464  1.00  0.00    -0.269 OA
HETATM   10  N3  UNL     1      13.369  12.944  58.941  1.00  0.00    -0.254 N
ATOM     11  H3  UNL     1      12.793  12.169  59.270  1.00  0.00     0.190 HD
BRANCH  10  12
HETATM   12  N4  UNL     1      13.760  12.988  57.594  1.00  0.00    -0.128 N
HETATM   13  C10 UNL     1      15.042  12.605  57.137  1.00  0.00     0.710 C
HETATM   14  N5  UNL     1      15.687  11.699  57.770  1.00  0.00    -0.232 N
HETATM   15  N6  UNL     1      15.628  13.201  55.995  1.00  0.00    -0.098 N
ATOM     16  H52 UNL     1      15.265  11.269  58.593  1.00  0.00     0.174 HD
ATOM     17  H51 UNL     1      16.612  11.422  57.441  1.00  0.00     0.174 HD
ATOM     18  H6  UNL     1      16.047  14.130  56.030  1.00  0.00     0.213 HD
ATOM     19  H4  UNL     1      13.082  13.316  56.906  1.00  0.00     0.205 HD
BRANCH  15  20
HETATM   20  O3  UNL     1      15.601  12.465  54.846  1.00  0.00    -0.276 OA
ATOM     21  H3  UNL     1      15.501  12.952  54.037  1.00  0.00     0.245 HD
ENDBRANCH  15  20
ENDBRANCH  10  12
ENDBRANCH   7   8
BRANCH   1  22
HETATM   22  C2  UNL     1      15.580  15.613  63.792  1.00  0.00     0.196 C
HETATM   23  C1  UNL     1      15.221  16.962  64.456  1.00  0.00     0.056 C
HETATM   24  C3  UNL     1      15.715  14.619  64.940  1.00  0.00     0.056 C
BRANCH  22  25
HETATM   25  N1  UNL     1      16.825  15.701  63.118  1.00  0.00    -0.062 N
ATOM     26  H13 UNL     1      16.703  15.896  62.124  1.00  0.00     0.275 HD
ATOM     27  H12 UNL     1      17.336  16.544  63.378  1.00  0.00     0.275 HD
ATOM     28  H11 UNL     1      17.380  14.859  63.273  1.00  0.00     0.275 HD
ENDBRANCH  22  25
ENDBRANCH   1  22
TORSDOF 5
ENDMDL