MODEL 3
REMARK VINA RESULT: -6.524196894      2.890      3.647
REMARK  8 active torsions:
REMARK  status: ('A' for Active; 'I' for Inactive)
REMARK    1  A    between atoms: C2_2  and  C4_4
REMARK    2  A    between atoms: C4_4  and  O1_5
REMARK    3  A    between atoms: C4_4  and  N1_7
REMARK    4  A    between atoms: N1_7  and  C5_9
REMARK    5  A    between atoms: C5_9  and  C6_10
REMARK    6  A    between atoms: C5_9  and  C8_15
REMARK       I    between atoms: C6_10  and  N2_12
REMARK       I    between atoms: C8_15  and  N3_17
REMARK    7  A    between atoms: N3_17  and  N4_19
REMARK    8  A    between atoms: N4_19  and  C9_21
ROOT
HETATM    1  C5  UNL     1      15.549  14.446  62.353  1.00  0.00     0.270 C
ENDROOT
BRANCH   1   2
HETATM    2  N1  UNL     1      16.259  13.145  62.297  1.00  0.00    -0.350 N
ATOM      3  H1  UNL     1      16.416  12.547  63.108  1.00  0.00     0.163 HD
BRANCH   2   4
HETATM    4  C4  UNL     1      16.702  12.822  60.959  1.00  0.00     0.142 C
BRANCH   4   5
HETATM    5  C2  UNL     1      16.839  11.623  60.253  1.00  0.00    -0.021 C
HETATM    6  C1  UNL     1      17.922  11.163  59.722  1.00  0.00     0.023 C
HETATM    7  C3  UNL     1      15.568  10.780  60.134  1.00  0.00     0.052 C
ENDBRANCH   4   5
BRANCH   4   8
HETATM    8  O1  UNL     1      17.055  13.886  60.247  1.00  0.00    -0.346 OA
ATOM      9  H1  UNL     1      16.361  14.531  60.175  1.00  0.00     0.219 HD
ENDBRANCH   4   8
ENDBRANCH   2   4
ENDBRANCH   1   2
BRANCH   1  10
HETATM   10  C6  UNL     1      15.546  15.083  63.655  1.00  0.00     0.249 C
HETATM   11  O2  UNL     1      15.551  16.366  63.750  1.00  0.00    -0.271 OA
HETATM   12  N2  UNL     1      15.530  14.386  64.921  1.00  0.00    -0.363 N
HETATM   13  C7  UNL     1      15.597  15.095  66.161  1.00  0.00     0.149 C
ATOM     14  H2  UNL     1      15.470  13.368  64.931  1.00  0.00     0.162 HD
ENDBRANCH   1  10
BRANCH   1  15
HETATM   15  C8  UNL     1      14.120  14.118  62.041  1.00  0.00     0.268 C
HETATM   16  O3  UNL     1      13.605  13.093  62.618  1.00  0.00    -0.269 OA
HETATM   17  N3  UNL     1      13.338  14.900  61.130  1.00  0.00    -0.266 N
ATOM     18  H3  UNL     1      13.744  15.717  60.673  1.00  0.00     0.190 HD
BRANCH  17  19
HETATM   19  N4  UNL     1      12.024  14.538  60.873  1.00  0.00    -0.276 N
ATOM     20  H4  UNL     1      11.314  14.796  61.559  1.00  0.00     0.189 HD
BRANCH  19  21
HETATM   21  C9  UNL     1      11.609  13.833  59.718  1.00  0.00     0.199 C
HETATM   22  N5  UNL     1      10.337  14.056  59.171  1.00  0.00    -0.068 NA
HETATM   23  S1  UNL     1      12.593  12.737  58.998  1.00  0.00    -0.043 SA
ENDBRANCH  19  21
ENDBRANCH  17  19
ENDBRANCH   1  15
TORSDOF 8
ENDMDL