MODEL 3
REMARK VINA RESULT: -7.047020881      1.731      6.293
REMARK  3 active torsions:
REMARK  status: ('A' for Active; 'I' for Inactive)
REMARK    1  A    between atoms: N1_2  and  N2_3
REMARK       I    between atoms: N2_3  and  C2_5
REMARK       I    between atoms: N4_7  and  C3_9
REMARK       I    between atoms: C3_9  and  N6_13
REMARK    2  A    between atoms: N6_13  and  C4_15
REMARK    3  A    between atoms: C4_15  and  C5_16
ROOT
HETATM    1  N2  UNL     1      13.729  10.706  55.418  1.00  0.00    -0.277 N
ATOM      2  H2  UNL     1      13.273  11.541  55.052  1.00  0.00     0.185 HD
HETATM    3  C2  UNL     1      13.172  10.029  56.542  1.00  0.00     0.218 C
HETATM    4  N3  UNL     1      12.349   8.884  56.363  1.00  0.00    -0.062 NA
HETATM    5  N4  UNL     1      13.401  10.437  57.754  1.00  0.00    -0.163 N
ATOM      6  H4  UNL     1      12.983   9.923  58.530  1.00  0.00     0.187 HD
HETATM    7  C3  UNL     1      14.203  11.561  58.041  1.00  0.00     0.674 C
HETATM    8  N5  UNL     1      14.150  12.582  57.278  1.00  0.00    -0.235 N
ATOM      9  H51 UNL     1      14.730  13.394  57.486  1.00  0.00     0.174 HD
ATOM     10  H52 UNL     1      13.528  12.573  56.470  1.00  0.00     0.174 HD
HETATM   11  N6  UNL     1      15.065  11.572  59.161  1.00  0.00    -0.224 N
ATOM     12  H6  UNL     1      16.055  11.353  59.047  1.00  0.00     0.177 HD
ENDROOT
BRANCH  11  13
HETATM   13  C4  UNL     1      14.549  11.890  60.449  1.00  0.00     0.173 C
BRANCH  13  14
HETATM   14  C5  UNL     1      14.097  13.298  60.642  1.00  0.00     0.244 C
HETATM   15  C6  UNL     1      14.343  13.821  62.034  1.00  0.00     0.068 C
HETATM   16  C7  UNL     1      13.963  15.284  62.051  1.00  0.00     0.276 C
HETATM   17  N7  UNL     1      12.753  15.574  61.346  1.00  0.00     0.112 N
HETATM   18  C8  UNL     1      12.484  16.976  61.391  1.00  0.00     0.312 C
HETATM   19  C9  UNL     1      12.701  15.032  60.004  1.00  0.00     0.542 C
HETATM   20  N8  UNL     1      12.778  13.571  60.163  1.00  0.00     0.118 N
HETATM   21  C10 UNL     1      11.702  13.112  60.972  1.00  0.00     0.312 C
ENDBRANCH  13  14
ENDBRANCH  11  13
BRANCH   1  22
HETATM   22  N1  UNL     1      14.897  10.231  54.815  1.00  0.00    -0.144 NA
HETATM   23  C1  UNL     1      14.574   9.227  53.833  1.00  0.00     0.159 C
ENDBRANCH   1  22
TORSDOF 3
ENDMDL