MODEL 5
REMARK VINA RESULT: -6.894487998      3.563      7.667
REMARK  5 active torsions:
REMARK  status: ('A' for Active; 'I' for Inactive)
REMARK    1  A    between atoms: C2_2  and  O1_3
REMARK    2  A    between atoms: C2_2  and  C3_5
REMARK       I    between atoms: C3_5  and  N1_7
REMARK    3  A    between atoms: N1_7  and  N2_9
REMARK       I    between atoms: N2_9  and  C4_11
REMARK       I    between atoms: C4_11  and  N6_19
REMARK    4  A    between atoms: N3_12  and  N4_14
REMARK    5  A    between atoms: N4_14  and  N5_16
REMARK       I    between atoms: N6_19  and  C5_20
REMARK       I    between atoms: C5_20  and  N7_22
ROOT
HETATM    1  N2  UNL     1      15.596  13.307  57.689  1.00  0.00    -0.255 N
ATOM      2  H2  UNL     1      16.481  13.554  57.247  1.00  0.00     0.191 HD
HETATM    3  C4  UNL     1      15.489  13.551  59.081  1.00  0.00     0.294 C
HETATM    4  N3  UNL     1      16.288  12.878  59.886  1.00  0.00    -0.244 N
ATOM      5  H3  UNL     1      16.191  13.068  60.884  1.00  0.00     0.192 HD
HETATM    6  N6  UNL     1      14.610  14.457  59.687  1.00  0.00    -0.313 NA
HETATM    7  C5  UNL     1      13.794  15.298  60.251  1.00  0.00     0.399 C
HETATM    8  O3  UNL     1      12.894  16.024  59.676  1.00  0.00    -0.230 OA
HETATM    9  N7  UNL     1      13.819  15.528  61.693  1.00  0.00    -0.322 N
HETATM   10  C6  UNL     1      14.675  14.923  62.686  1.00  0.00     0.129 C
HETATM   11  C7  UNL     1      14.955  16.119  63.589  1.00  0.00     0.022 C
HETATM   12  C8  UNL     1      13.633  16.856  63.670  1.00  0.00     0.022 C
HETATM   13  C9  UNL     1      12.958  16.453  62.382  1.00  0.00     0.129 C
ENDROOT
BRANCH   1  14
HETATM   14  N1  UNL     1      14.620  12.765  56.868  1.00  0.00    -0.264 N
HETATM   15  C3  UNL     1      14.266  11.392  56.949  1.00  0.00     0.264 C
HETATM   16  O2  UNL     1      14.867  10.659  57.804  1.00  0.00    -0.269 OA
ATOM     17  H1  UNL     1      14.147  13.364  56.192  1.00  0.00     0.190 HD
BRANCH  15  18
HETATM   18  C2  UNL     1      13.246  10.750  56.106  1.00  0.00     0.207 C
HETATM   19  C1  UNL     1      12.844   9.438  56.814  1.00  0.00     0.049 C
BRANCH  18  20
HETATM   20  O1  UNL     1      13.667  10.547  54.816  1.00  0.00    -0.386 OA
ATOM     21  H1  UNL     1      13.579  11.324  54.276  1.00  0.00     0.210 HD
ENDBRANCH  18  20
ENDBRANCH  15  18
ENDBRANCH   1  14
BRANCH   4  22
HETATM   22  N4  UNL     1      17.226  11.959  59.531  1.00  0.00    -0.246 N
ATOM     23  H4  UNL     1      17.985  12.274  58.927  1.00  0.00     0.208 HD
BRANCH  22  24
HETATM   24  N5  UNL     1      17.236  10.722  59.896  1.00  0.00    -0.331 N
ATOM     25  H52 UNL     1      17.434  10.039  59.165  1.00  0.00     0.178 HD
ATOM     26  H51 UNL     1      17.062  10.385  60.842  1.00  0.00     0.178 HD
ENDBRANCH  22  24
ENDBRANCH   4  22
TORSDOF 5
ENDMDL