MODEL 2
REMARK VINA RESULT: -8.979044215      2.313      6.224
REMARK  3 active torsions:
REMARK  status: ('A' for Active; 'I' for Inactive)
REMARK    1  A    between atoms: C2_2  and  C3_3
REMARK    2  A    between atoms: C3_3  and  C4_4
REMARK    3  A    between atoms: C13_13  and  N1_14
ROOT
HETATM    1  C4  UNL     1     -17.046  35.287  -4.676  1.00  0.00    -0.006 C
HETATM    2  C5  UNL     1     -18.403  35.905  -5.080  1.00  0.00     0.006 C
HETATM    3  C6  UNL     1     -19.047  36.379  -3.804  1.00  0.00     0.006 C
HETATM    4  C7  UNL     1     -18.309  35.636  -2.756  1.00  0.00    -0.002 C
HETATM    5  C8  UNL     1     -18.297  36.289  -1.419  1.00  0.00    -0.005 C
HETATM    6  C9  UNL     1     -19.711  36.407  -0.832  1.00  0.00     0.006 C
HETATM    7  C10 UNL     1     -19.640  37.115   0.498  1.00  0.00     0.012 C
HETATM    8  C11 UNL     1     -18.787  36.327   1.427  1.00  0.00    -0.012 C
HETATM    9  C12 UNL     1     -19.375  34.975   1.752  1.00  0.00     0.018 C
HETATM   10  C13 UNL     1     -18.438  37.007   2.710  1.00  0.00     0.192 C
HETATM   11  C14 UNL     1     -17.042  36.499   3.075  1.00  0.00     0.034 C
HETATM   12  C15 UNL     1     -16.596  35.647   1.881  1.00  0.00     0.008 C
HETATM   13  C16 UNL     1     -17.407  36.205   0.790  1.00  0.00     0.000 C
HETATM   14  C17 UNL     1     -17.537  35.397  -0.446  1.00  0.00    -0.005 C
HETATM   15  C18 UNL     1     -16.208  34.964  -0.960  1.00  0.00     0.006 C
HETATM   16  C19 UNL     1     -16.156  34.663  -2.422  1.00  0.00     0.010 C
HETATM   17  C20 UNL     1     -16.845  35.687  -3.266  1.00  0.00    -0.036 C
HETATM   18  C21 UNL     1     -16.280  37.042  -3.027  1.00  0.00     0.016 C
ENDROOT
BRANCH  10  19
HETATM   19  N1  UNL     1     -18.409  38.443   2.472  1.00  0.00    -0.074 N
ATOM     20  H13 UNL     1     -17.485  38.779   2.201  1.00  0.00     0.274 HD
ATOM     21  H12 UNL     1     -18.908  38.712   1.623  1.00  0.00     0.274 HD
ATOM     22  H11 UNL     1     -18.770  38.912   3.304  1.00  0.00     0.274 HD
ENDBRANCH  10  19
BRANCH   1  23
HETATM   23  C3  UNL     1     -16.076  35.751  -5.693  1.00  0.00     0.005 C
BRANCH  23  24
HETATM   24  C2  UNL     1     -14.935  34.830  -5.980  1.00  0.00    -0.004 C
HETATM   25  C1  UNL     1     -13.704  35.287  -5.178  1.00  0.00     0.005 C
ENDBRANCH  23  24
ENDBRANCH   1  23
TORSDOF 3
ENDMDL