MODEL 3
REMARK VINA RESULT: -8.931988026      1.724      2.053
REMARK  4 active torsions:
REMARK  status: ('A' for Active; 'I' for Inactive)
REMARK    1  A    between atoms: C2_2  and  N2_6
REMARK    2  A    between atoms: N2_6  and  C3_8
REMARK    3  A    between atoms: C6_11  and  C7_12
REMARK    4  A    between atoms: C7_12  and  C8_13
ROOT
HETATM    1  C3  UNL     1     -15.723  34.981  -3.340  1.00  0.00     0.082 C
HETATM    2  C4  UNL     1     -16.223  34.578  -1.976  1.00  0.00     0.025 C
HETATM    3  C5  UNL     1     -16.883  35.832  -1.373  1.00  0.00     0.007 C
HETATM    4  C6  UNL     1     -18.170  36.003  -2.071  1.00  0.00    -0.002 C
HETATM    5  C19 UNL     1     -17.907  36.210  -3.543  1.00  0.00     0.007 C
HETATM    6  C20 UNL     1     -16.424  36.193  -3.869  1.00  0.00     0.025 C
ENDROOT
BRANCH   4   7
HETATM    7  C7  UNL     1     -19.064  37.096  -1.505  1.00  0.00    -0.014 C
HETATM    8  C14 UNL     1     -20.502  36.904  -1.937  1.00  0.00     0.014 C
HETATM    9  C15 UNL     1     -21.324  38.143  -1.777  1.00  0.00     0.001 C
HETATM   10  C16 UNL     1     -20.822  39.172  -2.746  1.00  0.00     0.000 C
HETATM   11  C17 UNL     1     -19.344  39.187  -2.903  1.00  0.00     0.001 C
HETATM   12  C18 UNL     1     -18.578  38.463  -1.846  1.00  0.00     0.014 C
BRANCH   7  13
HETATM   13  C8  UNL     1     -18.899  36.940  -0.027  1.00  0.00    -0.075 C
HETATM   14  C9  UNL     1     -19.146  35.861   0.658  1.00  0.00    -0.023 C
HETATM   15  C10 UNL     1     -18.977  35.721   2.130  1.00  0.00     0.027 C
HETATM   16  C11 UNL     1     -18.667  36.992   2.842  1.00  0.00     0.004 C
HETATM   17  C12 UNL     1     -19.200  38.155   2.032  1.00  0.00     0.005 C
HETATM   18  C13 UNL     1     -18.408  38.134   0.717  1.00  0.00     0.034 C
ENDBRANCH   7  13
ENDBRANCH   4   7
BRANCH   1  19
HETATM   19  N2  UNL     1     -14.299  35.299  -3.228  1.00  0.00    -0.376 N
ATOM     20  H2  UNL     1     -13.992  35.973  -2.527  1.00  0.00     0.161 HD
BRANCH  19  21
HETATM   21  C2  UNL     1     -13.343  34.692  -4.066  1.00  0.00     0.066 C
HETATM   22  C1  UNL     1     -13.496  34.772  -5.529  1.00  0.00     0.088 C
HETATM   23  N1  UNL     1     -12.343  34.074  -3.565  1.00  0.00    -0.389 N
ATOM     24  H12 UNL     1     -11.651  33.634  -4.172  1.00  0.00     0.157 HD
ATOM     25  H11 UNL     1     -12.237  34.018  -2.552  1.00  0.00     0.157 HD
ENDBRANCH  19  21
ENDBRANCH   1  19
TORSDOF 4
ENDMDL