MODEL 2
REMARK VINA RESULT: -8.842543867      0.151      1.531
REMARK  6 active torsions:
REMARK  status: ('A' for Active; 'I' for Inactive)
REMARK    1  A    between atoms: C2_2  and  C19_21
REMARK    2  A    between atoms: C3_3  and  C4_4
REMARK    3  A    between atoms: C4_4  and  C6_6
REMARK    4  A    between atoms: C7_7  and  C8_8
REMARK    5  A    between atoms: C8_8  and  N1_9
REMARK    6  A    between atoms: N1_9  and  C9_11
ROOT
HETATM    1  C8  UNL     1     -20.239  36.039  -3.861  1.00  0.00     0.209 C
ENDROOT
BRANCH   1   2
HETATM    2  C7  UNL     1     -19.073  35.841  -2.999  1.00  0.00    -0.087 C
HETATM    3  C6  UNL     1     -18.109  35.700  -2.292  1.00  0.00    -0.097 C
BRANCH   3   4
HETATM    4  C4  UNL     1     -16.910  35.553  -1.407  1.00  0.00     0.083 C
HETATM    5  C5  UNL     1     -16.029  34.489  -1.923  1.00  0.00     0.027 C
BRANCH   4   6
HETATM    6  C3  UNL     1     -17.412  35.503  -0.053  1.00  0.00    -0.007 C
HETATM    7  C2  UNL     1     -18.049  36.329   0.717  1.00  0.00    -0.079 C
HETATM    8  C1  UNL     1     -18.443  37.688   0.295  1.00  0.00     0.044 C
BRANCH   7   9
HETATM    9  C19 UNL     1     -18.452  35.970   2.128  1.00  0.00    -0.029 C
HETATM   10  C20 UNL     1     -17.249  35.423   2.888  1.00  0.00     0.019 C
HETATM   11  C21 UNL     1     -18.870  37.269   2.780  1.00  0.00     0.019 C
HETATM   12  C22 UNL     1     -19.557  34.969   2.181  1.00  0.00     0.019 C
ENDBRANCH   7   9
ENDBRANCH   4   6
ENDBRANCH   3   4
ENDBRANCH   1   2
BRANCH   1  13
HETATM   13  N1  UNL     1     -19.959  37.130  -4.742  1.00  0.00    -0.403 N
ATOM     14  H1  UNL     1     -19.369  37.025  -5.567  1.00  0.00     0.154 HD
BRANCH  13  15
HETATM   15  C9  UNL     1     -20.560  38.375  -4.386  1.00  0.00     0.027 C
HETATM   16  C10 UNL     1     -21.169  38.291  -2.979  1.00  0.00     0.035 C
HETATM   17  C11 UNL     1     -21.648  39.634  -2.531  1.00  0.00    -0.012 C
HETATM   18  C12 UNL     1     -20.515  40.624  -2.485  1.00  0.00     0.009 C
HETATM   19  C16 UNL     1     -22.678  40.130  -3.512  1.00  0.00     0.009 C
HETATM   20  C13 UNL     1     -19.929  40.744  -3.868  1.00  0.00    -0.012 C
HETATM   21  C14 UNL     1     -20.928  41.205  -4.886  1.00  0.00     0.009 C
HETATM   22  C18 UNL     1     -19.427  39.388  -4.285  1.00  0.00     0.035 C
HETATM   23  C15 UNL     1     -22.077  40.229  -4.905  1.00  0.00    -0.012 C
HETATM   24  C17 UNL     1     -21.645  38.836  -5.300  1.00  0.00     0.035 C
ENDBRANCH  13  15
ENDBRANCH   1  13
TORSDOF 6
ENDMDL