MODEL 3
REMARK VINA RESULT: -8.719770030      2.699      3.641
REMARK  6 active torsions:
REMARK  status: ('A' for Active; 'I' for Inactive)
REMARK    1  A    between atoms: C4_4  and  C5_5
REMARK    2  A    between atoms: C6_6  and  C7_7
REMARK    3  A    between atoms: C9_9  and  C10_10
REMARK    4  A    between atoms: C10_10  and  C12_12
REMARK    5  A    between atoms: C19_19  and  O1_20
REMARK    6  A    between atoms: C20_22  and  O2_23
ROOT
HETATM    1  C12 UNL     1     -20.073  38.843  -2.415  1.00  0.00    -0.007 C
HETATM    2  C13 UNL     1     -20.856  37.876  -3.278  1.00  0.00     0.006 C
HETATM    3  C14 UNL     1     -20.209  37.700  -4.615  1.00  0.00     0.012 C
HETATM    4  C15 UNL     1     -18.800  37.284  -4.432  1.00  0.00    -0.012 C
HETATM    5  C16 UNL     1     -18.635  35.978  -3.709  1.00  0.00     0.018 C
HETATM    6  C17 UNL     1     -18.073  38.423  -3.703  1.00  0.00    -0.001 C
HETATM    7  C18 UNL     1     -16.653  37.996  -3.827  1.00  0.00     0.039 C
HETATM    8  C19 UNL     1     -16.577  37.146  -5.101  1.00  0.00     0.148 C
HETATM    9  C20 UNL     1     -17.987  37.230  -5.701  1.00  0.00     0.155 C
HETATM   10  C21 UNL     1     -18.610  38.464  -2.316  1.00  0.00     0.011 C
ENDROOT
BRANCH   1  11
HETATM   11  C10 UNL     1     -20.734  39.024  -1.078  1.00  0.00     0.008 C
HETATM   12  C11 UNL     1     -22.145  38.484  -1.170  1.00  0.00     0.014 C
BRANCH  11  13
HETATM   13  C9  UNL     1     -19.985  38.444   0.042  1.00  0.00    -0.015 C
HETATM   14  C7  UNL     1     -20.010  38.934   1.278  1.00  0.00    -0.065 C
HETATM   15  C8  UNL     1     -20.848  40.119   1.492  1.00  0.00     0.048 C
BRANCH  14  16
HETATM   16  C6  UNL     1     -19.253  38.313   2.325  1.00  0.00     0.006 C
HETATM   17  C5  UNL     1     -18.236  37.512   2.132  1.00  0.00     0.001 C
BRANCH  17  18
HETATM   18  C4  UNL     1     -17.501  36.908   3.264  1.00  0.00     0.002 C
HETATM   19  C2  UNL     1     -16.707  35.876   3.095  1.00  0.00    -0.088 C
HETATM   20  C1  UNL     1     -15.999  35.318   4.279  1.00  0.00     0.043 C
HETATM   21  C3  UNL     1     -16.512  35.268   1.748  1.00  0.00     0.043 C
ENDBRANCH  17  18
ENDBRANCH  14  16
ENDBRANCH  11  13
ENDBRANCH   1  11
BRANCH   9  22
HETATM   22  O2  UNL     1     -18.070  38.454  -6.355  1.00  0.00    -0.392 OA
ATOM     23  H2  UNL     1     -18.113  38.308  -7.293  1.00  0.00     0.210 HD
ENDBRANCH   9  22
BRANCH   8  24
HETATM   24  O1  UNL     1     -15.619  37.600  -5.973  1.00  0.00    -0.393 OA
ATOM     25  H1  UNL     1     -15.964  37.738  -6.847  1.00  0.00     0.210 HD
ENDBRANCH   8  24
TORSDOF 6
ENDMDL