MODEL 5
REMARK VINA RESULT: -7.800040388      2.306      4.759
REMARK  3 active torsions:
REMARK  status: ('A' for Active; 'I' for Inactive)
REMARK    1  A    between atoms: N1_2  and  C2_5
REMARK    2  A    between atoms: C2_5  and  C3_6
REMARK    3  A    between atoms: C3_6  and  C4_7
ROOT
HETATM    1  C4  UNL     1     -19.609  37.227  -0.450  1.00  0.00     0.038 C
HETATM    2  C5  UNL     1     -19.433  36.402   0.775  1.00  0.00    -0.007 C
HETATM    3  N2  UNL     1     -20.126  35.962   1.707  1.00  0.00    -0.405 N
ATOM      4  H21 UNL     1     -20.004  35.396   2.546  1.00  0.00     0.155 HD
ATOM      5  H22 UNL     1     -21.106  36.241   1.738  1.00  0.00     0.155 HD
HETATM    6  C6  UNL     1     -17.934  35.975   0.728  1.00  0.00    -0.005 C
HETATM    7  C7  UNL     1     -17.748  34.657   1.398  1.00  0.00     0.021 C
HETATM    8  C8  UNL     1     -17.214  37.076   1.473  1.00  0.00     0.021 C
HETATM    9  C9  UNL     1     -17.663  35.953  -0.731  1.00  0.00     0.008 C
HETATM   10  C10 UNL     1     -17.344  34.597  -1.329  1.00  0.00     0.033 C
HETATM   11  C11 UNL     1     -16.985  34.958  -2.760  1.00  0.00    -0.022 C
HETATM   12  C12 UNL     1     -17.575  35.959  -3.391  1.00  0.00    -0.067 C
HETATM   13  C13 UNL     1     -17.142  36.241  -4.819  1.00  0.00    -0.024 C
HETATM   14  C14 UNL     1     -17.705  35.301  -5.810  1.00  0.00     0.019 C
HETATM   15  C15 UNL     1     -15.611  36.131  -4.909  1.00  0.00     0.019 C
HETATM   16  C16 UNL     1     -17.416  37.715  -5.123  1.00  0.00     0.013 C
HETATM   17  C17 UNL     1     -17.104  38.476  -3.873  1.00  0.00     0.002 C
HETATM   18  C18 UNL     1     -18.110  38.242  -2.777  1.00  0.00     0.014 C
HETATM   19  C19 UNL     1     -18.639  36.822  -2.778  1.00  0.00    -0.015 C
HETATM   20  C20 UNL     1     -19.904  36.787  -3.616  1.00  0.00     0.020 C
HETATM   21  C21 UNL     1     -18.990  36.298  -1.452  1.00  0.00     0.013 C
ENDROOT
BRANCH   1  22
HETATM   22  C3  UNL     1     -20.998  37.654  -0.667  1.00  0.00     0.038 C
BRANCH  22  23
HETATM   23  C2  UNL     1     -21.196  39.097  -0.321  1.00  0.00     0.232 C
BRANCH  23  24
HETATM   24  N1  UNL     1     -21.884  39.816  -1.388  1.00  0.00    -0.079 N
HETATM   25  C1  UNL     1     -20.923  40.557  -2.176  1.00  0.00     0.266 C
ATOM     26  H12 UNL     1     -22.630  40.413  -1.030  1.00  0.00     0.276 HD
ATOM     27  H11 UNL     1     -22.455  39.195  -1.963  1.00  0.00     0.276 HD
ENDBRANCH  23  24
ENDBRANCH  22  23
ENDBRANCH   1  22
TORSDOF 3
ENDMDL