MODEL 3
REMARK VINA RESULT: -8.312230930      1.536      2.793
REMARK  5 active torsions:
REMARK  status: ('A' for Active; 'I' for Inactive)
REMARK    1  A    between atoms: C13_13  and  C15_15
REMARK    2  A    between atoms: C16_16  and  C17_17
REMARK    3  A    between atoms: C17_17  and  N2_22
REMARK    4  A    between atoms: N1_18  and  O1_20
REMARK    5  A    between atoms: N2_22  and  C18_24
ROOT
HETATM    1  C1  UNL     1     -16.455  34.321  -1.228  1.00  0.00     0.019 C
HETATM    2  C2  UNL     1     -16.322  34.961  -2.255  1.00  0.00    -0.064 C
HETATM    3  C3  UNL     1     -15.169  35.159  -3.234  1.00  0.00     0.038 C
HETATM    4  C4  UNL     1     -15.620  35.217  -4.634  1.00  0.00     0.006 C
HETATM    5  C5  UNL     1     -17.028  35.466  -4.964  1.00  0.00     0.015 C
HETATM    6  C6  UNL     1     -17.993  35.882  -3.934  1.00  0.00    -0.009 C
HETATM    7  C7  UNL     1     -19.178  34.880  -3.997  1.00  0.00     0.021 C
HETATM    8  C8  UNL     1     -17.424  35.982  -2.605  1.00  0.00    -0.065 C
HETATM    9  C9  UNL     1     -18.407  36.303  -1.557  1.00  0.00     0.036 C
HETATM   10  C10 UNL     1     -18.782  37.741  -1.840  1.00  0.00     0.009 C
HETATM   11  C11 UNL     1     -19.318  37.866  -3.252  1.00  0.00    -0.005 C
HETATM   12  C12 UNL     1     -20.799  37.525  -3.136  1.00  0.00     0.011 C
HETATM   13  C13 UNL     1     -18.573  37.291  -4.347  1.00  0.00    -0.012 C
HETATM   14  C14 UNL     1     -17.368  38.158  -4.688  1.00  0.00     0.021 C
ENDROOT
BRANCH  13  15
HETATM   15  C15 UNL     1     -19.259  37.083  -5.645  1.00  0.00    -0.012 C
HETATM   16  C16 UNL     1     -19.469  37.689  -6.743  1.00  0.00     0.047 C
BRANCH  16  17
HETATM   17  C17 UNL     1     -19.040  39.052  -7.246  1.00  0.00     0.120 C
HETATM   18  N1  UNL     1     -19.513  40.033  -6.726  1.00  0.00    -0.253 N
ATOM     19  H1  UNL     1     -20.169  39.865  -5.963  1.00  0.00     0.196 HD
BRANCH  18  20
HETATM   20  O1  UNL     1     -19.261  41.412  -7.056  1.00  0.00    -0.288 OA
ATOM     21  H1  UNL     1     -19.181  41.796  -7.921  1.00  0.00     0.244 HD
ENDBRANCH  18  20
BRANCH  17  22
HETATM   22  N2  UNL     1     -18.138  39.027  -8.332  1.00  0.00    -0.370 N
ATOM     23  H2  UNL     1     -17.776  39.911  -8.688  1.00  0.00     0.161 HD
BRANCH  22  24
HETATM   24  C18 UNL     1     -17.703  37.780  -8.969  1.00  0.00     0.083 A
HETATM   25  C19 UNL     1     -16.467  37.126  -8.573  1.00  0.00     0.027 A
HETATM   26  C20 UNL     1     -16.397  37.930  -9.825  1.00  0.00     0.027 A
ENDBRANCH  22  24
ENDBRANCH  17  22
ENDBRANCH  16  17
ENDBRANCH  13  15
TORSDOF 5
ENDMDL