MODEL 4
REMARK VINA RESULT: -8.814793189      1.685      6.101
REMARK  3 active torsions:
REMARK  status: ('A' for Active; 'I' for Inactive)
REMARK    1  A    between atoms: C2_2  and  C3_3
REMARK    2  A    between atoms: C3_3  and  C4_4
REMARK    3  A    between atoms: C9_9  and  N1_10
ROOT
HETATM    1  C4  UNL     1     -16.932  36.141  -6.695  1.00  0.00    -0.038 C
HETATM    2  C5  UNL     1     -16.997  34.841  -7.383  1.00  0.00     0.015 C
HETATM    3  C6  UNL     1     -15.499  36.652  -6.829  1.00  0.00     0.010 C
HETATM    4  C7  UNL     1     -14.544  35.665  -6.255  1.00  0.00     0.003 C
HETATM    5  C8  UNL     1     -14.982  35.024  -4.997  1.00  0.00     0.039 C
HETATM    6  C9  UNL     1     -16.112  35.807  -4.309  1.00  0.00     0.128 C
HETATM    7  C10 UNL     1     -16.426  35.011  -3.080  1.00  0.00     0.039 C
HETATM    8  C11 UNL     1     -17.232  35.546  -2.014  1.00  0.00     0.008 C
HETATM    9  C12 UNL     1     -18.144  36.695  -2.180  1.00  0.00    -0.006 C
HETATM   10  C13 UNL     1     -19.278  36.557  -3.135  1.00  0.00    -0.010 C
HETATM   11  C14 UNL     1     -20.663  36.626  -2.464  1.00  0.00     0.005 C
HETATM   12  C15 UNL     1     -20.856  37.805  -1.574  1.00  0.00     0.006 C
HETATM   13  C16 UNL     1     -19.537  38.310  -1.153  1.00  0.00    -0.006 A
HETATM   14  C17 UNL     1     -18.734  38.108  -0.007  1.00  0.00    -0.009 A
HETATM   15  C18 UNL     1     -19.441  38.001   1.347  1.00  0.00     0.011 C
HETATM   16  C19 UNL     1     -18.767  36.988  -0.850  1.00  0.00    -0.002 A
HETATM   17  C20 UNL     1     -19.310  35.267  -3.887  1.00  0.00     0.005 C
HETATM   18  C21 UNL     1     -18.419  35.111  -5.039  1.00  0.00     0.008 C
HETATM   19  C22 UNL     1     -17.278  36.064  -5.197  1.00  0.00     0.029 C
ENDROOT
BRANCH   1  20
HETATM   20  C3  UNL     1     -17.867  37.131  -7.322  1.00  0.00     0.009 C
BRANCH  20  21
HETATM   21  C2  UNL     1     -18.494  38.171  -6.497  1.00  0.00    -0.004 C
HETATM   22  C1  UNL     1     -19.986  38.242  -6.431  1.00  0.00     0.005 C
ENDBRANCH  20  21
ENDBRANCH   1  20
BRANCH   6  23
HETATM   23  N1  UNL     1     -15.472  37.075  -4.010  1.00  0.00    -0.070 N
ATOM     24  H13 UNL     1     -14.584  37.002  -3.514  1.00  0.00     0.275 HD
ATOM     25  H12 UNL     1     -15.094  37.567  -4.819  1.00  0.00     0.275 HD
ATOM     26  H11 UNL     1     -16.205  37.576  -3.507  1.00  0.00     0.275 HD
ENDBRANCH   6  23
TORSDOF 3
ENDMDL