MODEL 1
REMARK VINA RESULT: -9.877694369      0.000      0.000
REMARK  4 active torsions:
REMARK  status: ('A' for Active; 'I' for Inactive)
REMARK    1  A    between atoms: C7_7  and  C8_8
REMARK    2  A    between atoms: C8_8  and  O1_9
REMARK    3  A    between atoms: C8_8  and  C9_11
REMARK    4  A    between atoms: C9_11  and  C10_12
ROOT
HETATM    1  C1  UNL     1     -23.072  40.147  -2.254  1.00  0.00     0.015 C
HETATM    2  C2  UNL     1     -21.641  40.249  -1.788  1.00  0.00    -0.040 A
HETATM    3  C3  UNL     1     -21.612  40.553  -0.305  1.00  0.00     0.010 A
HETATM    4  C4  UNL     1     -20.831  39.297  -0.076  1.00  0.00     0.006 A
HETATM    5  C5  UNL     1     -20.957  38.905  -1.541  1.00  0.00    -0.001 A
HETATM    6  C6  UNL     1     -19.653  38.927  -2.212  1.00  0.00     0.011 C
HETATM    7  C7  UNL     1     -18.691  37.856  -2.013  1.00  0.00     0.025 C
HETATM    8  C16 UNL     1     -17.994  37.726  -3.376  1.00  0.00     0.060 C
HETATM    9  C17 UNL     1     -18.485  38.855  -4.194  1.00  0.00    -0.011 C
HETATM   10  N1  UNL     1     -17.862  39.446  -5.101  1.00  0.00    -0.405 N
ATOM     11  H11 UNL     1     -18.201  40.224  -5.666  1.00  0.00     0.155 HD
ATOM     12  H12 UNL     1     -16.916  39.253  -5.431  1.00  0.00     0.155 HD
HETATM   13  C18 UNL     1     -19.855  39.134  -3.716  1.00  0.00    -0.001 C
HETATM   14  C19 UNL     1     -20.776  38.149  -4.344  1.00  0.00     0.022 C
HETATM   15  C20 UNL     1     -20.297  40.558  -3.905  1.00  0.00     0.016 C
HETATM   16  C21 UNL     1     -20.847  41.163  -2.649  1.00  0.00     0.010 C
ENDROOT
BRANCH   7  17
HETATM   17  C8  UNL     1     -19.125  36.531  -1.561  1.00  0.00     0.123 C
BRANCH  17  18
HETATM   18  O1  UNL     1     -19.144  35.510  -2.450  1.00  0.00    -0.395 OA
ATOM     19  H1  UNL     1     -18.842  34.654  -2.172  1.00  0.00     0.210 HD
ENDBRANCH  17  18
BRANCH  17  20
HETATM   20  C9  UNL     1     -18.193  36.093  -0.422  1.00  0.00     0.036 C
BRANCH  20  21
HETATM   21  C10 UNL     1     -18.885  36.328   0.921  1.00  0.00    -0.012 C
HETATM   22  C11 UNL     1     -18.614  35.175   1.831  1.00  0.00     0.005 C
HETATM   23  C12 UNL     1     -17.264  35.272   2.522  1.00  0.00     0.000 C
HETATM   24  C13 UNL     1     -17.129  36.529   3.339  1.00  0.00     0.000 C
HETATM   25  C14 UNL     1     -18.233  37.522   3.024  1.00  0.00     0.000 C
HETATM   26  C15 UNL     1     -18.323  37.605   1.512  1.00  0.00     0.005 C
ENDBRANCH  20  21
ENDBRANCH  17  20
ENDBRANCH   7  17
TORSDOF 4
ENDMDL