MODEL 2
REMARK VINA RESULT: -8.829486376      1.891      2.522
REMARK  3 active torsions:
REMARK  status: ('A' for Active; 'I' for Inactive)
REMARK    1  A    between atoms: C4_4  and  C5_5
REMARK    2  A    between atoms: C5_5  and  C6_6
REMARK    3  A    between atoms: C6_6  and  C7_7
ROOT
HETATM    1  C7  UNL     1     -19.503  37.593  -2.092  1.00  0.00     0.127 C
HETATM    2  C8  UNL     1     -20.586  37.535  -1.053  1.00  0.00     0.046 C
HETATM    3  N1  UNL     1     -19.990  36.900  -3.269  1.00  0.00    -0.066 N
ATOM      4  H11 UNL     1     -21.009  36.870  -3.311  1.00  0.00     0.278 HD
ATOM      5  H12 UNL     1     -19.822  35.894  -3.229  1.00  0.00     0.278 HD
HETATM    6  C9  UNL     1     -19.412  37.507  -4.424  1.00  0.00     0.243 C
HETATM    7  C10 UNL     1     -18.797  38.814  -4.027  1.00  0.00    -0.010 C
HETATM    8  C11 UNL     1     -17.271  38.634  -4.076  1.00  0.00     0.018 C
HETATM    9  C12 UNL     1     -19.202  38.958  -2.598  1.00  0.00     0.031 C
HETATM   10  C13 UNL     1     -20.343  39.864  -2.330  1.00  0.00     0.009 C
HETATM   11  C14 UNL     1     -20.431  41.073  -3.214  1.00  0.00     0.010 C
HETATM   12  C15 UNL     1     -20.445  40.623  -4.627  1.00  0.00    -0.036 C
HETATM   13  C16 UNL     1     -21.625  39.813  -5.026  1.00  0.00     0.016 C
HETATM   14  C17 UNL     1     -20.336  41.762  -5.637  1.00  0.00    -0.010 C
HETATM   15  C18 UNL     1     -21.685  42.349  -5.962  1.00  0.00     0.011 C
HETATM   16  C19 UNL     1     -19.780  41.041  -6.859  1.00  0.00     0.005 C
HETATM   17  C20 UNL     1     -19.145  39.748  -6.338  1.00  0.00     0.006 C
HETATM   18  C21 UNL     1     -19.118  39.962  -4.887  1.00  0.00     0.004 C
ENDROOT
BRANCH   1  19
HETATM   19  C6  UNL     1     -18.331  36.822  -1.580  1.00  0.00     0.042 C
BRANCH  19  20
HETATM   20  C5  UNL     1     -18.203  35.442  -2.178  1.00  0.00     0.030 C
BRANCH  20  21
HETATM   21  C4  UNL     1     -16.829  35.317  -2.741  1.00  0.00    -0.025 C
HETATM   22  C2  UNL     1     -15.841  34.747  -2.062  1.00  0.00    -0.091 C
HETATM   23  C1  UNL     1     -14.471  34.625  -2.629  1.00  0.00     0.042 C
HETATM   24  C3  UNL     1     -16.052  34.194  -0.684  1.00  0.00     0.042 C
ENDBRANCH  20  21
ENDBRANCH  19  20
ENDBRANCH   1  19
TORSDOF 3
ENDMDL