MODEL 1
REMARK VINA RESULT: -8.585992287      0.000      0.000
REMARK  6 active torsions:
REMARK  status: ('A' for Active; 'I' for Inactive)
REMARK    1  A    between atoms: N1_1  and  N2_4
REMARK    2  A    between atoms: C1_5  and  S1_6
REMARK    3  A    between atoms: S1_6  and  C2_7
REMARK    4  A    between atoms: C2_7  and  C3_8
REMARK       I    between atoms: C3_8  and  N3_10
REMARK    5  A    between atoms: N3_10  and  C4_12
REMARK    6  A    between atoms: N4_15  and  C7_16
ROOT
HETATM    1  N2  UNL     1      41.023   7.055  49.277  1.00  0.00    -0.221 N
HETATM    2  C1  UNL     1      41.098   6.540  50.538  1.00  0.00     0.182 A
HETATM    3  N5  UNL     1      40.353   5.435  50.546  1.00  0.00    -0.277 N
ATOM      4  H5  UNL     1      40.203   4.818  51.344  1.00  0.00     0.189 HD
HETATM    5  N6  UNL     1      39.848   5.282  49.346  1.00  0.00    -0.281 N
ATOM      6  H6  UNL     1      39.237   4.513  49.071  1.00  0.00     0.188 HD
HETATM    7  C14 UNL     1      40.248   6.288  48.513  1.00  0.00     0.154 A
HETATM    8  C15 UNL     1      39.863   6.407  47.132  1.00  0.00     0.014 A
HETATM    9  C16 UNL     1      39.025   5.455  46.544  1.00  0.00     0.032 A
HETATM   10  C17 UNL     1      38.614   5.491  45.260  1.00  0.00     0.088 A
HETATM   11  N7  UNL     1      39.031   6.507  44.473  1.00  0.00    -0.375 N
ATOM     12  H7  UNL     1      38.736   6.558  43.498  1.00  0.00     0.164 HD
HETATM   13  C18 UNL     1      39.838   7.446  44.988  1.00  0.00     0.088 A
HETATM   14  C19 UNL     1      40.277   7.429  46.320  1.00  0.00     0.032 A
ENDROOT
BRANCH   2  15
HETATM   15  S1  UNL     1      41.994   7.188  51.925  1.00  0.00    -0.081 SA
BRANCH  15  16
HETATM   16  C2  UNL     1      41.352   8.814  52.344  1.00  0.00     0.185 C
BRANCH  16  17
HETATM   17  C3  UNL     1      42.290   9.888  51.946  1.00  0.00     0.227 C
HETATM   18  O1  UNL     1      43.324   9.571  51.314  1.00  0.00    -0.273 OA
HETATM   19  N3  UNL     1      42.050  11.253  52.259  1.00  0.00    -0.356 N
ATOM     20  H3  UNL     1      41.205  11.502  52.775  1.00  0.00     0.162 HD
BRANCH  19  21
HETATM   21  C4  UNL     1      42.973  12.307  51.866  1.00  0.00     0.087 C
HETATM   22  C5  UNL     1      43.127  13.247  53.021  1.00  0.00     0.055 C
HETATM   23  C6  UNL     1      42.902  14.693  52.654  1.00  0.00     0.275 C
HETATM   24  N4  UNL     1      43.678  14.973  51.484  1.00  0.00     0.093 N
HETATM   25  C12 UNL     1      43.079  14.338  50.364  1.00  0.00     0.275 C
HETATM   26  C13 UNL     1      42.613  12.938  50.577  1.00  0.00     0.055 C
BRANCH  24  27
HETATM   27  C7  UNL     1      43.885  16.353  51.248  1.00  0.00     0.223 C
HETATM   28  C8  UNL     1      44.163  16.762  49.839  1.00  0.00     0.036 C
HETATM   29  C9  UNL     1      44.141  18.295  49.960  1.00  0.00     0.002 C
HETATM   30  C10 UNL     1      43.280  18.598  51.176  1.00  0.00     0.002 C
HETATM   31  C11 UNL     1      42.678  17.236  51.565  1.00  0.00     0.036 C
ENDBRANCH  24  27
ENDBRANCH  19  21
ENDBRANCH  16  17
ENDBRANCH  15  16
ENDBRANCH   2  15
BRANCH   1  32
HETATM   32  N1  UNL     1      41.704   8.224  48.950  1.00  0.00    -0.335 N
ATOM     33  H12 UNL     1      42.213   8.867  49.557  1.00  0.00     0.177 HD
ATOM     34  H11 UNL     1      41.742   8.548  47.983  1.00  0.00     0.177 HD
ENDBRANCH   1  32
TORSDOF 6
ENDMDL