MODEL 4
REMARK VINA RESULT: -6.573857279      4.160      5.626
REMARK  10 active torsions:
REMARK  status: ('A' for Active; 'I' for Inactive)
REMARK    1  A    between atoms: C2_2  and  C3_3
REMARK    2  A    between atoms: C3_3  and  C4_4
REMARK    3  A    between atoms: C4_4  and  C5_5
REMARK    4  A    between atoms: C5_5  and  O2_7
REMARK    5  A    between atoms: O2_7  and  C6_8
REMARK    6  A    between atoms: C9_11  and  O3_12
REMARK    7  A    between atoms: C14_20  and  O6_21
REMARK    8  A    between atoms: O6_21  and  C15_22
REMARK    9  A    between atoms: C15_22  and  C16_24
REMARK   10  A    between atoms: C18_26  and  O8_27
ROOT
HETATM    1  C6  UNL     1      42.144   9.491  49.582  1.00  0.00     0.145 C
HETATM    2  C7  UNL     1      41.680   9.546  50.994  1.00  0.00     0.036 C
HETATM    3  C8  UNL     1      41.817   8.305  51.780  1.00  0.00     0.049 C
HETATM    4  C9  UNL     1      43.105   7.589  51.636  1.00  0.00     0.140 C
HETATM    5  C10 UNL     1      43.843   7.801  50.384  1.00  0.00     0.178 C
HETATM    6  O4  UNL     1      43.946   6.396  50.249  1.00  0.00    -0.343 OA
HETATM    7  C11 UNL     1      43.055   6.134  51.264  1.00  0.00     0.194 C
HETATM    8  C12 UNL     1      43.535   5.192  52.338  1.00  0.00     0.082 C
HETATM    9  O5  UNL     1      41.849   5.684  50.747  1.00  0.00    -0.350 OA
HETATM   10  C13 UNL     1      42.006   5.365  49.415  1.00  0.00     0.206 C
HETATM   11  C14 UNL     1      41.575   6.539  48.565  1.00  0.00     0.185 C
HETATM   12  C18 UNL     1      42.653   7.457  48.200  1.00  0.00     0.163 C
HETATM   13  C19 UNL     1      43.129   8.429  49.251  1.00  0.00     0.041 C
HETATM   14  C20 UNL     1      44.242   9.157  48.450  1.00  0.00     0.023 C
ENDROOT
BRANCH   1  15
HETATM   15  O2  UNL     1      42.587  10.809  49.258  1.00  0.00    -0.315 OA
BRANCH  15  16
HETATM   16  C5  UNL     1      42.393  11.908  50.050  1.00  0.00     0.259 C
HETATM   17  O1  UNL     1      41.377  12.602  49.877  1.00  0.00    -0.265 OA
BRANCH  16  18
HETATM   18  C4  UNL     1      43.435  12.190  51.078  1.00  0.00     0.115 C
BRANCH  18  19
HETATM   19  C3  UNL     1      44.763  12.491  50.492  1.00  0.00     0.036 C
BRANCH  19  20
HETATM   20  C2  UNL     1      45.144  13.886  50.798  1.00  0.00    -0.036 C
HETATM   21  C1  UNL     1      44.456  14.899  50.308  1.00  0.00     0.007 C
ENDBRANCH  19  20
ENDBRANCH  18  19
ENDBRANCH  16  18
ENDBRANCH  15  16
ENDBRANCH   1  15
BRANCH  12  22
HETATM   22  O8  UNL     1      43.778   6.726  47.792  1.00  0.00    -0.392 OA
ATOM     23  H8  UNL     1      44.216   7.182  47.083  1.00  0.00     0.210 HD
ENDBRANCH  12  22
BRANCH   4  24
HETATM   24  O3  UNL     1      43.883   7.731  52.810  1.00  0.00    -0.382 OA
ATOM     25  H3  UNL     1      44.213   6.885  53.092  1.00  0.00     0.211 HD
ENDBRANCH   4  24
BRANCH  11  26
HETATM   26  O6  UNL     1      40.958   6.074  47.357  1.00  0.00    -0.311 OA
BRANCH  26  27
HETATM   27  C15 UNL     1      39.691   6.393  46.961  1.00  0.00     0.258 C
HETATM   28  O7  UNL     1      38.739   5.749  47.442  1.00  0.00    -0.265 OA
BRANCH  27  29
HETATM   29  C16 UNL     1      39.387   7.470  45.987  1.00  0.00     0.106 C
HETATM   30  C17 UNL     1      37.922   7.463  45.609  1.00  0.00     0.015 C
ENDBRANCH  27  29
ENDBRANCH  26  27
ENDBRANCH  11  26
TORSDOF 10
ENDMDL