MODEL 5
REMARK VINA RESULT: -7.403513702      2.249      3.512
REMARK  9 active torsions:
REMARK  status: ('A' for Active; 'I' for Inactive)
REMARK    1  A    between atoms: C2_2  and  O2_4
REMARK    2  A    between atoms: O2_4  and  C3_5
REMARK    3  A    between atoms: C6_8  and  O3_9
REMARK    4  A    between atoms: O3_9  and  C7_10
REMARK    5  A    between atoms: C7_10  and  C8_11
REMARK    6  A    between atoms: C14_17  and  C15_18
REMARK    7  A    between atoms: C15_18  and  O4_20
REMARK    8  A    between atoms: C17_22  and  O5_24
REMARK    9  A    between atoms: O5_24  and  C19_25
ROOT
HETATM    1  C3  UNL     1      41.613   7.680  48.198  1.00  0.00     0.270 C
HETATM    2  C4  UNL     1      41.939   9.125  48.393  1.00  0.00     0.071 C
HETATM    3  C5  UNL     1      43.004   9.018  49.473  1.00  0.00     0.052 C
HETATM    4  C6  UNL     1      42.764   9.954  50.631  1.00  0.00     0.138 C
HETATM    5  C14 UNL     1      42.766   9.130  51.878  1.00  0.00     0.081 C
HETATM    6  C17 UNL     1      42.857   7.712  51.507  1.00  0.00     0.102 C
HETATM    7  C18 UNL     1      41.734   6.838  52.053  1.00  0.00     0.050 C
HETATM    8  C21 UNL     1      42.759   7.658  50.006  1.00  0.00     0.166 C
HETATM    9  O7  UNL     1      41.516   7.235  49.526  1.00  0.00    -0.352 OA
ENDROOT
BRANCH   4  10
HETATM   10  O3  UNL     1      43.788  10.903  50.654  1.00  0.00    -0.380 OA
BRANCH  10  11
HETATM   11  C7  UNL     1      43.391  12.167  50.990  1.00  0.00     0.206 C
BRANCH  11  12
HETATM   12  C8  UNL     1      43.544  13.027  49.767  1.00  0.00    -0.035 A
HETATM   13  C9  UNL     1      43.083  12.626  48.529  1.00  0.00     0.009 A
HETATM   14  C10 UNL     1      43.240  13.439  47.427  1.00  0.00     0.001 A
HETATM   15  C11 UNL     1      43.855  14.669  47.509  1.00  0.00     0.000 A
HETATM   16  C12 UNL     1      44.315  15.069  48.744  1.00  0.00     0.001 A
HETATM   17  C13 UNL     1      44.159  14.263  49.837  1.00  0.00     0.009 A
ENDBRANCH  11  12
ENDBRANCH  10  11
ENDBRANCH   4  10
BRANCH   5  18
HETATM   18  C15 UNL     1      41.609   9.525  52.739  1.00  0.00     0.123 C
HETATM   19  C16 UNL     1      40.507  10.270  52.044  1.00  0.00     0.040 C
BRANCH  18  20
HETATM   20  O4  UNL     1      42.084  10.330  53.770  1.00  0.00    -0.395 OA
ATOM     21  H4  UNL     1      42.698  10.955  53.403  1.00  0.00     0.210 HD
ENDBRANCH  18  20
ENDBRANCH   5  18
BRANCH   6  22
HETATM   22  O5  UNL     1      44.062   7.060  51.826  1.00  0.00    -0.307 OA
BRANCH  22  23
HETATM   23  C19 UNL     1      44.410   5.779  51.528  1.00  0.00     0.255 C
HETATM   24  C20 UNL     1      45.121   5.426  50.278  1.00  0.00     0.126 C
HETATM   25  O6  UNL     1      44.087   4.940  52.377  1.00  0.00    -0.266 OA
ENDBRANCH  22  23
ENDBRANCH   6  22
BRANCH   1  26
HETATM   26  O2  UNL     1      40.549   7.367  47.403  1.00  0.00    -0.290 OA
BRANCH  26  27
HETATM   27  C2  UNL     1      40.067   6.099  47.238  1.00  0.00     0.257 C
HETATM   28  C1  UNL     1      40.743   5.009  46.509  1.00  0.00     0.126 C
HETATM   29  O1  UNL     1      38.953   5.871  47.761  1.00  0.00    -0.266 OA
ENDBRANCH  26  27
ENDBRANCH   1  26
TORSDOF 9
ENDMDL