MODEL 2
REMARK VINA RESULT: -7.915932913      2.703      3.730
REMARK  9 active torsions:
REMARK  status: ('A' for Active; 'I' for Inactive)
REMARK    1  A    between atoms: C3_3  and  C4_4
REMARK    2  A    between atoms: C4_4  and  C5_5
REMARK    3  A    between atoms: C4_4  and  C7_9
REMARK    4  A    between atoms: C5_5  and  O2_7
REMARK    5  A    between atoms: C7_9  and  O3_10
REMARK    6  A    between atoms: C7_9  and  O4_12
REMARK    7  A    between atoms: O4_12  and  C8_13
REMARK    8  A    between atoms: C10_15  and  C11_16
REMARK    9  A    between atoms: C19_27  and  N1_28
ROOT
HETATM    1  C8  UNL     1      42.569  10.251  47.979  1.00  0.00     0.174 C
HETATM    2  C9  UNL     1      43.239  11.554  48.281  1.00  0.00     0.044 C
HETATM    3  C10 UNL     1      42.830  12.618  47.597  1.00  0.00     0.077 C
HETATM    4  O7  UNL     1      41.823  12.387  46.678  1.00  0.00    -0.348 OA
HETATM    5  C18 UNL     1      41.872  11.268  45.814  1.00  0.00     0.203 C
HETATM    6  C19 UNL     1      42.457  10.052  46.487  1.00  0.00     0.135 C
ENDROOT
BRANCH   1   7
HETATM    7  O4  UNL     1      43.215   9.261  48.659  1.00  0.00    -0.349 OA
BRANCH   7   8
HETATM    8  C7  UNL     1      43.123   9.471  50.016  1.00  0.00     0.274 C
BRANCH   8   9
HETATM    9  C4  UNL     1      42.383   8.357  50.748  1.00  0.00     0.163 C
BRANCH   9  10
HETATM   10  C3  UNL     1      41.181   8.980  51.350  1.00  0.00    -0.012 C
HETATM   11  C2  UNL     1      40.871  10.255  51.332  1.00  0.00    -0.034 C
HETATM   12  C1  UNL     1      39.600  10.716  51.997  1.00  0.00     0.036 C
ENDBRANCH   9  10
BRANCH   9  13
HETATM   13  C5  UNL     1      43.277   7.835  51.832  1.00  0.00     0.271 C
HETATM   14  O1  UNL     1      43.219   8.389  52.943  1.00  0.00    -0.264 OA
BRANCH  13  15
HETATM   15  O2  UNL     1      44.145   6.789  51.660  1.00  0.00    -0.326 OA
HETATM   16  C6  UNL     1      43.713   5.423  51.651  1.00  0.00     0.213 C
ENDBRANCH  13  15
ENDBRANCH   9  13
ENDBRANCH   8   9
BRANCH   8  17
HETATM   17  O3  UNL     1      44.411   9.495  50.605  1.00  0.00    -0.370 OA
ATOM     18  H3  UNL     1      44.346  10.138  51.302  1.00  0.00     0.212 HD
ENDBRANCH   8  17
ENDBRANCH   7   8
ENDBRANCH   1   7
BRANCH   6  19
HETATM   19  N1  UNL     1      43.626   9.555  45.888  1.00  0.00    -0.412 N
HETATM   20  C20 UNL     1      44.226  10.306  44.846  1.00  0.00     0.143 C
HETATM   21  C21 UNL     1      43.769   8.160  45.699  1.00  0.00     0.143 C
ENDBRANCH   6  19
BRANCH   3  22
HETATM   22  C11 UNL     1      43.420  13.957  47.812  1.00  0.00    -0.000 A
HETATM   23  C12 UNL     1      43.873  14.630  46.687  1.00  0.00     0.017 A
HETATM   24  C13 UNL     1      44.434  15.886  46.804  1.00  0.00     0.040 A
HETATM   25  C14 UNL     1      44.555  16.493  48.036  1.00  0.00     0.105 A
HETATM   26  C15 UNL     1      44.104  15.823  49.155  1.00  0.00     0.105 A
HETATM   27  O6  UNL     1      45.083  17.744  48.396  1.00  0.00    -0.323 OA
HETATM   28  C16 UNL     1      43.534  14.548  49.035  1.00  0.00     0.054 A
HETATM   29  O5  UNL     1      44.351  16.661  50.236  1.00  0.00    -0.323 OA
HETATM   30  C17 UNL     1      44.689  17.962  49.749  1.00  0.00     0.352 C
ENDBRANCH   3  22
TORSDOF 9
ENDMDL