MODEL 2
REMARK VINA RESULT: -8.479729964      1.638      2.502
REMARK  6 active torsions:
REMARK  status: ('A' for Active; 'I' for Inactive)
REMARK    1  A    between atoms: S1_2  and  C2_3
REMARK    2  A    between atoms: C7_8  and  C8_9
REMARK       I    between atoms: C8_9  and  N1_11
REMARK    3  A    between atoms: N1_11  and  C9_13
REMARK    4  A    between atoms: C9_13  and  C11_16
REMARK       I    between atoms: C11_16  and  N3_18
REMARK    5  A    between atoms: N3_18  and  N4_20
REMARK    6  A    between atoms: C12_22  and  C13_23
ROOT
HETATM    1  C9  UNL     1      41.982   9.801  51.921  1.00  0.00     0.286 C
HETATM    2  C10 UNL     1      42.103   9.734  53.387  1.00  0.00     0.094 C
HETATM    3  N2  UNL     1      42.206   9.658  54.558  1.00  0.00    -0.195 NA
ENDROOT
BRANCH   1   4
HETATM    4  N1  UNL     1      43.079   8.985  51.364  1.00  0.00    -0.332 N
HETATM    5  C8  UNL     1      42.780   7.714  50.876  1.00  0.00     0.254 C
HETATM    6  O1  UNL     1      41.564   7.323  50.910  1.00  0.00    -0.268 OA
ATOM      7  H1  UNL     1      44.033   9.343  51.338  1.00  0.00     0.164 HD
BRANCH   5   8
HETATM    8  C7  UNL     1      43.728   6.752  50.308  1.00  0.00     0.048 A
HETATM    9  C2  UNL     1      43.969   6.596  48.984  1.00  0.00     0.015 A
HETATM   10  C3  UNL     1      44.821   5.621  48.465  1.00  0.00     0.019 A
HETATM   11  C4  UNL     1      45.451   4.774  49.343  1.00  0.00     0.001 A
HETATM   12  C5  UNL     1      45.246   4.887  50.705  1.00  0.00     0.001 A
HETATM   13  C6  UNL     1      44.393   5.868  51.181  1.00  0.00     0.018 A
BRANCH   9  14
HETATM   14  S1  UNL     1      43.243   7.733  47.802  1.00  0.00    -0.133 SA
HETATM   15  C1  UNL     1      44.136   9.336  47.835  1.00  0.00     0.095 C
ENDBRANCH   9  14
ENDBRANCH   5   8
ENDBRANCH   1   4
BRANCH   1  16
HETATM   16  C11 UNL     1      42.101  11.194  51.460  1.00  0.00     0.273 C
HETATM   17  O2  UNL     1      41.690  11.507  50.318  1.00  0.00    -0.268 OA
HETATM   18  N3  UNL     1      42.665  12.178  52.277  1.00  0.00    -0.268 N
ATOM     19  H3  UNL     1      43.005  11.940  53.208  1.00  0.00     0.190 HD
BRANCH  18  20
HETATM   20  N4  UNL     1      42.762  13.514  51.801  1.00  0.00    -0.308 N
HETATM   21  C12 UNL     1      43.927  13.886  51.306  1.00  0.00     0.118 C
ATOM     22  H4  UNL     1      41.969  14.154  51.840  1.00  0.00     0.186 HD
BRANCH  21  23
HETATM   23  C13 UNL     1      44.173  15.198  50.784  1.00  0.00    -0.017 A
HETATM   24  C14 UNL     1      44.298  15.377  49.415  1.00  0.00     0.016 A
HETATM   25  C15 UNL     1      44.511  16.599  48.824  1.00  0.00     0.040 A
HETATM   26  C16 UNL     1      44.604  17.717  49.638  1.00  0.00     0.105 A
HETATM   27  C17 UNL     1      44.485  17.584  50.990  1.00  0.00     0.105 A
HETATM   28  O4  UNL     1      44.810  19.049  49.331  1.00  0.00    -0.323 OA
HETATM   29  C18 UNL     1      44.269  16.330  51.581  1.00  0.00     0.052 A
HETATM   30  O3  UNL     1      44.615  18.841  51.544  1.00  0.00    -0.323 OA
HETATM   31  C19 UNL     1      44.854  19.767  50.523  1.00  0.00     0.352 A
ENDBRANCH  21  23
ENDBRANCH  18  20
ENDBRANCH   1  16
TORSDOF 6
ENDMDL