MODEL 3
REMARK VINA RESULT: -8.988542078      1.573      1.950
REMARK  9 active torsions:
REMARK  status: ('A' for Active; 'I' for Inactive)
REMARK    1  A    between atoms: C6_7  and  O2_8
REMARK    2  A    between atoms: C7_10  and  O3_11
REMARK    3  A    between atoms: O3_11  and  C8_12
REMARK    4  A    between atoms: C8_12  and  C9_14
REMARK    5  A    between atoms: C10_15  and  C11_16
REMARK    6  A    between atoms: C18_24  and  C19_25
REMARK    7  A    between atoms: C19_25  and  C20_26
REMARK    8  A    between atoms: C20_26  and  O7_28
REMARK    9  A    between atoms: O7_28  and  O8_29
ROOT
HETATM    1  C1  UNL     1      44.390  10.200  49.690  1.00  0.00     0.078 C
HETATM    2  C2  UNL     1      43.669   9.028  49.008  1.00  0.00     0.158 C
HETATM    3  C3  UNL     1      44.472   8.812  47.706  1.00  0.00     0.078 C
HETATM    4  O1  UNL     1      42.413   9.403  48.576  1.00  0.00    -0.355 OA
HETATM    5  C4  UNL     1      41.453   9.397  49.544  1.00  0.00     0.182 C
HETATM    6  C5  UNL     1      41.493   8.202  50.451  1.00  0.00     0.080 C
HETATM    7  C6  UNL     1      40.879   8.693  51.770  1.00  0.00     0.183 C
HETATM    8  C7  UNL     1      41.840   9.423  52.626  1.00  0.00     0.298 C
HETATM    9  O5  UNL     1      43.167   9.151  52.401  1.00  0.00    -0.355 OA
HETATM   10  C17 UNL     1      43.419   7.856  51.987  1.00  0.00     0.210 C
HETATM   11  C18 UNL     1      42.802   7.544  50.614  1.00  0.00     0.103 C
HETATM   12  O9  UNL     1      43.760   7.860  49.682  1.00  0.00    -0.342 OA
ENDROOT
BRANCH   8  13
HETATM   13  O3  UNL     1      41.597  10.813  52.508  1.00  0.00    -0.284 OA
BRANCH  13  14
HETATM   14  C8  UNL     1      42.462  11.784  53.001  1.00  0.00     0.285 C
HETATM   15  O4  UNL     1      42.720  11.753  54.216  1.00  0.00    -0.260 OA
BRANCH  14  16
HETATM   16  C9  UNL     1      43.045  12.801  52.122  1.00  0.00     0.083 C
HETATM   17  C10 UNL     1      42.601  12.975  50.907  1.00  0.00     0.017 C
BRANCH  17  18
HETATM   18  C11 UNL     1      43.162  13.973  50.023  1.00  0.00    -0.036 A
HETATM   19  C12 UNL     1      43.571  15.218  50.434  1.00  0.00     0.011 A
HETATM   20  C13 UNL     1      44.106  16.131  49.517  1.00  0.00     0.001 A
HETATM   21  C14 UNL     1      44.212  15.756  48.199  1.00  0.00     0.000 A
HETATM   22  C15 UNL     1      43.816  14.524  47.746  1.00  0.00     0.001 A
HETATM   23  C16 UNL     1      43.294  13.646  48.665  1.00  0.00     0.011 A
ENDBRANCH  17  18
ENDBRANCH  14  16
ENDBRANCH  13  14
ENDBRANCH   8  13
BRANCH   7  24
HETATM   24  O2  UNL     1      39.704   9.407  51.515  1.00  0.00    -0.390 OA
ATOM     25  H2  UNL     1      38.986   9.040  52.017  1.00  0.00     0.210 HD
ENDBRANCH   7  24
BRANCH  11  26
HETATM   26  C19 UNL     1      42.697   6.036  50.592  1.00  0.00     0.154 C
BRANCH  26  27
HETATM   27  C20 UNL     1      41.957   5.463  49.480  1.00  0.00     0.291 C
HETATM   28  O6  UNL     1      42.285   5.556  48.299  1.00  0.00    -0.263 OA
BRANCH  27  29
HETATM   29  O7  UNL     1      40.780   4.755  49.802  1.00  0.00    -0.161 OA
BRANCH  29  30
HETATM   30  O8  UNL     1      39.947   5.275  50.724  1.00  0.00    -0.242 OA
ATOM     31  H8  UNL     1      39.770   4.772  51.511  1.00  0.00     0.254 HD
ENDBRANCH  29  30
ENDBRANCH  27  29
ENDBRANCH  26  27
ENDBRANCH  11  26
TORSDOF 9
ENDMDL