MODEL 4
REMARK VINA RESULT: -7.548006089      4.971      9.179
REMARK  6 active torsions:
REMARK  status: ('A' for Active; 'I' for Inactive)
REMARK    1  A    between atoms: C1_2  and  C2_4
REMARK    2  A    between atoms: C2_4  and  N1_5
REMARK    3  A    between atoms: C4_7  and  C5_8
REMARK       I    between atoms: C5_8  and  N2_10
REMARK    4  A    between atoms: N2_10  and  C6_12
REMARK    5  A    between atoms: C11_17  and  N3_18
REMARK    6  A    between atoms: N4_21  and  C14_22
ROOT
HETATM    1  C6  UNL     1      43.190  16.213  50.882  1.00  0.00     0.061 A
HETATM    2  C7  UNL     1      42.813  17.219  51.736  1.00  0.00     0.032 A
HETATM    3  C8  UNL     1      43.137  18.531  51.471  1.00  0.00     0.002 A
HETATM    4  C9  UNL     1      43.846  18.858  50.342  1.00  0.00     0.002 A
HETATM    5  C10 UNL     1      44.231  17.861  49.478  1.00  0.00     0.031 A
HETATM    6  C11 UNL     1      43.917  16.548  49.726  1.00  0.00     0.057 A
ENDROOT
BRANCH   1   7
HETATM    7  N2  UNL     1      42.909  14.850  51.131  1.00  0.00    -0.320 N
HETATM    8  C5  UNL     1      42.892  14.179  52.350  1.00  0.00     0.275 C
HETATM    9  O3  UNL     1      43.131  14.680  53.478  1.00  0.00    -0.266 OA
ATOM     10  H2  UNL     1      42.690  14.285  50.310  1.00  0.00     0.169 HD
BRANCH   8  11
HETATM   11  C4  UNL     1      42.564  12.721  52.352  1.00  0.00     0.134 A
HETATM   12  C3  UNL     1      43.051  11.735  51.525  1.00  0.00     0.148 A
HETATM   13  N1  UNL     1      42.484  10.544  51.880  1.00  0.00    -0.277 N
HETATM   14  N7  UNL     1      41.682  10.810  52.889  1.00  0.00    -0.240 N
HETATM   15  N6  UNL     1      41.715  12.112  53.190  1.00  0.00    -0.280 N
ATOM     16  H7  UNL     1      41.113  10.117  53.375  1.00  0.00     0.208 HD
ATOM     17  H6  UNL     1      41.182  12.565  53.933  1.00  0.00     0.189 HD
BRANCH  13  18
HETATM   18  C2  UNL     1      42.755   9.278  51.230  1.00  0.00     0.262 C
BRANCH  18  19
HETATM   19  C1  UNL     1      42.880   8.177  52.187  1.00  0.00     0.193 C
HETATM   20  O1  UNL     1      41.805   7.665  52.648  1.00  0.00    -0.647 OA
HETATM   21  O2  UNL     1      44.068   7.653  52.625  1.00  0.00    -0.647 OA
ENDBRANCH  18  19
ENDBRANCH  13  18
ENDBRANCH   8  11
ENDBRANCH   1   7
BRANCH   6  22
HETATM   22  N3  UNL     1      44.310  15.533  48.783  1.00  0.00    -0.376 N
HETATM   23  C12 UNL     1      44.435  14.142  49.109  1.00  0.00     0.143 C
HETATM   24  C13 UNL     1      43.525  13.280  48.220  1.00  0.00     0.144 C
HETATM   25  N4  UNL     1      43.595  13.789  46.860  1.00  0.00    -0.364 N
HETATM   26  C19 UNL     1      44.624  14.714  46.496  1.00  0.00     0.144 C
HETATM   27  C20 UNL     1      44.601  15.927  47.418  1.00  0.00     0.143 C
BRANCH  25  28
HETATM   28  C14 UNL     1      42.649  13.376  45.875  1.00  0.00     0.102 A
HETATM   29  C15 UNL     1      42.791  13.863  44.588  1.00  0.00     0.048 A
HETATM   30  C16 UNL     1      41.893  13.478  43.629  1.00  0.00     0.005 A
HETATM   31  C17 UNL     1      40.875  12.619  43.966  1.00  0.00     0.017 A
HETATM   32  C18 UNL     1      40.775  12.161  45.266  1.00  0.00     0.089 A
HETATM   33  N5  UNL     1      41.655  12.538  46.207  1.00  0.00    -0.352 N
ATOM     34  H5  UNL     1      41.569  12.191  47.162  1.00  0.00     0.166 HD
ENDBRANCH  25  28
ENDBRANCH   6  22
TORSDOF 6
ENDMDL