MODEL 3
REMARK VINA RESULT: -9.187162156      0.675      1.274
REMARK  6 active torsions:
REMARK  status: ('A' for Active; 'I' for Inactive)
REMARK    1  A    between atoms: C1_2  and  C2_3
REMARK       I    between atoms: C1_2  and  N6_18
REMARK    2  A    between atoms: C2_3  and  N1_4
REMARK    3  A    between atoms: C3_11  and  N5_12
REMARK    4  A    between atoms: N6_18  and  C9_20
REMARK    5  A    between atoms: C14_25  and  N7_26
REMARK       I    between atoms: N7_26  and  C15_28
REMARK    6  A    between atoms: C15_28  and  C16_30
ROOT
HETATM    1  O1  UNL     1      45.726  13.509  50.807  1.00  0.00    -0.271 OA
HETATM    2  C1  UNL     1      44.509  13.513  50.668  1.00  0.00     0.242 C
HETATM    3  N6  UNL     1      43.622  14.589  50.471  1.00  0.00    -0.324 N
ATOM      4  H6  UNL     1      42.628  14.377  50.382  1.00  0.00     0.169 HD
ENDROOT
BRANCH   3   5
HETATM    5  C9  UNL     1      44.013  15.926  50.392  1.00  0.00     0.061 A
HETATM    6  C10 UNL     1      44.277  16.690  51.528  1.00  0.00     0.032 A
HETATM    7  C11 UNL     1      44.718  17.998  51.477  1.00  0.00     0.002 A
HETATM    8  C12 UNL     1      44.898  18.554  50.242  1.00  0.00     0.002 A
HETATM    9  C13 UNL     1      44.641  17.807  49.086  1.00  0.00     0.032 A
HETATM   10  C14 UNL     1      44.202  16.509  49.116  1.00  0.00     0.062 A
BRANCH  10  11
HETATM   11  N7  UNL     1      43.877  15.792  47.932  1.00  0.00    -0.321 N
HETATM   12  C15 UNL     1      44.618  15.673  46.765  1.00  0.00     0.252 C
HETATM   13  O2  UNL     1      45.722  16.183  46.584  1.00  0.00    -0.268 OA
ATOM     14  H7  UNL     1      42.983  15.302  47.942  1.00  0.00     0.169 HD
BRANCH  12  15
HETATM   15  C16 UNL     1      44.049  14.874  45.631  1.00  0.00     0.010 C
HETATM   16  C17 UNL     1      43.440  13.740  45.882  1.00  0.00     0.012 C
HETATM   17  C18 UNL     1      42.874  12.939  44.781  1.00  0.00     0.195 C
HETATM   18  O3  UNL     1      42.566  13.683  43.671  1.00  0.00    -0.387 OA
HETATM   19  C19 UNL     1      43.587  14.484  43.243  1.00  0.00     0.172 C
HETATM   20  C20 UNL     1      44.206  15.363  44.252  1.00  0.00     0.070 C
ENDBRANCH  12  15
ENDBRANCH  10  11
ENDBRANCH   3   5
BRANCH   2  21
HETATM   21  C2  UNL     1      43.854  12.142  50.715  1.00  0.00     0.272 C
BRANCH  21  22
HETATM   22  N1  UNL     1      43.054  12.059  51.895  1.00  0.00    -0.098 N
HETATM   23  N2  UNL     1      42.822  12.964  52.836  1.00  0.00    -0.211 N
HETATM   24  N3  UNL     1      41.993  12.485  53.732  1.00  0.00    -0.213 N
ATOM     25  H2  UNL     1      43.231  13.899  52.860  1.00  0.00     0.210 HD
HETATM   26  N4  UNL     1      41.667  11.253  53.390  1.00  0.00    -0.115 N
ATOM     27  H3  UNL     1      41.656  12.982  54.556  1.00  0.00     0.210 HD
HETATM   28  C3  UNL     1      42.321  10.969  52.244  1.00  0.00     0.714 A
ATOM     29  H4  UNL     1      41.038  10.632  53.898  1.00  0.00     0.207 HD
BRANCH  28  30
HETATM   30  N5  UNL     1      42.321   9.762  51.508  1.00  0.00    -0.215 N
HETATM   31  C4  UNL     1      41.355   9.571  50.407  1.00  0.00     0.141 C
HETATM   32  C5  UNL     1      42.148   9.555  49.132  1.00  0.00     0.020 C
HETATM   33  C6  UNL     1      43.575   9.152  49.324  1.00  0.00     0.003 C
HETATM   34  C7  UNL     1      43.764   8.162  50.450  1.00  0.00     0.020 C
HETATM   35  C8  UNL     1      43.203   8.640  51.761  1.00  0.00     0.141 C
ENDBRANCH  28  30
ENDBRANCH  21  22
ENDBRANCH   2  21
TORSDOF 6
ENDMDL