MODEL 4
REMARK VINA RESULT: -6.811539335      2.281      3.332
REMARK  7 active torsions:
REMARK  status: ('A' for Active; 'I' for Inactive)
REMARK    1  A    between atoms: C6_6  and  C7_7
REMARK    2  A    between atoms: C7_7  and  O1_8
REMARK    3  A    between atoms: C7_7  and  N1_10
REMARK    4  A    between atoms: N1_10  and  C8_12
REMARK    5  A    between atoms: C8_12  and  C9_13
REMARK       I    between atoms: N2_18  and  C13_19
REMARK    6  A    between atoms: C13_19  and  C14_21
REMARK    7  A    between atoms: N3_25  and  N4_26
ROOT
HETATM    1  C1  UNL     1      40.383  10.648  51.548  1.00  0.00     0.068 C
HETATM    2  C2  UNL     1      41.682  11.253  51.876  1.00  0.00     0.008 C
HETATM    3  C3  UNL     1      41.814  12.100  52.917  1.00  0.00    -0.002 C
HETATM    4  C4  UNL     1      43.137  12.689  53.217  1.00  0.00     0.031 C
HETATM    5  C5  UNL     1      43.893  13.041  51.956  1.00  0.00     0.038 C
HETATM    6  C6  UNL     1      43.717  12.144  50.799  1.00  0.00     0.167 C
HETATM    7  N2  UNL     1      42.856  10.997  51.133  1.00  0.00    -0.307 N
HETATM    8  C13 UNL     1      43.176   9.690  50.749  1.00  0.00     0.259 C
HETATM    9  O2  UNL     1      44.247   9.584  50.038  1.00  0.00    -0.270 OA
ENDROOT
BRANCH   6  10
HETATM   10  C7  UNL     1      43.211  12.799  49.532  1.00  0.00     0.139 C
BRANCH  10  11
HETATM   11  O1  UNL     1      42.291  12.015  48.845  1.00  0.00    -0.348 OA
ATOM     12  H1  UNL     1      41.664  12.527  48.348  1.00  0.00     0.219 HD
ENDBRANCH  10  11
BRANCH  10  13
HETATM   13  N1  UNL     1      42.939  14.170  49.628  1.00  0.00    -0.347 N
ATOM     14  H1  UNL     1      42.042  14.478  50.004  1.00  0.00     0.167 HD
BRANCH  13  15
HETATM   15  C8  UNL     1      43.882  15.129  49.216  1.00  0.00     0.108 C
BRANCH  15  16
HETATM   16  C9  UNL     1      43.683  16.354  50.084  1.00  0.00     0.020 A
HETATM   17  C10 UNL     1      42.927  16.488  51.216  1.00  0.00     0.021 A
HETATM   18  C11 UNL     1      42.914  17.685  51.810  1.00  0.00     0.008 A
HETATM   19  C12 UNL     1      43.658  18.682  51.239  1.00  0.00     0.050 A
HETATM   20  S1  UNL     1      44.354  17.908  49.886  1.00  0.00    -0.101 SA
ENDBRANCH  15  16
ENDBRANCH  13  15
ENDBRANCH  10  13
ENDBRANCH   6  10
BRANCH   8  21
HETATM   21  C14 UNL     1      42.480   8.452  51.041  1.00  0.00     0.261 C
HETATM   22  S2  UNL     1      43.443   7.382  52.188  1.00  0.00    -0.131 SA
HETATM   23  C15 UNL     1      43.971   6.137  50.974  1.00  0.00     0.098 C
HETATM   24  C16 UNL     1      43.655   6.876  49.692  1.00  0.00     0.161 C
HETATM   25  N3  UNL     1      42.402   7.564  49.887  1.00  0.00    -0.244 N
BRANCH  25  26
HETATM   26  N4  UNL     1      41.247   7.445  49.118  1.00  0.00    -0.040 N
HETATM   27  O3  UNL     1      41.102   8.055  48.052  1.00  0.00    -0.517 OA
HETATM   28  O4  UNL     1      40.249   6.625  49.566  1.00  0.00    -0.517 OA
ENDBRANCH  25  26
ENDBRANCH   8  21
TORSDOF 7
ENDMDL