MODEL 5
REMARK VINA RESULT: -8.607040975      2.346      6.639
REMARK  9 active torsions:
REMARK  status: ('A' for Active; 'I' for Inactive)
REMARK       I    between atoms: C1_2  and  N1_3
REMARK    1  A    between atoms: C1_2  and  C17_33
REMARK    2  A    between atoms: N1_3  and  C2_5
REMARK    3  A    between atoms: C2_5  and  C3_6
REMARK    4  A    between atoms: C2_5  and  C11_23
REMARK    5  A    between atoms: C3_6  and  O2_7
REMARK    6  A    between atoms: C3_6  and  N2_9
REMARK    7  A    between atoms: C4_16  and  C5_17
REMARK    8  A    between atoms: C14_26  and  C15_27
REMARK    9  A    between atoms: C15_27  and  O3_28
ROOT
HETATM    1  C2  UNL     1      43.544  12.163  51.125  1.00  0.00     0.211 C
ENDROOT
BRANCH   1   2
HETATM    2  N1  UNL     1      42.952  11.808  49.784  1.00  0.00    -0.343 N
HETATM    3  C1  UNL     1      43.483  10.753  49.023  1.00  0.00     0.222 C
HETATM    4  O1  UNL     1      44.466  10.081  49.462  1.00  0.00    -0.273 OA
ATOM      5  H1  UNL     1      42.158  12.339  49.426  1.00  0.00     0.163 HD
BRANCH   3   6
HETATM    6  C17 UNL     1      42.948  10.368  47.695  1.00  0.00     0.078 C
HETATM    7  C18 UNL     1      43.908   9.607  46.842  1.00  0.00     0.014 C
HETATM    8  C19 UNL     1      43.429   9.962  45.439  1.00  0.00     0.001 C
HETATM    9  C20 UNL     1      43.272  11.464  45.550  1.00  0.00     0.001 C
HETATM   10  C21 UNL     1      42.729  11.688  46.935  1.00  0.00     0.014 C
ENDBRANCH   3   6
ENDBRANCH   1   2
BRANCH   1  11
HETATM   11  C3  UNL     1      42.607  11.663  52.120  1.00  0.00     0.170 C
BRANCH  11  12
HETATM   12  O2  UNL     1      42.972  11.959  53.358  1.00  0.00    -0.346 OA
ATOM     13  H2  UNL     1      43.786  12.449  53.392  1.00  0.00     0.219 HD
ENDBRANCH  11  12
BRANCH  11  14
HETATM   14  N2  UNL     1      41.414  10.932  52.094  1.00  0.00    -0.201 N
HETATM   15  N3  UNL     1      40.268  11.533  52.559  1.00  0.00    -0.218 N
HETATM   16  N4  UNL     1      39.271  10.711  52.500  1.00  0.00    -0.226 N
ATOM     17  H3  UNL     1      40.211  12.492  52.903  1.00  0.00     0.210 HD
HETATM   18  N5  UNL     1      39.694   9.601  52.018  1.00  0.00    -0.268 N
ATOM     19  H4  UNL     1      38.313  10.911  52.786  1.00  0.00     0.210 HD
HETATM   20  C4  UNL     1      41.054   9.720  51.748  1.00  0.00     0.157 A
ATOM     21  H5  UNL     1      39.128   8.768  51.858  1.00  0.00     0.190 HD
BRANCH  20  22
HETATM   22  C5  UNL     1      41.752   8.566  51.198  1.00  0.00     0.011 A
HETATM   23  C6  UNL     1      41.468   7.901  50.052  1.00  0.00     0.015 A
HETATM   24  C7  UNL     1      42.237   6.848  49.561  1.00  0.00     0.001 A
HETATM   25  C8  UNL     1      43.346   6.429  50.243  1.00  0.00     0.000 A
HETATM   26  C9  UNL     1      43.655   7.086  51.409  1.00  0.00     0.001 A
HETATM   27  C10 UNL     1      42.896   8.124  51.888  1.00  0.00     0.015 A
ENDBRANCH  20  22
ENDBRANCH  11  14
ENDBRANCH   1  11
BRANCH   1  28
HETATM   28  C11 UNL     1      43.566  13.654  51.159  1.00  0.00     0.040 A
HETATM   29  C12 UNL     1      44.060  14.403  50.149  1.00  0.00     0.028 A
HETATM   30  C13 UNL     1      44.076  15.803  50.204  1.00  0.00     0.012 A
HETATM   31  C14 UNL     1      43.577  16.439  51.314  1.00  0.00    -0.019 A
HETATM   32  C16 UNL     1      43.081  15.646  52.326  1.00  0.00     0.097 A
HETATM   33  N6  UNL     1      43.078  14.316  52.247  1.00  0.00    -0.367 N
ATOM     34  H6  UNL     1      42.699  13.776  53.024  1.00  0.00     0.165 HD
BRANCH  31  35
HETATM   35  C15 UNL     1      43.575  17.916  51.421  1.00  0.00     0.204 C
BRANCH  35  36
HETATM   36  O3  UNL     1      42.400  18.370  52.037  1.00  0.00    -0.396 OA
ATOM     37  H3  UNL     1      42.324  18.022  52.917  1.00  0.00     0.209 HD
ENDBRANCH  35  36
ENDBRANCH  31  35
ENDBRANCH   1  28
TORSDOF 9
ENDMDL