MODEL 4
REMARK VINA RESULT: -8.257101032      1.948      3.290
REMARK  13 active torsions:
REMARK  status: ('A' for Active; 'I' for Inactive)
REMARK    1  A    between atoms: C2_2  and  C3_3
REMARK    2  A    between atoms: C3_3  and  S1_4
REMARK    3  A    between atoms: S1_4  and  C4_5
REMARK       I    between atoms: N1_15  and  C14_16
REMARK    4  A    between atoms: C14_16  and  C15_18
REMARK    5  A    between atoms: C15_18  and  N2_19
REMARK    6  A    between atoms: C15_18  and  C16_23
REMARK    7  A    between atoms: C16_23  and  C17_24
REMARK    8  A    between atoms: C16_23  and  N6_35
REMARK    9  A    between atoms: C17_24  and  C18_25
REMARK   10  A    between atoms: C18_25  and  C19_26
REMARK   11  A    between atoms: C19_26  and  C20_27
REMARK   12  A    between atoms: C20_27  and  N3_28
REMARK       I    between atoms: N3_28  and  C21_30
REMARK   13  A    between atoms: N6_35  and  C22_37
ROOT
HETATM    1  C15 UNL     1      43.666  49.031  42.499  1.00  0.00     0.297 C
ENDROOT
BRANCH   1   2
HETATM    2  C14 UNL     1      43.551  48.205  41.275  1.00  0.00     0.257 C
HETATM    3  N1  UNL     1      43.679  48.724  39.949  1.00  0.00    -0.309 N
HETATM    4  C4  UNL     1      43.593  47.678  38.938  1.00  0.00     0.082 C
HETATM    5  C13 UNL     1      43.824  50.160  39.933  1.00  0.00     0.137 C
HETATM    6  C5  UNL     1      42.976  48.095  37.692  1.00  0.00    -0.016 A
HETATM    7  C6  UNL     1      42.087  47.329  37.051  1.00  0.00     0.010 A
HETATM    8  C9  UNL     1      43.097  49.316  36.852  1.00  0.00     0.048 A
HETATM    9  C7  UNL     1      41.616  47.953  35.853  1.00  0.00    -0.003 A
HETATM   10  C8  UNL     1      42.202  49.126  35.722  1.00  0.00    -0.017 A
HETATM   11  C10 UNL     1      42.771  50.445  37.778  1.00  0.00     0.004 A
HETATM   12  C11 UNL     1      43.433  51.715  37.862  1.00  0.00     0.012 A
HETATM   13  C12 UNL     1      44.100  50.616  38.558  1.00  0.00     0.009 A
HETATM   14  O1  UNL     1      43.320  46.963  41.415  1.00  0.00    -0.271 OA
BRANCH   4  15
HETATM   15  S1  UNL     1      45.075  46.698  38.838  1.00  0.00    -0.108 SA
BRANCH  15  16
HETATM   16  C3  UNL     1      46.565  47.320  39.510  1.00  0.00     0.107 C
BRANCH  16  17
HETATM   17  C2  UNL     1      47.008  46.675  40.765  1.00  0.00    -0.026 C
HETATM   18  C1  UNL     1      47.922  47.112  41.593  1.00  0.00     0.007 C
ENDBRANCH  16  17
ENDBRANCH  15  16
ENDBRANCH   4  15
ENDBRANCH   1   2
BRANCH   1  19
HETATM   19  N2  UNL     1      42.703  48.590  43.513  1.00  0.00    -0.064 N
ATOM     20  H23 UNL     1      41.743  48.800  43.240  1.00  0.00     0.275 HD
ATOM     21  H22 UNL     1      42.632  47.573  43.550  1.00  0.00     0.275 HD
ATOM     22  H21 UNL     1      42.934  48.986  44.424  1.00  0.00     0.275 HD
ENDBRANCH   1  19
BRANCH   1  23
HETATM   23  C16 UNL     1      45.057  49.017  43.073  1.00  0.00     0.116 C
BRANCH  23  24
HETATM   24  C17 UNL     1      45.252  48.394  44.398  1.00  0.00     0.027 C
BRANCH  24  25
HETATM   25  C18 UNL     1      45.652  46.976  44.488  1.00  0.00     0.004 C
BRANCH  25  26
HETATM   26  C19 UNL     1      45.208  46.316  45.780  1.00  0.00     0.020 C
BRANCH  26  27
HETATM   27  C20 UNL     1      46.129  46.465  46.927  1.00  0.00     0.122 C
BRANCH  27  28
HETATM   28  N3  UNL     1      46.601  45.255  47.534  1.00  0.00    -0.365 N
HETATM   29  C21 UNL     1      45.782  44.121  47.757  1.00  0.00     0.181 C
HETATM   30  N4  UNL     1      46.043  42.947  47.303  1.00  0.00    -0.374 N
HETATM   31  N5  UNL     1      44.607  44.301  48.526  1.00  0.00    -0.064 NA
ATOM     32  H42 UNL     1      46.889  42.818  46.750  1.00  0.00     0.158 HD
ATOM     33  H41 UNL     1      45.453  42.130  47.464  1.00  0.00     0.158 HD
ATOM     34  H3  UNL     1      47.579  45.209  47.821  1.00  0.00     0.162 HD
ENDBRANCH  27  28
ENDBRANCH  26  27
ENDBRANCH  25  26
ENDBRANCH  24  25
ENDBRANCH  23  24
BRANCH  23  35
HETATM   35  N6  UNL     1      45.654  50.337  42.990  1.00  0.00    -0.410 N
ATOM     36  H6  UNL     1      46.588  50.481  42.605  1.00  0.00     0.154 HD
BRANCH  35  37
HETATM   37  C22 UNL     1      44.873  51.417  43.470  1.00  0.00     0.077 C
HETATM   38  C23 UNL     1      44.790  52.573  42.491  1.00  0.00     0.024 C
HETATM   39  C24 UNL     1      44.154  53.655  43.334  1.00  0.00     0.002 C
HETATM   40  C25 UNL     1      44.564  53.328  44.772  1.00  0.00     0.002 C
HETATM   41  C26 UNL     1      45.484  52.110  44.670  1.00  0.00     0.024 C
ENDBRANCH  35  37
ENDBRANCH  23  35
ENDBRANCH   1  23
TORSDOF 13
ENDMDL