MODEL 5
REMARK VINA RESULT: -8.241835092      9.994     14.963
REMARK  13 active torsions:
REMARK  status: ('A' for Active; 'I' for Inactive)
REMARK    1  A    between atoms: N1_1  and  C1_5
REMARK    2  A    between atoms: C1_5  and  C2_6
REMARK    3  A    between atoms: C2_6  and  C3_7
REMARK    4  A    between atoms: C3_7  and  C4_8
REMARK    5  A    between atoms: C4_8  and  C5_9
REMARK    6  A    between atoms: C5_9  and  N2_10
REMARK       I    between atoms: N2_10  and  C6_12
REMARK    7  A    between atoms: C6_12  and  C7_14
REMARK    8  A    between atoms: C7_14  and  C8_15
REMARK    9  A    between atoms: C11_21  and  C12_22
REMARK   10  A    between atoms: C12_22  and  C13_23
REMARK   11  A    between atoms: N5_33  and  C20_34
REMARK   12  A    between atoms: C20_34  and  C21_35
REMARK   13  A    between atoms: C21_35  and  C22_36
ROOT
HETATM    1  C8  UNL     1      42.308  47.920  38.590  1.00  0.00     0.288 C
HETATM    2  N3  UNL     1      43.690  48.260  38.262  1.00  0.00    -0.025 N
ATOM      3  H31 UNL     1      44.114  47.639  37.573  1.00  0.00     0.281 HD
ATOM      4  H32 UNL     1      44.350  48.068  39.017  1.00  0.00     0.281 HD
HETATM    5  C9  UNL     1      43.659  49.650  37.853  1.00  0.00     0.305 C
HETATM    6  C10 UNL     1      44.999  50.370  37.993  1.00  0.00     0.104 C
HETATM    7  C11 UNL     1      44.523  50.607  39.383  1.00  0.00     0.193 C
HETATM    8  N4  UNL     1      43.136  50.470  38.942  1.00  0.00    -0.034 N
ATOM      9  H41 UNL     1      42.409  50.125  39.568  1.00  0.00     0.280 HD
ATOM     10  H42 UNL     1      42.550  51.285  38.762  1.00  0.00     0.280 HD
HETATM   11  C19 UNL     1      42.990  49.846  36.539  1.00  0.00     0.195 C
HETATM   12  N5  UNL     1      41.850  48.981  36.403  1.00  0.00    -0.346 N
HETATM   13  C27 UNL     1      41.573  47.932  37.322  1.00  0.00     0.251 C
HETATM   14  O2  UNL     1      40.709  47.057  37.013  1.00  0.00    -0.271 OA
ENDROOT
BRANCH   1  15
HETATM   15  C7  UNL     1      42.181  46.663  39.372  1.00  0.00     0.145 C
BRANCH  15  16
HETATM   16  C6  UNL     1      43.387  46.314  40.144  1.00  0.00     0.220 C
HETATM   17  N2  UNL     1      43.758  46.927  41.357  1.00  0.00    -0.361 N
ATOM     18  H2  UNL     1      43.145  47.659  41.716  1.00  0.00     0.162 HD
HETATM   19  O1  UNL     1      44.124  45.408  39.678  1.00  0.00    -0.274 OA
BRANCH  17  20
HETATM   20  C5  UNL     1      44.916  46.611  42.123  1.00  0.00     0.122 C
BRANCH  20  21
HETATM   21  C4  UNL     1      45.629  47.818  42.672  1.00  0.00     0.020 C
BRANCH  21  22
HETATM   22  C3  UNL     1      44.680  48.798  43.306  1.00  0.00     0.003 C
BRANCH  22  23
HETATM   23  C2  UNL     1      44.694  48.782  44.811  1.00  0.00     0.027 C
BRANCH  23  24
HETATM   24  C1  UNL     1      45.470  47.522  45.209  1.00  0.00     0.229 C
BRANCH  24  25
HETATM   25  N1  UNL     1      44.828  47.004  46.392  1.00  0.00    -0.079 N
ATOM     26  H13 UNL     1      43.949  47.472  46.613  1.00  0.00     0.274 HD
ATOM     27  H12 UNL     1      44.444  46.067  46.267  1.00  0.00     0.274 HD
ATOM     28  H11 UNL     1      45.516  47.061  47.143  1.00  0.00     0.274 HD
ENDBRANCH  24  25
ENDBRANCH  23  24
ENDBRANCH  22  23
ENDBRANCH  21  22
ENDBRANCH  20  21
ENDBRANCH  17  20
ENDBRANCH  15  16
ENDBRANCH   1  15
BRANCH  12  29
HETATM   29  C20 UNL     1      40.979  49.237  35.254  1.00  0.00     0.126 C
BRANCH  29  30
HETATM   30  C21 UNL     1      40.543  50.666  35.366  1.00  0.00     0.024 C
BRANCH  30  31
HETATM   31  C22 UNL     1      39.067  50.860  35.054  1.00  0.00    -0.010 C
HETATM   32  C23 UNL     1      38.662  49.912  33.991  1.00  0.00     0.032 C
HETATM   33  C24 UNL     1      37.545  50.351  33.107  1.00  0.00     0.232 C
HETATM   34  N6  UNL     1      37.007  51.649  33.441  1.00  0.00    -0.075 N
HETATM   35  C25 UNL     1      38.150  52.568  33.467  1.00  0.00     0.232 C
ATOM     36  H62 UNL     1      36.257  51.952  32.819  1.00  0.00     0.277 HD
ATOM     37  H61 UNL     1      36.462  51.654  34.303  1.00  0.00     0.277 HD
HETATM   38  C26 UNL     1      38.839  52.299  34.785  1.00  0.00     0.032 C
ENDBRANCH  30  31
ENDBRANCH  29  30
ENDBRANCH  12  29
BRANCH   7  39
HETATM   39  C12 UNL     1      44.745  51.908  40.060  1.00  0.00     0.037 C
BRANCH  39  40
HETATM   40  C13 UNL     1      45.317  51.926  41.428  1.00  0.00    -0.013 C
HETATM   41  C14 UNL     1      46.684  51.396  41.611  1.00  0.00     0.005 C
HETATM   42  C15 UNL     1      47.748  52.312  41.028  1.00  0.00     0.000 C
HETATM   43  C16 UNL     1      47.627  53.611  41.825  1.00  0.00     0.000 C
HETATM   44  C17 UNL     1      46.292  54.226  41.479  1.00  0.00     0.000 C
HETATM   45  C18 UNL     1      45.204  53.338  42.037  1.00  0.00     0.005 C
ENDBRANCH  39  40
ENDBRANCH   7  39
TORSDOF 13
ENDMDL