MODEL 2
REMARK VINA RESULT: -8.015381205      3.987      7.676
REMARK  17 active torsions:
REMARK  status: ('A' for Active; 'I' for Inactive)
REMARK    1  A    between atoms: O1_2  and  C2_3
REMARK    2  A    between atoms: C3_4  and  C4_5
REMARK    3  A    between atoms: C5_6  and  C6_7
REMARK    4  A    between atoms: C6_7  and  C7_8
REMARK    5  A    between atoms: C7_8  and  C8_9
REMARK    6  A    between atoms: C8_9  and  C9_10
REMARK    7  A    between atoms: C9_10  and  C10_11
REMARK    8  A    between atoms: C10_11  and  C11_12
REMARK    9  A    between atoms: C11_12  and  C12_13
REMARK   10  A    between atoms: C12_13  and  C13_14
REMARK   11  A    between atoms: C13_14  and  C14_15
REMARK   12  A    between atoms: C14_15  and  C15_16
REMARK       I    between atoms: C15_16  and  N1_18
REMARK   13  A    between atoms: N1_18  and  C16_20
REMARK   14  A    between atoms: C21_25  and  C22_26
REMARK   15  A    between atoms: C23_27  and  C24_28
REMARK   16  A    between atoms: C26_35  and  O4_36
REMARK   17  A    between atoms: C27_38  and  O5_39
ROOT
HETATM    1  C16 UNL     1      45.780  45.560  47.192  1.00  0.00     0.116 C
HETATM    2  C17 UNL     1      47.211  45.906  47.451  1.00  0.00     0.034 C
HETATM    3  C18 UNL     1      47.706  45.580  48.816  1.00  0.00     0.021 C
HETATM    4  C19 UNL     1      47.545  46.775  49.740  1.00  0.00     0.009 C
HETATM    5  C20 UNL     1      48.503  46.559  50.894  1.00  0.00     0.037 C
HETATM    6  C21 UNL     1      48.494  45.110  51.276  1.00  0.00     0.209 C
HETATM    7  N3  UNL     1      47.235  44.494  50.904  1.00  0.00    -0.060 N
ATOM      8  H31 UNL     1      46.443  44.987  51.316  1.00  0.00     0.278 HD
ATOM      9  H32 UNL     1      47.114  43.589  51.359  1.00  0.00     0.278 HD
HETATM   10  C25 UNL     1      47.098  44.383  49.462  1.00  0.00     0.221 C
HETATM   11  C26 UNL     1      45.636  44.193  49.170  1.00  0.00     0.179 C
HETATM   12  C27 UNL     1      45.490  44.160  47.652  1.00  0.00     0.171 C
ENDROOT
BRANCH   1  13
HETATM   13  N1  UNL     1      45.538  45.724  45.770  1.00  0.00    -0.354 N
HETATM   14  C15 UNL     1      45.430  46.985  45.149  1.00  0.00     0.217 C
HETATM   15  O2  UNL     1      45.550  47.995  45.873  1.00  0.00    -0.274 OA
ATOM     16  H1  UNL     1      45.442  44.888  45.193  1.00  0.00     0.162 HD
BRANCH  14  17
HETATM   17  C14 UNL     1      45.185  47.083  43.705  1.00  0.00     0.103 C
BRANCH  17  18
HETATM   18  C13 UNL     1      46.382  47.177  42.834  1.00  0.00     0.009 C
BRANCH  18  19
HETATM   19  C12 UNL     1      46.158  46.997  41.373  1.00  0.00     0.000 C
BRANCH  19  20
HETATM   20  C11 UNL     1      44.798  46.411  41.072  1.00  0.00     0.000 C
BRANCH  20  21
HETATM   21  C10 UNL     1      44.616  46.146  39.606  1.00  0.00     0.000 C
BRANCH  21  22
HETATM   22  C9  UNL     1      45.755  46.730  38.840  1.00  0.00     0.000 C
BRANCH  22  23
HETATM   23  C8  UNL     1      45.294  47.728  37.794  1.00  0.00     0.001 C
BRANCH  23  24
HETATM   24  C7  UNL     1      43.823  47.969  38.005  1.00  0.00     0.012 C
BRANCH  24  25
HETATM   25  C6  UNL     1      43.478  49.418  38.208  1.00  0.00     0.095 C
BRANCH  25  26
HETATM   26  C5  UNL     1      43.912  49.802  39.552  1.00  0.00    -0.092 C
HETATM   27  C4  UNL     1      44.282  50.100  40.660  1.00  0.00    -0.013 C
BRANCH  27  28
HETATM   28  C3  UNL     1      44.729  50.431  41.961  1.00  0.00     0.015 C
HETATM   29  C2  UNL     1      45.098  50.698  43.078  1.00  0.00     0.068 C
BRANCH  29  30
HETATM   30  O1  UNL     1      45.495  50.998  44.357  1.00  0.00    -0.308 OA
HETATM   31  C1  UNL     1      45.581  52.339  44.817  1.00  0.00     0.223 C
ENDBRANCH  29  30
ENDBRANCH  27  28
ENDBRANCH  25  26
ENDBRANCH  24  25
ENDBRANCH  23  24
ENDBRANCH  22  23
ENDBRANCH  21  22
ENDBRANCH  20  21
ENDBRANCH  19  20
ENDBRANCH  18  19
ENDBRANCH  17  18
ENDBRANCH  14  17
ENDBRANCH   1  13
BRANCH  12  32
HETATM   32  O5  UNL     1      46.376  43.220  47.180  1.00  0.00    -0.391 OA
ATOM     33  H5  UNL     1      46.712  43.405  46.312  1.00  0.00     0.210 HD
ENDBRANCH  12  32
BRANCH  11  34
HETATM   34  O4  UNL     1      44.818  45.125  49.757  1.00  0.00    -0.391 OA
ATOM     35  H4  UNL     1      44.262  45.597  49.147  1.00  0.00     0.210 HD
ENDBRANCH  11  34
BRANCH   6  36
HETATM   36  C22 UNL     1      48.631  44.991  52.744  1.00  0.00     0.011 C
HETATM   37  C23 UNL     1      48.464  46.038  53.529  1.00  0.00     0.069 C
BRANCH  37  38
HETATM   38  C24 UNL     1      48.596  45.934  54.970  1.00  0.00     0.254 C
HETATM   39  N2  UNL     1      49.295  46.950  55.667  1.00  0.00    -0.058 NA
HETATM   40  O3  UNL     1      48.121  44.982  55.635  1.00  0.00    -0.272 OA
ENDBRANCH  37  38
ENDBRANCH   6  36
TORSDOF 17
ENDMDL