MODEL 2
REMARK VINA RESULT: -8.667009435      1.516      2.717
REMARK  12 active torsions:
REMARK  status: ('A' for Active; 'I' for Inactive)
REMARK       I    between atoms: N1_2  and  C2_4
REMARK    1  A    between atoms: C2_4  and  C3_6
REMARK    2  A    between atoms: C3_6  and  C4_7
REMARK    3  A    between atoms: C3_6  and  C9_14
REMARK    4  A    between atoms: C4_7  and  C5_8
REMARK       I    between atoms: C5_8  and  N2_10
REMARK    5  A    between atoms: N2_10  and  C6_11
REMARK    6  A    between atoms: C9_14  and  C10_15
REMARK    7  A    between atoms: C14_19  and  C15_20
REMARK    8  A    between atoms: C15_20  and  C16_21
REMARK    9  A    between atoms: C16_21  and  N3_22
REMARK   10  A    between atoms: N3_22  and  C17_25
REMARK   11  A    between atoms: C17_25  and  C18_26
REMARK   12  A    between atoms: C23_34  and  N5_35
ROOT
HETATM    1  C10 UNL     1      44.407  51.795  38.504  1.00  0.00    -0.013 C
HETATM    2  C11 UNL     1      45.058  50.527  37.991  1.00  0.00     0.009 C
HETATM    3  C12 UNL     1      44.327  49.853  36.876  1.00  0.00    -0.012 C
HETATM    4  C13 UNL     1      43.678  48.538  37.175  1.00  0.00     0.018 C
HETATM    5  C14 UNL     1      42.211  48.508  37.299  1.00  0.00    -0.018 C
HETATM    6  C22 UNL     1      41.335  48.952  36.237  1.00  0.00     0.007 C
HETATM    7  C23 UNL     1      40.757  50.144  36.084  1.00  0.00     0.002 C
HETATM    8  C25 UNL     1      41.018  51.299  37.067  1.00  0.00     0.066 C
HETATM    9  C26 UNL     1      42.319  50.865  37.660  1.00  0.00    -0.034 C
HETATM   10  C27 UNL     1      42.957  51.766  38.670  1.00  0.00     0.014 C
HETATM   11  C28 UNL     1      43.252  50.805  36.497  1.00  0.00     0.014 C
HETATM   12  C29 UNL     1      41.981  49.617  38.383  1.00  0.00     0.023 C
ENDROOT
BRANCH   1  13
HETATM   13  C9  UNL     1      45.236  52.239  39.681  1.00  0.00     0.019 C
BRANCH  13  14
HETATM   14  C3  UNL     1      44.853  51.728  41.015  1.00  0.00     0.088 C
BRANCH  14  15
HETATM   15  C2  UNL     1      44.557  52.694  42.066  1.00  0.00     0.222 C
HETATM   16  N1  UNL     1      44.758  52.496  43.450  1.00  0.00    -0.365 N
HETATM   17  C1  UNL     1      44.459  53.491  44.495  1.00  0.00     0.149 C
ATOM     18  H1  UNL     1      45.138  51.597  43.747  1.00  0.00     0.161 HD
HETATM   19  O1  UNL     1      44.081  53.840  41.780  1.00  0.00    -0.273 OA
ENDBRANCH  14  15
BRANCH  14  20
HETATM   20  C4  UNL     1      45.941  50.873  41.580  1.00  0.00     0.133 C
BRANCH  20  21
HETATM   21  C5  UNL     1      47.359  51.433  41.522  1.00  0.00     0.287 C
HETATM   22  O2  UNL     1      48.189  50.461  41.293  1.00  0.00    -0.258 OA
HETATM   23  N2  UNL     1      47.695  52.686  41.682  1.00  0.00    -0.410 NA
BRANCH  23  24
HETATM   24  C6  UNL     1      48.061  54.049  41.856  1.00  0.00     0.167 A
HETATM   25  C7  UNL     1      48.383  54.257  43.372  1.00  0.00     0.042 A
HETATM   26  C8  UNL     1      47.342  55.080  42.636  1.00  0.00     0.042 A
ENDBRANCH  23  24
ENDBRANCH  20  21
ENDBRANCH  14  20
ENDBRANCH  13  14
ENDBRANCH   1  13
BRANCH   5  27
HETATM   27  C15 UNL     1      41.688  47.264  37.949  1.00  0.00     0.041 C
BRANCH  27  28
HETATM   28  C16 UNL     1      42.266  46.909  39.274  1.00  0.00     0.233 C
BRANCH  28  29
HETATM   29  N3  UNL     1      42.980  45.664  39.282  1.00  0.00    -0.073 N
ATOM     30  H32 UNL     1      42.345  44.881  39.439  1.00  0.00     0.277 HD
ATOM     31  H31 UNL     1      43.309  45.426  38.346  1.00  0.00     0.277 HD
BRANCH  29  32
HETATM   32  C17 UNL     1      44.080  45.646  40.243  1.00  0.00     0.265 C
BRANCH  32  33
HETATM   33  C18 UNL     1      44.588  47.083  40.342  1.00  0.00     0.211 C
HETATM   34  C19 UNL     1      45.888  47.267  39.614  1.00  0.00     0.036 C
HETATM   35  C20 UNL     1      46.891  46.776  40.642  1.00  0.00     0.029 C
HETATM   36  C21 UNL     1      46.266  47.198  41.970  1.00  0.00     0.233 C
HETATM   37  N4  UNL     1      44.863  47.445  41.724  1.00  0.00    -0.069 N
ATOM     38  H42 UNL     1      44.583  48.399  41.949  1.00  0.00     0.277 HD
ATOM     39  H41 UNL     1      44.254  46.967  42.388  1.00  0.00     0.277 HD
ENDBRANCH  32  33
ENDBRANCH  29  32
ENDBRANCH  28  29
ENDBRANCH  27  28
ENDBRANCH   5  27
BRANCH   7  40
HETATM   40  N5  UNL     1      39.916  50.437  34.998  1.00  0.00    -0.398 N
HETATM   41  C24 UNL     1      39.225  51.710  34.993  1.00  0.00     0.146 C
ATOM     42  H5  UNL     1      39.794  49.772  34.235  1.00  0.00     0.158 HD
ENDBRANCH   7  40
TORSDOF 12
ENDMDL