MODEL 5
REMARK VINA RESULT: -8.501580016      2.052      5.897
REMARK  15 active torsions:
REMARK  status: ('A' for Active; 'I' for Inactive)
REMARK    1  A    between atoms: C2_2  and  C4_4
REMARK    2  A    between atoms: C4_4  and  C5_5
REMARK    3  A    between atoms: C5_5  and  N1_6
REMARK    4  A    between atoms: C5_5  and  C8_13
REMARK    5  A    between atoms: N1_6  and  C6_9
REMARK    6  A    between atoms: C6_9  and  C7_10
REMARK    7  A    between atoms: C8_13  and  N2_15
REMARK    8  A    between atoms: N2_15  and  C10_17
REMARK    9  A    between atoms: C10_17  and  C11_18
REMARK   10  A    between atoms: C10_17  and  C19_29
REMARK       I    between atoms: C11_18  and  N3_20
REMARK   11  A    between atoms: N3_20  and  C12_22
REMARK   12  A    between atoms: C19_29  and  O4_30
REMARK   13  A    between atoms: C19_29  and  N4_32
REMARK   14  A    between atoms: C23_36  and  C24_37
REMARK   15  A    between atoms: C24_37  and  C25_38
ROOT
HETATM    1  C10 UNL     1      45.627  51.285  41.046  1.00  0.00     0.245 C
ENDROOT
BRANCH   1   2
HETATM    2  N2  UNL     1      45.494  52.545  40.567  1.00  0.00    -0.397 N
ATOM      3  H2  UNL     1      46.053  52.900  39.793  1.00  0.00     0.154 HD
BRANCH   2   4
HETATM    4  C8  UNL     1      44.472  53.365  41.257  1.00  0.00     0.104 C
HETATM    5  C9  UNL     1      43.735  54.025  40.044  1.00  0.00     0.034 C
BRANCH   4   6
HETATM    6  C5  UNL     1      45.050  54.548  41.953  1.00  0.00     0.208 C
BRANCH   6   7
HETATM    7  C4  UNL     1      45.060  54.640  43.407  1.00  0.00     0.039 C
BRANCH   7   8
HETATM    8  C2  UNL     1      44.324  53.504  44.096  1.00  0.00    -0.021 C
HETATM    9  C1  UNL     1      43.480  54.026  45.252  1.00  0.00     0.009 C
HETATM   10  C3  UNL     1      45.375  52.613  44.822  1.00  0.00     0.009 C
ENDBRANCH   7   8
ENDBRANCH   6   7
BRANCH   6  11
HETATM   11  N1  UNL     1      46.496  54.506  41.487  1.00  0.00    -0.059 N
ATOM     12  H12 UNL     1      46.786  53.597  41.126  1.00  0.00     0.278 HD
ATOM     13  H11 UNL     1      46.669  55.034  40.632  1.00  0.00     0.278 HD
BRANCH  11  14
HETATM   14  C6  UNL     1      47.280  54.961  42.630  1.00  0.00     0.345 C
BRANCH  14  15
HETATM   15  C7  UNL     1      48.331  53.994  43.028  1.00  0.00     0.199 C
HETATM   16  O1  UNL     1      49.161  54.107  43.930  1.00  0.00    -0.647 OA
HETATM   17  O2  UNL     1      48.352  52.809  42.251  1.00  0.00    -0.647 OA
ENDBRANCH  14  15
ENDBRANCH  11  14
ENDBRANCH   6  11
ENDBRANCH   4   6
ENDBRANCH   2   4
ENDBRANCH   1   2
BRANCH   1  18
HETATM   18  C11 UNL     1      44.993  50.695  39.574  1.00  0.00     0.248 C
HETATM   19  O3  UNL     1      45.847  50.683  38.718  1.00  0.00    -0.271 OA
HETATM   20  N3  UNL     1      43.700  50.354  39.543  1.00  0.00    -0.354 N
ATOM     21  H3  UNL     1      43.242  50.547  40.433  1.00  0.00     0.162 HD
BRANCH  20  22
HETATM   22  C12 UNL     1      42.794  49.795  38.602  1.00  0.00     0.084 C
HETATM   23  C13 UNL     1      42.189  50.749  37.622  1.00  0.00     0.025 C
HETATM   24  C14 UNL     1      42.748  50.637  36.213  1.00  0.00     0.002 C
HETATM   25  C15 UNL     1      42.172  49.535  35.407  1.00  0.00     0.000 C
HETATM   26  C16 UNL     1      41.353  48.558  36.226  1.00  0.00     0.000 C
HETATM   27  C17 UNL     1      42.179  47.804  37.249  1.00  0.00     0.002 C
HETATM   28  C18 UNL     1      43.357  48.610  37.785  1.00  0.00     0.025 C
ENDBRANCH  20  22
ENDBRANCH   1  18
BRANCH   1  29
HETATM   29  C19 UNL     1      45.252  50.150  41.787  1.00  0.00     0.146 C
BRANCH  29  30
HETATM   30  O4  UNL     1      44.172  50.199  42.535  1.00  0.00    -0.347 OA
ATOM     31  H4  UNL     1      44.035  49.532  43.197  1.00  0.00     0.219 HD
ENDBRANCH  29  30
BRANCH  29  32
HETATM   32  N4  UNL     1      45.868  48.881  41.873  1.00  0.00    -0.358 N
HETATM   33  C20 UNL     1      47.022  48.354  41.245  1.00  0.00     0.125 C
HETATM   34  C21 UNL     1      47.546  47.242  42.141  1.00  0.00     0.022 C
HETATM   35  C22 UNL     1      46.483  47.124  43.210  1.00  0.00     0.027 C
HETATM   36  C23 UNL     1      45.254  47.665  42.484  1.00  0.00     0.096 C
BRANCH  36  37
HETATM   37  C24 UNL     1      44.876  46.730  41.354  1.00  0.00     0.138 C
BRANCH  37  38
HETATM   38  C25 UNL     1      43.466  46.889  40.997  1.00  0.00     0.174 C
HETATM   39  O5  UNL     1      42.750  47.846  41.386  1.00  0.00    -0.648 OA
HETATM   40  O6  UNL     1      42.806  45.963  40.175  1.00  0.00    -0.648 OA
ENDBRANCH  37  38
ENDBRANCH  36  37
ENDBRANCH  29  32
ENDBRANCH   1  29
TORSDOF 15
ENDMDL