MODEL 3
REMARK VINA RESULT: -8.232042810     11.530     15.452
REMARK  15 active torsions:
REMARK  status: ('A' for Active; 'I' for Inactive)
REMARK    1  A    between atoms: C7_7  and  C8_8
REMARK    2  A    between atoms: C8_8  and  C19_28
REMARK       I    between atoms: N1_9  and  C9_11
REMARK    3  A    between atoms: C9_11  and  C10_13
REMARK    4  A    between atoms: C10_13  and  C11_14
REMARK    5  A    between atoms: C11_14  and  C12_15
REMARK    6  A    between atoms: C12_15  and  C13_16
REMARK    7  A    between atoms: C13_16  and  C14_17
REMARK    8  A    between atoms: C19_28  and  O3_29
REMARK    9  A    between atoms: C19_28  and  N4_31
REMARK   10  A    between atoms: N4_31  and  C20_32
REMARK   11  A    between atoms: C20_32  and  C21_33
REMARK   12  A    between atoms: C21_33  and  C22_34
REMARK   13  A    between atoms: C22_34  and  C23_35
REMARK   14  A    between atoms: C23_35  and  C24_36
REMARK   15  A    between atoms: C24_36  and  N5_37
ROOT
HETATM    1  C8  UNL     1      44.812  41.901  49.417  1.00  0.00     0.082 C
HETATM    2  N1  UNL     1      45.394  42.362  48.434  1.00  0.00    -0.326 N
ATOM      3  H1  UNL     1      45.542  41.623  47.747  1.00  0.00     0.168 HD
HETATM    4  C9  UNL     1      45.907  43.539  47.962  1.00  0.00     0.222 C
HETATM    5  O1  UNL     1      45.323  44.086  46.946  1.00  0.00    -0.273 OA
ENDROOT
BRANCH   1   6
HETATM    6  C7  UNL     1      44.427  40.426  49.472  1.00  0.00     0.045 C
HETATM    7  C2  UNL     1      45.656  39.577  49.306  1.00  0.00    -0.009 C
HETATM    8  C1  UNL     1      45.434  38.262  48.623  1.00  0.00     0.011 C
HETATM    9  C3  UNL     1      46.288  39.315  50.681  1.00  0.00     0.005 C
HETATM   10  C4  UNL     1      45.331  38.542  51.547  1.00  0.00     0.000 C
HETATM   11  C5  UNL     1      43.884  38.751  51.206  1.00  0.00     0.001 C
HETATM   12  C6  UNL     1      43.681  40.169  50.754  1.00  0.00     0.011 C
ENDBRANCH   1   6
BRANCH   1  13
HETATM   13  C19 UNL     1      44.378  42.726  50.570  1.00  0.00     0.232 C
BRANCH  13  14
HETATM   14  O3  UNL     1      43.294  43.394  50.265  1.00  0.00    -0.334 OA
ATOM     15  H3  UNL     1      43.215  44.162  50.819  1.00  0.00     0.220 HD
ENDBRANCH  13  14
BRANCH  13  16
HETATM   16  N4  UNL     1      45.037  42.748  51.711  1.00  0.00    -0.423 NA
BRANCH  16  17
HETATM   17  C20 UNL     1      45.727  42.773  52.904  1.00  0.00     0.221 C
BRANCH  17  18
HETATM   18  C21 UNL     1      45.528  41.474  53.697  1.00  0.00     0.033 C
BRANCH  18  19
HETATM   19  C22 UNL     1      44.314  41.566  54.567  1.00  0.00     0.004 C
BRANCH  19  20
HETATM   20  C23 UNL     1      44.373  42.632  55.601  1.00  0.00     0.027 C
BRANCH  20  21
HETATM   21  C24 UNL     1      44.526  41.958  56.967  1.00  0.00     0.229 C
BRANCH  21  22
HETATM   22  N5  UNL     1      43.964  40.622  56.818  1.00  0.00    -0.079 N
ATOM     23  H53 UNL     1      44.403  40.074  56.078  1.00  0.00     0.274 HD
ATOM     24  H52 UNL     1      44.195  39.993  57.588  1.00  0.00     0.274 HD
ATOM     25  H51 UNL     1      42.961  40.753  56.687  1.00  0.00     0.274 HD
ENDBRANCH  21  22
ENDBRANCH  20  21
ENDBRANCH  19  20
ENDBRANCH  18  19
ENDBRANCH  17  18
ENDBRANCH  16  17
ENDBRANCH  13  16
ENDBRANCH   1  13
BRANCH   4  26
HETATM   26  C10 UNL     1      47.070  44.252  48.502  1.00  0.00     0.103 C
BRANCH  26  27
HETATM   27  C11 UNL     1      47.906  43.233  49.257  1.00  0.00     0.009 C
BRANCH  27  28
HETATM   28  C12 UNL     1      48.436  43.679  50.560  1.00  0.00     0.002 C
BRANCH  28  29
HETATM   29  C13 UNL     1      48.586  45.122  50.822  1.00  0.00     0.017 C
BRANCH  29  30
HETATM   30  C14 UNL     1      49.525  45.530  51.903  1.00  0.00     0.072 C
HETATM   31  S1  UNL     1      48.858  44.764  53.446  1.00  0.00    -0.160 SA
HETATM   32  C15 UNL     1      47.521  46.012  53.633  1.00  0.00     0.101 C
HETATM   33  C16 UNL     1      48.190  47.221  53.083  1.00  0.00     0.119 C
HETATM   34  N2  UNL     1      48.718  47.986  54.228  1.00  0.00    -0.336 N
HETATM   35  C18 UNL     1      49.327  46.971  52.240  1.00  0.00     0.123 C
HETATM   36  C17 UNL     1      50.131  47.900  54.224  1.00  0.00     0.316 C
ATOM     37  H2  UNL     1      48.157  48.494  54.912  1.00  0.00     0.164 HD
HETATM   38  O2  UNL     1      50.869  48.143  55.217  1.00  0.00    -0.247 OA
HETATM   39  N3  UNL     1      50.502  47.497  52.909  1.00  0.00    -0.335 N
ATOM     40  H3  UNL     1      51.436  47.566  52.505  1.00  0.00     0.164 HD
ENDBRANCH  29  30
ENDBRANCH  28  29
ENDBRANCH  27  28
ENDBRANCH  26  27
ENDBRANCH   4  26
TORSDOF 15
ENDMDL