MODEL 5
REMARK VINA RESULT: -8.810656617      2.063      5.000
REMARK  15 active torsions:
REMARK  status: ('A' for Active; 'I' for Inactive)
REMARK    1  A    between atoms: C4_4  and  C5_5
REMARK    2  A    between atoms: C5_5  and  N1_6
REMARK    3  A    between atoms: N1_6  and  C6_8
REMARK    4  A    between atoms: C6_8  and  O1_9
REMARK    5  A    between atoms: C6_8  and  C7_11
REMARK    6  A    between atoms: C7_11  and  N2_12
REMARK    7  A    between atoms: C7_11  and  C18_25
REMARK       I    between atoms: N2_12  and  C8_14
REMARK    8  A    between atoms: C8_14  and  C9_16
REMARK    9  A    between atoms: C9_16  and  C10_17
REMARK   10  A    between atoms: C10_17  and  C11_18
REMARK   11  A    between atoms: C11_18  and  C12_19
REMARK   12  A    between atoms: C18_25  and  C19_26
REMARK   13  A    between atoms: C19_26  and  C20_27
REMARK   14  A    between atoms: C20_27  and  C21_28
REMARK   15  A    between atoms: N4_31  and  N5_33
REMARK       I    between atoms: N5_33  and  C22_35
ROOT
HETATM    1  C7  UNL     1      46.222  48.981  41.926  1.00  0.00     0.110 C
ENDROOT
BRANCH   1   2
HETATM    2  C6  UNL     1      47.112  50.086  41.834  1.00  0.00     0.165 C
BRANCH   2   3
HETATM    3  N1  UNL     1      46.944  51.461  42.093  1.00  0.00    -0.365 N
ATOM      4  H1  UNL     1      47.460  51.913  42.847  1.00  0.00     0.162 HD
BRANCH   3   5
HETATM    5  C5  UNL     1      46.001  52.241  41.250  1.00  0.00     0.162 C
BRANCH   5   6
HETATM    6  C4  UNL     1      45.056  53.028  42.059  1.00  0.00    -0.017 A
HETATM    7  C3  UNL     1      44.748  52.862  43.373  1.00  0.00     0.035 A
HETATM    8  C2  UNL     1      43.800  53.783  43.720  1.00  0.00     0.006 A
HETATM    9  C1  UNL     1      43.191  53.935  45.089  1.00  0.00     0.068 C
HETATM   10  N7  UNL     1      43.545  54.493  42.618  1.00  0.00    -0.363 N
HETATM   11  C23 UNL     1      44.275  54.084  41.578  1.00  0.00     0.013 A
ATOM     12  H7  UNL     1      42.872  55.259  42.577  1.00  0.00     0.165 HD
HETATM   13  C24 UNL     1      44.311  54.587  40.181  1.00  0.00     0.068 C
ENDBRANCH   5   6
ENDBRANCH   3   5
ENDBRANCH   2   3
BRANCH   2  14
HETATM   14  O1  UNL     1      48.325  49.783  41.435  1.00  0.00    -0.345 OA
ATOM     15  H1  UNL     1      48.958  50.469  41.613  1.00  0.00     0.219 HD
ENDBRANCH   2  14
ENDBRANCH   1   2
BRANCH   1  16
HETATM   16  N2  UNL     1      46.642  47.804  41.576  1.00  0.00    -0.322 N
HETATM   17  C8  UNL     1      46.832  47.216  40.336  1.00  0.00     0.222 C
HETATM   18  O2  UNL     1      47.911  47.478  39.732  1.00  0.00    -0.273 OA
ATOM     19  H2  UNL     1      46.878  47.198  42.361  1.00  0.00     0.169 HD
BRANCH  17  20
HETATM   20  C9  UNL     1      45.768  46.330  39.810  1.00  0.00     0.103 C
BRANCH  20  21
HETATM   21  C10 UNL     1      45.243  46.671  38.455  1.00  0.00     0.010 C
BRANCH  21  22
HETATM   22  C11 UNL     1      45.660  48.031  38.026  1.00  0.00     0.005 C
BRANCH  22  23
HETATM   23  C12 UNL     1      44.530  49.048  38.147  1.00  0.00    -0.014 C
HETATM   24  C13 UNL     1      45.121  50.405  38.197  1.00  0.00     0.004 C
HETATM   25  C14 UNL     1      44.173  51.525  37.984  1.00  0.00     0.000 C
HETATM   26  C15 UNL     1      42.764  51.024  37.893  1.00  0.00     0.000 C
HETATM   27  C16 UNL     1      42.724  50.041  36.722  1.00  0.00     0.000 C
HETATM   28  C17 UNL     1      43.571  48.826  37.012  1.00  0.00     0.004 C
ENDBRANCH  22  23
ENDBRANCH  21  22
ENDBRANCH  20  21
ENDBRANCH  17  20
ENDBRANCH   1  16
BRANCH   1  29
HETATM   29  C18 UNL     1      44.835  49.017  42.389  1.00  0.00     0.057 C
HETATM   30  N4  UNL     1      44.535  48.763  43.633  1.00  0.00    -0.299 N
ATOM     31  H4  UNL     1      43.545  48.813  43.871  1.00  0.00     0.186 HD
BRANCH  29  32
HETATM   32  C19 UNL     1      43.670  49.293  41.523  1.00  0.00     0.070 C
BRANCH  32  33
HETATM   33  C20 UNL     1      42.523  48.314  41.769  1.00  0.00     0.105 C
BRANCH  33  34
HETATM   34  C21 UNL     1      41.922  47.818  40.517  1.00  0.00     0.231 C
HETATM   35  N3  UNL     1      41.073  48.636  39.711  1.00  0.00    -0.062 NA
HETATM   36  O3  UNL     1      42.153  46.639  40.135  1.00  0.00    -0.277 OA
ENDBRANCH  33  34
ENDBRANCH  32  33
ENDBRANCH  29  32
BRANCH  30  37
HETATM   37  N5  UNL     1      45.377  48.440  44.657  1.00  0.00    -0.254 N
HETATM   38  C22 UNL     1      45.660  47.111  45.017  1.00  0.00     0.347 C
HETATM   39  N6  UNL     1      46.565  46.870  46.116  1.00  0.00    -0.038 NA
HETATM   40  O4  UNL     1      45.153  46.144  44.414  1.00  0.00    -0.249 OA
ATOM     41  H5  UNL     1      45.818  49.194  45.184  1.00  0.00     0.191 HD
ENDBRANCH  30  37
ENDBRANCH   1  29
TORSDOF 15
ENDMDL