MODEL 4
REMARK VINA RESULT: -8.792541028      3.162     10.782
REMARK  13 active torsions:
REMARK  status: ('A' for Active; 'I' for Inactive)
REMARK    1  A    between atoms: N1_1  and  C1_5
REMARK    2  A    between atoms: C1_5  and  C2_6
REMARK    3  A    between atoms: C2_6  and  C3_7
REMARK    4  A    between atoms: C3_7  and  C4_8
REMARK    5  A    between atoms: N2_9  and  C5_11
REMARK    6  A    between atoms: C5_11  and  C6_12
REMARK    7  A    between atoms: C5_11  and  N5_32
REMARK    8  A    between atoms: C6_12  and  N3_13
REMARK    9  A    between atoms: C10_17  and  N4_18
REMARK       I    between atoms: N4_18  and  C11_20
REMARK   10  A    between atoms: C11_20  and  C12_22
REMARK   11  A    between atoms: C12_22  and  C13_23
REMARK   12  A    between atoms: N5_32  and  C20_34
REMARK   13  A    between atoms: C20_34  and  C21_35
ROOT
HETATM    1  C5  UNL     1      44.834  43.237  50.303  1.00  0.00     0.220 C
ENDROOT
BRANCH   1   2
HETATM    2  N2  UNL     1      43.560  42.683  50.585  1.00  0.00    -0.378 N
HETATM    3  C4  UNL     1      43.252  41.435  51.039  1.00  0.00     0.058 C
ATOM      4  H2  UNL     1      42.765  43.302  50.426  1.00  0.00     0.161 HD
BRANCH   3   5
HETATM    5  C3  UNL     1      43.319  40.298  50.092  1.00  0.00     0.046 C
BRANCH   5   6
HETATM    6  C2  UNL     1      44.267  39.188  50.579  1.00  0.00     0.032 C
BRANCH   6   7
HETATM    7  C1  UNL     1      45.027  38.651  49.411  1.00  0.00     0.230 C
BRANCH   7   8
HETATM    8  N1  UNL     1      44.855  39.593  48.300  1.00  0.00    -0.079 N
ATOM      9  H13 UNL     1      43.960  39.486  47.823  1.00  0.00     0.274 HD
ATOM     10  H12 UNL     1      44.726  40.556  48.612  1.00  0.00     0.274 HD
ATOM     11  H11 UNL     1      45.653  39.482  47.675  1.00  0.00     0.274 HD
ENDBRANCH   7   8
ENDBRANCH   6   7
ENDBRANCH   5   6
ENDBRANCH   3   5
ENDBRANCH   1   2
BRANCH   1  12
HETATM   12  C6  UNL     1      45.157  43.323  48.898  1.00  0.00     0.113 C
BRANCH  12  13
HETATM   13  N3  UNL     1      45.930  44.333  48.283  1.00  0.00    -0.326 N
HETATM   14  C7  UNL     1      47.340  44.570  48.516  1.00  0.00     0.131 C
HETATM   15  C8  UNL     1      47.728  45.996  48.367  1.00  0.00     0.023 C
HETATM   16  C9  UNL     1      47.098  46.762  47.272  1.00  0.00     0.036 C
HETATM   17  C10 UNL     1      46.166  45.966  46.398  1.00  0.00     0.177 C
HETATM   18  C19 UNL     1      45.287  45.189  47.310  1.00  0.00     0.246 C
HETATM   19  O2  UNL     1      44.033  45.250  47.264  1.00  0.00    -0.271 OA
BRANCH  17  20
HETATM   20  N4  UNL     1      45.417  46.929  45.602  1.00  0.00    -0.347 N
HETATM   21  C11 UNL     1      45.923  47.479  44.399  1.00  0.00     0.228 C
HETATM   22  O1  UNL     1      47.062  47.105  44.030  1.00  0.00    -0.273 OA
ATOM     23  H4  UNL     1      44.493  47.218  45.924  1.00  0.00     0.163 HD
BRANCH  21  24
HETATM   24  C12 UNL     1      45.181  48.457  43.576  1.00  0.00     0.050 C
HETATM   25  C14 UNL     1      44.447  49.462  44.438  1.00  0.00     0.020 C
HETATM   26  C15 UNL     1      45.246  50.720  44.671  1.00  0.00     0.001 C
HETATM   27  C16 UNL     1      45.511  51.464  43.381  1.00  0.00     0.000 C
HETATM   28  C17 UNL     1      45.454  50.485  42.215  1.00  0.00     0.001 C
HETATM   29  C18 UNL     1      46.103  49.207  42.655  1.00  0.00     0.020 C
BRANCH  24  30
HETATM   30  C13 UNL     1      44.091  47.752  42.756  1.00  0.00     0.105 C
HETATM   31  S1  UNL     1      44.828  46.807  41.407  1.00  0.00    -0.096 SA
ENDBRANCH  24  30
ENDBRANCH  21  24
ENDBRANCH  17  20
ENDBRANCH  12  13
ENDBRANCH   1  12
BRANCH   1  32
HETATM   32  N5  UNL     1      45.022  44.343  51.191  1.00  0.00    -0.377 N
ATOM     33  H5  UNL     1      44.406  45.155  51.158  1.00  0.00     0.161 HD
BRANCH  32  34
HETATM   34  C20 UNL     1      46.066  44.276  52.094  1.00  0.00     0.062 C
BRANCH  34  35
HETATM   35  C21 UNL     1      45.656  43.870  53.505  1.00  0.00     0.024 C
HETATM   36  C22 UNL     1      45.766  42.402  53.735  1.00  0.00     0.010 C
HETATM   37  C23 UNL     1      45.241  42.065  55.112  1.00  0.00     0.001 C
HETATM   38  C24 UNL     1      45.318  43.220  56.081  1.00  0.00     0.000 C
HETATM   39  C25 UNL     1      46.550  44.033  55.851  1.00  0.00     0.001 C
HETATM   40  C26 UNL     1      46.527  44.607  54.467  1.00  0.00     0.010 C
ENDBRANCH  34  35
ENDBRANCH  32  34
ENDBRANCH   1  32
TORSDOF 13
ENDMDL