MODEL 2
REMARK VINA RESULT: -8.379098623      5.622      9.866
REMARK  15 active torsions:
REMARK  status: ('A' for Active; 'I' for Inactive)
REMARK    1  A    between atoms: C2_2  and  C3_3
REMARK    2  A    between atoms: C3_3  and  C4_4
REMARK    3  A    between atoms: C3_3  and  C7_11
REMARK    4  A    between atoms: C4_4  and  C5_5
REMARK    5  A    between atoms: C5_5  and  O1_6
REMARK    6  A    between atoms: C5_5  and  C6_8
REMARK    7  A    between atoms: C7_11  and  C8_12
REMARK    8  A    between atoms: C7_11  and  N2_16
REMARK    9  A    between atoms: C8_12  and  C9_13
REMARK   10  A    between atoms: C15_20  and  C16_21
REMARK       I    between atoms: C16_21  and  N3_23
REMARK   11  A    between atoms: N3_23  and  C17_25
REMARK   12  A    between atoms: C17_25  and  C18_29
REMARK   13  A    between atoms: C21_32  and  C22_33
REMARK   14  A    between atoms: C22_33  and  N5_34
REMARK   15  A    between atoms: N5_34  and  C23_37
ROOT
HETATM    1  C16 UNL     1      45.708  46.773  44.956  1.00  0.00     0.245 C
HETATM    2  O3  UNL     1      45.027  45.784  44.736  1.00  0.00    -0.271 OA
HETATM    3  N3  UNL     1      46.389  47.024  46.145  1.00  0.00    -0.315 N
ATOM      4  H3  UNL     1      46.913  47.899  46.164  1.00  0.00     0.170 HD
ENDROOT
BRANCH   1   5
HETATM    5  C15 UNL     1      45.802  47.785  43.845  1.00  0.00     0.172 C
HETATM    6  N2  UNL     1      44.781  47.649  42.881  1.00  0.00    -0.395 N
HETATM    7  C12 UNL     1      43.589  48.213  43.333  1.00  0.00     0.118 C
HETATM    8  C13 UNL     1      44.049  49.354  44.252  1.00  0.00     0.022 C
HETATM    9  C14 UNL     1      45.525  49.135  44.471  1.00  0.00     0.036 C
BRANCH   6  10
HETATM   10  C7  UNL     1      45.053  47.317  41.574  1.00  0.00     0.084 C
BRANCH  10  11
HETATM   11  C3  UNL     1      45.886  48.216  40.701  1.00  0.00     0.010 C
BRANCH  11  12
HETATM   12  C2  UNL     1      47.342  48.020  40.895  1.00  0.00     0.002 C
HETATM   13  C1  UNL     1      47.879  46.669  41.203  1.00  0.00     0.005 C
ENDBRANCH  11  12
BRANCH  11  14
HETATM   14  C4  UNL     1      45.430  49.592  40.556  1.00  0.00     0.047 C
BRANCH  14  15
HETATM   15  C5  UNL     1      45.010  50.089  39.205  1.00  0.00     0.207 C
BRANCH  15  16
HETATM   16  O1  UNL     1      43.612  50.273  39.097  1.00  0.00    -0.387 OA
ATOM     17  H1  UNL     1      43.252  50.796  39.803  1.00  0.00     0.210 HD
ENDBRANCH  15  16
BRANCH  15  18
HETATM   18  C6  UNL     1      45.560  51.503  39.018  1.00  0.00     0.259 C
HETATM   19  N1  UNL     1      46.266  51.894  37.859  1.00  0.00    -0.060 NA
HETATM   20  O2  UNL     1      45.385  52.362  39.926  1.00  0.00    -0.274 OA
ENDBRANCH  15  18
ENDBRANCH  14  15
ENDBRANCH  11  14
ENDBRANCH  10  11
BRANCH  10  21
HETATM   21  C8  UNL     1      43.741  47.010  40.872  1.00  0.00     0.029 C
BRANCH  21  22
HETATM   22  C9  UNL     1      43.909  46.327  39.544  1.00  0.00    -0.021 C
HETATM   23  C10 UNL     1      42.632  46.662  38.753  1.00  0.00     0.009 C
HETATM   24  C11 UNL     1      43.898  44.811  39.722  1.00  0.00     0.009 C
ENDBRANCH  21  22
ENDBRANCH  10  21
ENDBRANCH   6  10
ENDBRANCH   1   5
BRANCH   3  25
HETATM   25  C17 UNL     1      46.469  46.257  47.330  1.00  0.00     0.081 C
HETATM   26  N4  UNL     1      45.285  46.022  47.867  1.00  0.00    -0.389 N
ATOM     27  H42 UNL     1      44.462  46.393  47.393  1.00  0.00     0.157 HD
ATOM     28  H41 UNL     1      45.342  45.468  48.721  1.00  0.00     0.157 HD
BRANCH  25  29
HETATM   29  C18 UNL     1      47.653  45.723  48.012  1.00  0.00     0.053 C
HETATM   30  C19 UNL     1      47.663  44.276  48.345  1.00  0.00     0.013 C
HETATM   31  C20 UNL     1      48.130  44.117  49.807  1.00  0.00     0.007 C
HETATM   32  C21 UNL     1      48.705  45.482  50.151  1.00  0.00     0.012 C
HETATM   33  C27 UNL     1      47.710  46.367  49.416  1.00  0.00     0.018 C
BRANCH  32  34
HETATM   34  C22 UNL     1      48.669  45.685  51.643  1.00  0.00     0.237 C
BRANCH  34  35
HETATM   35  N5  UNL     1      49.466  46.834  52.013  1.00  0.00    -0.067 N
ATOM     36  H52 UNL     1      50.404  46.551  52.293  1.00  0.00     0.278 HD
ATOM     37  H51 UNL     1      49.698  47.395  51.193  1.00  0.00     0.278 HD
BRANCH  35  38
HETATM   38  C23 UNL     1      48.851  47.640  53.025  1.00  0.00     0.115 C
HETATM   39  C24 UNL     1      48.341  48.964  52.562  1.00  0.00     0.045 C
HETATM   40  C25 UNL     1      49.927  47.948  54.076  1.00  0.00     0.045 C
HETATM   41  C26 UNL     1      47.757  46.896  53.771  1.00  0.00     0.045 C
ENDBRANCH  35  38
ENDBRANCH  34  35
ENDBRANCH  32  34
ENDBRANCH  25  29
ENDBRANCH   3  25
TORSDOF 15
ENDMDL