MODEL 2
REMARK VINA RESULT: -8.234112526      1.462      1.808
REMARK  14 active torsions:
REMARK  status: ('A' for Active; 'I' for Inactive)
REMARK    1  A    between atoms: C2_2  and  C4_4
REMARK    2  A    between atoms: C4_4  and  C5_5
REMARK    3  A    between atoms: C5_5  and  C6_6
REMARK    4  A    between atoms: C5_5  and  C7_9
REMARK    5  A    between atoms: C6_6  and  O1_7
REMARK    6  A    between atoms: C7_9  and  N1_11
REMARK    7  A    between atoms: N1_11  and  C9_13
REMARK    8  A    between atoms: C9_13  and  C10_14
REMARK    9  A    between atoms: C9_13  and  C14_22
REMARK   10  A    between atoms: C10_14  and  C11_15
REMARK   11  A    between atoms: C11_15  and  C12_16
REMARK   12  A    between atoms: C12_16  and  N2_17
REMARK       I    between atoms: C14_22  and  N5_24
REMARK   13  A    between atoms: N5_24  and  C15_26
REMARK   14  A    between atoms: C15_26  and  C16_27
ROOT
HETATM    1  C9  UNL     1      46.637  47.522  43.201  1.00  0.00     0.170 C
ENDROOT
BRANCH   1   2
HETATM    2  N1  UNL     1      46.389  48.893  43.105  1.00  0.00    -0.405 N
ATOM      3  H1  UNL     1      47.000  49.445  43.706  1.00  0.00     0.154 HD
BRANCH   2   4
HETATM    4  C7  UNL     1      45.528  49.653  42.400  1.00  0.00     0.079 C
HETATM    5  C8  UNL     1      44.941  50.689  43.421  1.00  0.00     0.032 C
BRANCH   4   6
HETATM    6  C5  UNL     1      46.050  50.447  41.245  1.00  0.00     0.031 C
BRANCH   6   7
HETATM    7  C4  UNL     1      44.910  51.210  40.679  1.00  0.00     0.012 C
BRANCH   7   8
HETATM    8  C2  UNL     1      45.160  52.478  39.983  1.00  0.00    -0.022 C
HETATM    9  C1  UNL     1      45.293  52.084  38.477  1.00  0.00     0.009 C
HETATM   10  C3  UNL     1      44.115  53.530  40.035  1.00  0.00     0.009 C
ENDBRANCH   7   8
ENDBRANCH   6   7
BRANCH   6  11
HETATM   11  C6  UNL     1      47.340  51.124  41.457  1.00  0.00     0.170 C
BRANCH  11  12
HETATM   12  O1  UNL     1      48.349  50.129  41.300  1.00  0.00    -0.400 OA
ATOM     13  H1  UNL     1      48.525  50.069  40.368  1.00  0.00     0.209 HD
ENDBRANCH  11  12
ENDBRANCH   6  11
ENDBRANCH   4   6
ENDBRANCH   2   4
ENDBRANCH   1   2
BRANCH   1  14
HETATM   14  C10 UNL     1      45.375  46.955  43.843  1.00  0.00     0.039 C
BRANCH  14  15
HETATM   15  C11 UNL     1      45.037  47.168  45.217  1.00  0.00     0.047 C
BRANCH  15  16
HETATM   16  C12 UNL     1      45.974  46.717  46.295  1.00  0.00     0.063 C
BRANCH  16  17
HETATM   17  N2  UNL     1      45.221  46.103  47.285  1.00  0.00    -0.347 N
HETATM   18  C13 UNL     1      44.935  45.015  47.714  1.00  0.00     0.200 C
HETATM   19  N3  UNL     1      45.409  43.771  47.200  1.00  0.00    -0.067 NA
HETATM   20  N4  UNL     1      44.060  44.867  48.873  1.00  0.00    -0.067 NA
ATOM     21  H2  UNL     1      44.746  46.818  47.836  1.00  0.00     0.167 HD
ENDBRANCH  16  17
ENDBRANCH  15  16
ENDBRANCH  14  15
ENDBRANCH   1  14
BRANCH   1  22
HETATM   22  C14 UNL     1      46.631  47.052  41.739  1.00  0.00     0.243 C
HETATM   23  O2  UNL     1      47.751  47.084  41.177  1.00  0.00    -0.271 OA
HETATM   24  N5  UNL     1      45.501  46.622  41.043  1.00  0.00    -0.339 N
ATOM     25  H5  UNL     1      44.620  46.572  41.555  1.00  0.00     0.167 HD
BRANCH  24  26
HETATM   26  C15 UNL     1      45.487  46.248  39.668  1.00  0.00     0.069 C
BRANCH  26  27
HETATM   27  C16 UNL     1      44.472  46.684  38.722  1.00  0.00     0.029 C
HETATM   28  C17 UNL     1      43.056  46.789  39.138  1.00  0.00     0.013 C
HETATM   29  C18 UNL     1      42.066  47.018  38.019  1.00  0.00     0.031 C
HETATM   30  C19 UNL     1      41.904  48.430  37.555  1.00  0.00     0.028 C
HETATM   31  C20 UNL     1      41.455  49.385  38.618  1.00  0.00     0.038 C
HETATM   32  C21 UNL     1      40.859  48.449  36.447  1.00  0.00     0.034 C
HETATM   33  N6  UNL     1      43.140  48.895  36.900  1.00  0.00    -0.381 N
HETATM   34  C22 UNL     1      40.737  49.801  35.807  1.00  0.00     0.031 C
HETATM   35  C23 UNL     1      41.983  50.585  35.791  1.00  0.00    -0.010 C
HETATM   36  C24 UNL     1      43.125  50.168  36.300  1.00  0.00     0.082 C
HETATM   37  C25 UNL     1      44.408  48.206  36.799  1.00  0.00     0.128 C
HETATM   38  C26 UNL     1      44.889  48.097  38.251  1.00  0.00     0.008 C
HETATM   39  C27 UNL     1      46.361  48.306  38.300  1.00  0.00     0.012 C
ENDBRANCH  26  27
ENDBRANCH  24  26
ENDBRANCH   1  22
TORSDOF 14
ENDMDL