MODEL 1
REMARK VINA RESULT: -8.594850301      0.000      0.000
REMARK  16 active torsions:
REMARK  status: ('A' for Active; 'I' for Inactive)
REMARK    1  A    between atoms: C2_2  and  C4_4
REMARK    2  A    between atoms: C4_4  and  C5_5
REMARK    3  A    between atoms: C4_4  and  C6_10
REMARK    4  A    between atoms: C5_5  and  N1_6
REMARK       I    between atoms: C6_10  and  N2_12
REMARK    5  A    between atoms: N2_12  and  C7_14
REMARK    6  A    between atoms: C7_14  and  C8_15
REMARK    7  A    between atoms: C7_14  and  C15_22
REMARK    8  A    between atoms: C8_15  and  C9_16
REMARK    9  A    between atoms: C15_22  and  C16_23
REMARK   10  A    between atoms: C15_22  and  N5_31
REMARK   11  A    between atoms: C16_23  and  O2_24
REMARK   12  A    between atoms: N3_26  and  N4_28
REMARK   13  A    between atoms: C20_35  and  C21_36
REMARK       I    between atoms: C21_36  and  N6_38
REMARK   14  A    between atoms: N6_38  and  C22_40
REMARK   15  A    between atoms: C22_40  and  C23_41
REMARK   16  A    between atoms: C23_41  and  C24_42
ROOT
HETATM    1  C15 UNL     1      46.533  52.817  41.056  1.00  0.00     0.179 C
ENDROOT
BRANCH   1   2
HETATM    2  C7  UNL     1      45.319  52.074  41.596  1.00  0.00     0.115 C
BRANCH   2   3
HETATM    3  N2  UNL     1      45.628  50.691  41.629  1.00  0.00    -0.354 N
HETATM    4  C6  UNL     1      44.832  49.569  41.879  1.00  0.00     0.224 C
HETATM    5  O1  UNL     1      43.581  49.641  42.135  1.00  0.00    -0.273 OA
ATOM      6  H2  UNL     1      46.606  50.476  41.435  1.00  0.00     0.163 HD
BRANCH   4   7
HETATM    7  C4  UNL     1      45.352  48.184  41.872  1.00  0.00     0.106 C
BRANCH   7   8
HETATM    8  C2  UNL     1      46.361  47.869  40.833  1.00  0.00    -0.008 C
HETATM    9  C1  UNL     1      45.846  47.518  39.482  1.00  0.00     0.010 C
HETATM   10  C3  UNL     1      47.349  46.833  41.311  1.00  0.00     0.010 C
ENDBRANCH   7   8
BRANCH   7  11
HETATM   11  C5  UNL     1      45.844  47.759  43.248  1.00  0.00     0.243 C
BRANCH  11  12
HETATM   12  N1  UNL     1      44.715  47.579  44.141  1.00  0.00    -0.079 N
ATOM     13  H13 UNL     1      43.828  47.560  43.638  1.00  0.00     0.274 HD
ATOM     14  H12 UNL     1      44.683  46.638  44.534  1.00  0.00     0.274 HD
ATOM     15  H11 UNL     1      44.729  48.296  44.866  1.00  0.00     0.274 HD
ENDBRANCH  11  12
ENDBRANCH   7  11
ENDBRANCH   4   7
ENDBRANCH   2   3
BRANCH   2  16
HETATM   16  C8  UNL     1      44.878  52.666  42.903  1.00  0.00     0.032 C
BRANCH  16  17
HETATM   17  C9  UNL     1      43.449  53.155  42.938  1.00  0.00    -0.013 C
HETATM   18  C10 UNL     1      43.230  54.508  42.361  1.00  0.00     0.005 C
HETATM   19  C11 UNL     1      43.566  55.644  43.298  1.00  0.00     0.000 C
HETATM   20  C12 UNL     1      42.849  55.469  44.632  1.00  0.00     0.000 C
HETATM   21  C13 UNL     1      43.459  54.195  45.236  1.00  0.00     0.000 C
HETATM   22  C14 UNL     1      42.968  53.057  44.392  1.00  0.00     0.005 C
ENDBRANCH  16  17
ENDBRANCH   2  16
ENDBRANCH   1   2
BRANCH   1  23
HETATM   23  C16 UNL     1      47.557  53.091  42.094  1.00  0.00     0.155 C
HETATM   24  N3  UNL     1      47.553  54.062  42.926  1.00  0.00    -0.288 N
ATOM     25  H3  UNL     1      46.776  54.722  42.887  1.00  0.00     0.188 HD
BRANCH  23  26
HETATM   26  O2  UNL     1      48.656  52.219  42.205  1.00  0.00    -0.347 OA
ATOM     27  H2  UNL     1      48.880  51.875  43.061  1.00  0.00     0.219 HD
ENDBRANCH  23  26
BRANCH  24  28
HETATM   28  N4  UNL     1      48.537  54.275  43.880  1.00  0.00    -0.343 N
ATOM     29  H42 UNL     1      49.440  53.830  43.717  1.00  0.00     0.176 HD
ATOM     30  H41 UNL     1      48.410  54.840  44.720  1.00  0.00     0.176 HD
ENDBRANCH  24  28
ENDBRANCH   1  23
BRANCH   1  31
HETATM   31  N5  UNL     1      46.140  53.923  40.316  1.00  0.00    -0.387 N
HETATM   32  C17 UNL     1      46.596  55.222  40.645  1.00  0.00     0.118 C
HETATM   33  C18 UNL     1      46.310  56.028  39.366  1.00  0.00     0.022 C
HETATM   34  C19 UNL     1      45.160  55.324  38.716  1.00  0.00     0.036 C
HETATM   35  C20 UNL     1      45.071  53.967  39.442  1.00  0.00     0.172 C
BRANCH  35  36
HETATM   36  C21 UNL     1      44.810  52.907  38.483  1.00  0.00     0.240 C
HETATM   37  O3  UNL     1      45.819  52.571  37.747  1.00  0.00    -0.271 OA
HETATM   38  N6  UNL     1      43.636  52.196  38.238  1.00  0.00    -0.359 N
ATOM     39  H6  UNL     1      42.810  52.418  38.794  1.00  0.00     0.162 HD
BRANCH  38  40
HETATM   40  C22 UNL     1      43.527  51.144  37.222  1.00  0.00     0.123 C
BRANCH  40  41
HETATM   41  C23 UNL     1      43.459  49.762  37.823  1.00  0.00     0.024 C
BRANCH  41  42
HETATM   42  C24 UNL     1      42.085  49.504  38.413  1.00  0.00    -0.013 C
HETATM   43  C25 UNL     1      42.118  48.299  39.335  1.00  0.00     0.005 C
HETATM   44  C26 UNL     1      41.947  46.994  38.626  1.00  0.00     0.000 C
HETATM   45  C27 UNL     1      40.855  46.968  37.606  1.00  0.00     0.000 C
HETATM   46  C28 UNL     1      41.152  48.073  36.586  1.00  0.00     0.000 C
HETATM   47  C29 UNL     1      41.032  49.364  37.360  1.00  0.00     0.005 C
ENDBRANCH  41  42
ENDBRANCH  40  41
ENDBRANCH  38  40
ENDBRANCH  35  36
ENDBRANCH   1  31
TORSDOF 16
ENDMDL