MODEL 4
REMARK VINA RESULT: -8.782775013      4.257     12.694
REMARK  15 active torsions:
REMARK  status: ('A' for Active; 'I' for Inactive)
REMARK    1  A    between atoms: C2_2  and  N5_22
REMARK    2  A    between atoms: N1_3  and  C3_5
REMARK    3  A    between atoms: C6_10  and  N3_11
REMARK    4  A    between atoms: N3_11  and  C7_13
REMARK    5  A    between atoms: C7_13  and  C8_14
REMARK    6  A    between atoms: N5_22  and  C14_24
REMARK    7  A    between atoms: C14_24  and  C15_25
REMARK    8  A    between atoms: C15_25  and  C16_26
REMARK    9  A    between atoms: C16_26  and  C17_27
REMARK   10  A    between atoms: C17_27  and  C20_30
REMARK       I    between atoms: C20_30  and  N6_32
REMARK   11  A    between atoms: N6_32  and  C21_34
REMARK   12  A    between atoms: C21_34  and  C22_35
REMARK   13  A    between atoms: C21_34  and  C25_42
REMARK   14  A    between atoms: C22_35  and  C23_36
REMARK   15  A    between atoms: C23_36  and  N7_37
REMARK       I    between atoms: N7_37  and  C24_39
ROOT
HETATM    1  N5  UNL     1      44.296  46.552  45.600  1.00  0.00    -0.380 N
ATOM      2  H5  UNL     1      43.303  46.397  45.426  1.00  0.00     0.160 HD
ENDROOT
BRANCH   1   3
HETATM    3  C2  UNL     1      44.919  46.112  46.789  1.00  0.00     0.089 C
HETATM    4  C1  UNL     1      44.142  45.396  47.818  1.00  0.00     0.089 C
HETATM    5  N1  UNL     1      46.163  46.342  46.965  1.00  0.00    -0.181 N
ATOM      6  H1  UNL     1      46.700  46.836  46.252  1.00  0.00     0.185 HD
BRANCH   5   7
HETATM    7  C3  UNL     1      46.790  45.903  48.158  1.00  0.00     0.684 A
HETATM    8  N2  UNL     1      47.152  44.625  48.354  1.00  0.00    -0.202 N
HETATM    9  C4  UNL     1      47.757  44.239  49.509  1.00  0.00     0.110 A
ATOM     10  H2  UNL     1      46.971  43.933  47.626  1.00  0.00     0.183 HD
HETATM   11  C5  UNL     1      47.995  45.185  50.480  1.00  0.00     0.066 A
HETATM   12  C6  UNL     1      47.628  46.521  50.299  1.00  0.00     0.118 A
HETATM   13  N4  UNL     1      47.036  46.810  49.129  1.00  0.00    -0.177 N
ATOM     14  H4  UNL     1      46.755  47.776  48.963  1.00  0.00     0.186 HD
BRANCH  12  15
HETATM   15  N3  UNL     1      47.872  47.374  51.233  1.00  0.00    -0.376 N
ATOM     16  H3  UNL     1      47.702  48.362  51.040  1.00  0.00     0.161 HD
BRANCH  15  17
HETATM   17  C7  UNL     1      48.368  47.014  52.528  1.00  0.00     0.126 C
BRANCH  17  18
HETATM   18  C8  UNL     1      49.842  47.387  52.707  1.00  0.00     0.003 C
HETATM   19  C9  UNL     1      50.013  48.460  53.735  1.00  0.00     0.006 C
HETATM   20  C10 UNL     1      50.736  47.930  54.968  1.00  0.00     0.000 C
HETATM   21  C11 UNL     1      52.113  47.475  54.515  1.00  0.00     0.000 C
HETATM   22  C12 UNL     1      51.984  46.356  53.522  1.00  0.00     0.000 C
HETATM   23  C13 UNL     1      50.576  46.118  53.061  1.00  0.00     0.006 C
ENDBRANCH  17  18
ENDBRANCH  15  17
ENDBRANCH  12  15
ENDBRANCH   5   7
ENDBRANCH   1   3
BRANCH   1  24
HETATM   24  C14 UNL     1      45.161  47.248  44.616  1.00  0.00     0.121 C
BRANCH  24  25
HETATM   25  C15 UNL     1      44.451  47.334  43.306  1.00  0.00     0.021 C
BRANCH  25  26
HETATM   26  C16 UNL     1      45.262  46.959  42.145  1.00  0.00     0.020 C
BRANCH  26  27
HETATM   27  C17 UNL     1      45.842  47.959  41.238  1.00  0.00     0.034 C
HETATM   28  C18 UNL     1      46.792  48.960  41.762  1.00  0.00     0.025 C
HETATM   29  C19 UNL     1      46.512  47.216  40.066  1.00  0.00     0.025 C
BRANCH  27  30
HETATM   30  C20 UNL     1      44.675  48.709  40.621  1.00  0.00     0.226 C
HETATM   31  O1  UNL     1      44.382  49.863  41.013  1.00  0.00    -0.273 OA
HETATM   32  N6  UNL     1      43.921  48.094  39.599  1.00  0.00    -0.355 N
ATOM     33  H6  UNL     1      44.175  47.155  39.294  1.00  0.00     0.162 HD
BRANCH  32  34
HETATM   34  C21 UNL     1      42.768  48.775  38.955  1.00  0.00     0.093 C
BRANCH  34  35
HETATM   35  C22 UNL     1      43.310  49.294  37.674  1.00  0.00     0.045 C
BRANCH  35  36
HETATM   36  C23 UNL     1      43.179  50.740  37.388  1.00  0.00     0.126 C
BRANCH  36  37
HETATM   37  N7  UNL     1      43.792  51.485  38.499  1.00  0.00    -0.345 N
HETATM   38  C24 UNL     1      45.110  52.003  38.370  1.00  0.00     0.328 C
HETATM   39  N8  UNL     1      45.712  52.723  39.434  1.00  0.00    -0.040 NA
HETATM   40  O2  UNL     1      45.772  51.839  37.322  1.00  0.00    -0.251 OA
ATOM     41  H7  UNL     1      43.270  51.630  39.363  1.00  0.00     0.163 HD
ENDBRANCH  36  37
ENDBRANCH  35  36
ENDBRANCH  34  35
BRANCH  34  42
HETATM   42  C25 UNL     1      41.714  47.721  38.866  1.00  0.00    -0.031 C
HETATM   43  C26 UNL     1      41.114  47.507  37.509  1.00  0.00     0.016 C
HETATM   44  C27 UNL     1      42.211  46.369  39.344  1.00  0.00     0.016 C
HETATM   45  C28 UNL     1      40.565  48.090  39.819  1.00  0.00     0.016 C
ENDBRANCH  34  42
ENDBRANCH  32  34
ENDBRANCH  27  30
ENDBRANCH  26  27
ENDBRANCH  25  26
ENDBRANCH  24  25
ENDBRANCH   1  24
TORSDOF 15
ENDMDL