MODEL 3
REMARK VINA RESULT: -8.289360690     11.484     15.805
REMARK  16 active torsions:
REMARK  status: ('A' for Active; 'I' for Inactive)
REMARK    1  A    between atoms: C2_2  and  N1_3
REMARK    2  A    between atoms: N1_3  and  C3_6
REMARK    3  A    between atoms: C3_6  and  C4_7
REMARK    4  A    between atoms: C3_6  and  N4_32
REMARK    5  A    between atoms: C4_7  and  C5_8
REMARK    6  A    between atoms: C4_7  and  N2_15
REMARK    7  A    between atoms: C5_8  and  C6_9
REMARK       I    between atoms: N2_15  and  C12_17
REMARK    8  A    between atoms: C12_17  and  C13_19
REMARK    9  A    between atoms: C13_19  and  N3_20
REMARK   10  A    between atoms: C13_19  and  C14_24
REMARK   11  A    between atoms: C14_24  and  O2_25
REMARK   12  A    between atoms: C22_35  and  C23_36
REMARK   13  A    between atoms: C23_36  and  C24_37
REMARK   14  A    between atoms: C24_37  and  C25_38
REMARK   15  A    between atoms: C25_38  and  N5_39
REMARK   16  A    between atoms: N5_39  and  C26_41
ROOT
HETATM    1  C4  UNL     1      44.831  40.687  52.815  1.00  0.00     0.135 C
ENDROOT
BRANCH   1   2
HETATM    2  C3  UNL     1      44.936  41.876  51.865  1.00  0.00     0.308 C
BRANCH   2   3
HETATM    3  N1  UNL     1      43.651  42.444  51.593  1.00  0.00    -0.052 N
ATOM      4  H12 UNL     1      43.685  43.458  51.693  1.00  0.00     0.279 HD
ATOM      5  H11 UNL     1      42.998  42.214  52.342  1.00  0.00     0.279 HD
BRANCH   3   6
HETATM    6  C2  UNL     1      43.092  42.087  50.318  1.00  0.00     0.230 C
HETATM    7  C1  UNL     1      44.162  41.713  49.312  1.00  0.00     0.034 C
ENDBRANCH   3   6
ENDBRANCH   2   3
BRANCH   2   8
HETATM    8  N4  UNL     1      45.864  42.869  52.215  1.00  0.00    -0.364 N
HETATM    9  C20 UNL     1      47.194  42.568  52.496  1.00  0.00     0.060 C
HETATM   10  C21 UNL     1      47.800  43.708  53.298  1.00  0.00     0.049 C
HETATM   11  C22 UNL     1      46.769  44.298  54.236  1.00  0.00    -0.008 C
HETATM   12  C28 UNL     1      45.549  44.814  53.547  1.00  0.00     0.025 C
HETATM   13  C29 UNL     1      45.467  44.225  52.151  1.00  0.00     0.124 C
BRANCH  11  14
HETATM   14  C23 UNL     1      47.403  45.331  55.140  1.00  0.00     0.006 C
BRANCH  14  15
HETATM   15  C24 UNL     1      48.883  45.490  54.802  1.00  0.00     0.020 C
BRANCH  15  16
HETATM   16  C25 UNL     1      49.152  46.987  54.638  1.00  0.00     0.121 C
BRANCH  16  17
HETATM   17  N5  UNL     1      47.944  47.657  54.205  1.00  0.00    -0.380 N
ATOM     18  H5  UNL     1      47.196  47.813  54.881  1.00  0.00     0.160 HD
BRANCH  17  19
HETATM   19  C26 UNL     1      47.768  48.105  52.867  1.00  0.00     0.066 C
HETATM   20  C27 UNL     1      47.997  47.196  51.716  1.00  0.00     0.088 C
HETATM   21  N6  UNL     1      47.402  49.324  52.638  1.00  0.00    -0.389 N
ATOM     22  H62 UNL     1      47.244  49.948  53.429  1.00  0.00     0.157 HD
ATOM     23  H61 UNL     1      47.276  49.645  51.678  1.00  0.00     0.157 HD
ENDBRANCH  17  19
ENDBRANCH  16  17
ENDBRANCH  15  16
ENDBRANCH  14  15
ENDBRANCH  11  14
ENDBRANCH   2   8
ENDBRANCH   1   2
BRANCH   1  24
HETATM   24  C5  UNL     1      43.798  41.056  53.817  1.00  0.00     0.033 C
BRANCH  24  25
HETATM   25  C6  UNL     1      44.140  41.281  55.223  1.00  0.00    -0.013 C
HETATM   26  C7  UNL     1      45.665  40.965  55.436  1.00  0.00     0.005 C
HETATM   27  C8  UNL     1      46.012  41.554  56.781  1.00  0.00     0.000 C
HETATM   28  C9  UNL     1      44.828  41.616  57.693  1.00  0.00     0.000 C
HETATM   29  C10 UNL     1      43.779  42.600  57.212  1.00  0.00     0.000 C
HETATM   30  C11 UNL     1      43.965  42.700  55.685  1.00  0.00     0.005 C
ENDBRANCH  24  25
ENDBRANCH   1  24
BRANCH   1  31
HETATM   31  N2  UNL     1      44.797  39.444  52.167  1.00  0.00    -0.351 N
HETATM   32  C12 UNL     1      45.899  38.604  51.880  1.00  0.00     0.251 C
HETATM   33  O1  UNL     1      47.040  38.972  52.231  1.00  0.00    -0.271 OA
ATOM     34  H2  UNL     1      43.880  39.109  51.872  1.00  0.00     0.163 HD
BRANCH  32  35
HETATM   35  C13 UNL     1      45.713  37.319  51.179  1.00  0.00     0.308 C
BRANCH  35  36
HETATM   36  N3  UNL     1      44.315  36.926  51.347  1.00  0.00    -0.064 N
ATOM     37  H33 UNL     1      43.703  37.315  50.630  1.00  0.00     0.275 HD
ATOM     38  H32 UNL     1      44.150  35.941  51.143  1.00  0.00     0.275 HD
ATOM     39  H31 UNL     1      44.035  37.189  52.292  1.00  0.00     0.275 HD
ENDBRANCH  35  36
BRANCH  35  40
HETATM   40  C14 UNL     1      46.031  37.355  49.710  1.00  0.00     0.095 C
HETATM   41  C15 UNL     1      44.800  36.936  48.911  1.00  0.00     0.040 C
HETATM   42  C16 UNL     1      45.004  35.593  48.250  1.00  0.00     0.003 C
HETATM   43  C17 UNL     1      45.653  34.593  49.181  1.00  0.00     0.000 C
HETATM   44  C18 UNL     1      47.023  35.057  49.623  1.00  0.00     0.003 C
HETATM   45  C19 UNL     1      47.198  36.521  49.296  1.00  0.00     0.040 C
BRANCH  40  46
HETATM   46  O2  UNL     1      46.284  38.681  49.364  1.00  0.00    -0.387 OA
ATOM     47  H2  UNL     1      46.210  38.752  48.419  1.00  0.00     0.210 HD
ENDBRANCH  40  46
ENDBRANCH  35  40
ENDBRANCH  32  35
ENDBRANCH   1  31
TORSDOF 16
ENDMDL