MODEL 2
REMARK VINA RESULT: -9.295869883     10.397     15.045
REMARK  15 active torsions:
REMARK  status: ('A' for Active; 'I' for Inactive)
REMARK    1  A    between atoms: C2_2  and  C3_3
REMARK    2  A    between atoms: C2_2  and  C10_10
REMARK    3  A    between atoms: C3_3  and  C4_4
REMARK    4  A    between atoms: C12_15  and  C13_16
REMARK    5  A    between atoms: C13_16  and  C14_17
REMARK    6  A    between atoms: C14_17  and  C15_18
REMARK    7  A    between atoms: C15_18  and  C16_19
REMARK    8  A    between atoms: C16_19  and  C17_20
REMARK    9  A    between atoms: C17_20  and  C18_21
REMARK   10  A    between atoms: C18_21  and  O2_22
REMARK   11  A    between atoms: N2_24  and  O3_26
REMARK   12  A    between atoms: C20_32  and  C21_33
REMARK   13  A    between atoms: C21_33  and  C22_34
REMARK   14  A    between atoms: C22_34  and  C23_35
REMARK   15  A    between atoms: C23_35  and  N4_36
ROOT
HETATM    1  C10 UNL     1      44.394  50.475  40.083  1.00  0.00     0.158 C
HETATM    2  N1  UNL     1      43.515  49.559  40.753  1.00  0.00    -0.348 N
ATOM      3  H1  UNL     1      43.391  49.639  41.762  1.00  0.00     0.163 HD
HETATM    4  C11 UNL     1      42.800  48.527  40.036  1.00  0.00     0.241 C
HETATM    5  O1  UNL     1      41.630  48.250  40.392  1.00  0.00    -0.271 OA
HETATM    6  C12 UNL     1      43.401  47.803  38.908  1.00  0.00     0.176 C
HETATM    7  N3  UNL     1      42.536  47.682  37.752  1.00  0.00    -0.347 N
ATOM      8  H3  UNL     1      42.066  46.788  37.606  1.00  0.00     0.163 HD
HETATM    9  C19 UNL     1      42.294  48.713  36.809  1.00  0.00     0.222 C
HETATM   10  O4  UNL     1      42.397  48.384  35.574  1.00  0.00    -0.273 OA
HETATM   11  C20 UNL     1      41.940  50.110  37.126  1.00  0.00     0.078 C
HETATM   12  C25 UNL     1      43.015  51.071  36.666  1.00  0.00     0.021 C
HETATM   13  C26 UNL     1      44.113  51.288  37.640  1.00  0.00     0.081 C
HETATM   14  C27 UNL     1      43.741  51.320  39.057  1.00  0.00     0.149 C
HETATM   15  O5  UNL     1      42.853  52.073  39.418  1.00  0.00    -0.296 OA
ENDROOT
BRANCH   6  16
HETATM   16  C13 UNL     1      43.875  46.444  39.393  1.00  0.00     0.035 C
BRANCH  16  17
HETATM   17  C14 UNL     1      45.323  46.181  39.191  1.00  0.00     0.002 C
BRANCH  17  18
HETATM   18  C15 UNL     1      46.200  47.238  39.820  1.00  0.00     0.001 C
BRANCH  18  19
HETATM   19  C16 UNL     1      46.593  46.824  41.191  1.00  0.00     0.008 C
BRANCH  19  20
HETATM   20  C17 UNL     1      46.130  47.774  42.289  1.00  0.00     0.086 C
BRANCH  20  21
HETATM   21  C18 UNL     1      45.061  47.224  43.121  1.00  0.00     0.135 C
HETATM   22  N2  UNL     1      45.360  46.840  44.334  1.00  0.00    -0.251 N
ATOM     23  H2  UNL     1      44.625  46.455  44.927  1.00  0.00     0.196 HD
BRANCH  21  24
HETATM   24  O2  UNL     1      43.731  47.083  42.698  1.00  0.00    -0.348 OA
ATOM     25  H2  UNL     1      43.253  46.262  42.710  1.00  0.00     0.219 HD
ENDBRANCH  21  24
BRANCH  22  26
HETATM   26  O3  UNL     1      46.618  46.938  44.828  1.00  0.00    -0.288 OA
ATOM     27  H3  UNL     1      46.807  46.815  45.751  1.00  0.00     0.244 HD
ENDBRANCH  22  26
ENDBRANCH  20  21
ENDBRANCH  19  20
ENDBRANCH  18  19
ENDBRANCH  17  18
ENDBRANCH  16  17
ENDBRANCH   6  16
BRANCH   1  28
HETATM   28  C2  UNL     1      45.089  51.313  41.163  1.00  0.00     0.012 C
HETATM   29  C1  UNL     1      44.419  51.193  42.474  1.00  0.00     0.012 C
BRANCH  28  30
HETATM   30  C3  UNL     1      45.388  52.676  40.702  1.00  0.00     0.011 C
BRANCH  30  31
HETATM   31  C4  UNL     1      46.770  53.198  40.754  1.00  0.00    -0.014 C
HETATM   32  C5  UNL     1      47.609  52.964  41.942  1.00  0.00     0.005 C
HETATM   33  C6  UNL     1      47.227  53.843  43.125  1.00  0.00     0.000 C
HETATM   34  C7  UNL     1      47.535  55.271  42.650  1.00  0.00     0.000 C
HETATM   35  C8  UNL     1      46.542  55.562  41.546  1.00  0.00     0.000 C
HETATM   36  C9  UNL     1      46.822  54.679  40.359  1.00  0.00     0.005 C
ENDBRANCH  30  31
ENDBRANCH  28  30
ENDBRANCH   1  28
BRANCH  11  37
HETATM   37  C21 UNL     1      40.593  50.441  36.601  1.00  0.00     0.015 C
BRANCH  37  38
HETATM   38  C22 UNL     1      40.232  51.861  36.425  1.00  0.00     0.020 C
BRANCH  38  39
HETATM   39  C23 UNL     1      39.030  51.872  35.452  1.00  0.00     0.122 C
BRANCH  39  40
HETATM   40  N4  UNL     1      39.153  52.973  34.524  1.00  0.00    -0.367 N
HETATM   41  C24 UNL     1      38.134  53.451  33.904  1.00  0.00     0.196 C
HETATM   42  N5  UNL     1      36.837  52.923  34.098  1.00  0.00    -0.067 NA
HETATM   43  N6  UNL     1      38.317  54.526  33.010  1.00  0.00    -0.067 NA
ATOM     44  H4  UNL     1      40.073  53.381  34.357  1.00  0.00     0.161 HD
ENDBRANCH  39  40
ENDBRANCH  38  39
ENDBRANCH  37  38
ENDBRANCH  11  37
TORSDOF 15
ENDMDL