MODEL 4
REMARK VINA RESULT: -8.418744048      1.210      1.795
REMARK  14 active torsions:
REMARK  status: ('A' for Active; 'I' for Inactive)
REMARK    1  A    between atoms: C2_2  and  C3_3
REMARK    2  A    between atoms: C3_3  and  C5_5
REMARK    3  A    between atoms: C5_5  and  N1_6
REMARK    4  A    between atoms: C5_5  and  C16_24
REMARK       I    between atoms: N1_6  and  C6_8
REMARK    5  A    between atoms: C6_8  and  C7_10
REMARK    6  A    between atoms: C7_10  and  C8_11
REMARK    7  A    between atoms: C7_10  and  N2_15
REMARK    8  A    between atoms: C8_11  and  C9_12
REMARK       I    between atoms: N2_15  and  C12_17
REMARK       I    between atoms: C12_17  and  N3_19
REMARK    9  A    between atoms: N3_19  and  C13_21
REMARK       I    between atoms: C16_24  and  N4_26
REMARK   10  A    between atoms: N4_26  and  C17_28
REMARK   11  A    between atoms: C17_28  and  C18_29
REMARK   12  A    between atoms: C17_28  and  C19_32
REMARK   13  A    between atoms: C19_32  and  O6_33
REMARK   14  A    between atoms: C19_32  and  C20_35
ROOT
HETATM    1  C5  UNL     1      43.856  52.221  42.560  1.00  0.00     0.180 C
ENDROOT
BRANCH   1   2
HETATM    2  C3  UNL     1      44.393  53.241  43.496  1.00  0.00     0.013 C
HETATM    3  C4  UNL     1      45.884  53.059  43.737  1.00  0.00     0.012 C
BRANCH   2   4
HETATM    4  C2  UNL     1      43.706  53.282  44.829  1.00  0.00     0.002 C
HETATM    5  C1  UNL     1      42.457  54.091  44.882  1.00  0.00     0.005 C
ENDBRANCH   2   4
ENDBRANCH   1   2
BRANCH   1   6
HETATM    6  N1  UNL     1      44.638  51.006  42.552  1.00  0.00    -0.346 N
HETATM    7  C6  UNL     1      44.277  49.827  43.251  1.00  0.00     0.241 C
HETATM    8  O1  UNL     1      43.228  49.779  43.931  1.00  0.00    -0.271 OA
ATOM      9  H1  UNL     1      45.502  50.996  42.010  1.00  0.00     0.163 HD
BRANCH   7  10
HETATM   10  C7  UNL     1      45.168  48.594  43.180  1.00  0.00     0.178 C
BRANCH  10  11
HETATM   11  C8  UNL     1      46.334  48.868  42.293  1.00  0.00     0.038 C
BRANCH  11  12
HETATM   12  C9  UNL     1      46.714  47.821  41.316  1.00  0.00    -0.020 C
HETATM   13  C10 UNL     1      45.794  46.662  41.166  1.00  0.00     0.009 C
HETATM   14  C11 UNL     1      47.058  48.365  39.943  1.00  0.00     0.009 C
ENDBRANCH  11  12
ENDBRANCH  10  11
BRANCH  10  15
HETATM   15  N2  UNL     1      45.518  48.242  44.542  1.00  0.00    -0.330 N
HETATM   16  C12 UNL     1      45.224  46.976  45.109  1.00  0.00     0.317 C
HETATM   17  O2  UNL     1      44.644  46.135  44.373  1.00  0.00    -0.247 OA
HETATM   18  N3  UNL     1      45.568  46.664  46.459  1.00  0.00    -0.339 N
ATOM     19  H3  UNL     1      46.036  47.359  47.041  1.00  0.00     0.164 HD
ATOM     20  H2  UNL     1      45.997  48.935  45.117  1.00  0.00     0.165 HD
BRANCH  18  21
HETATM   21  C13 UNL     1      45.254  45.364  47.001  1.00  0.00     0.078 C
HETATM   22  C14 UNL     1      46.343  44.796  47.867  1.00  0.00     0.032 C
HETATM   23  C15 UNL     1      43.945  45.498  47.794  1.00  0.00     0.032 C
ENDBRANCH  18  21
ENDBRANCH  10  15
ENDBRANCH   7  10
ENDBRANCH   1   6
BRANCH   1  24
HETATM   24  C16 UNL     1      43.888  52.804  41.164  1.00  0.00     0.241 C
HETATM   25  O3  UNL     1      43.847  54.038  40.981  1.00  0.00    -0.271 OA
HETATM   26  N4  UNL     1      43.971  51.920  40.066  1.00  0.00    -0.343 N
ATOM     27  H4  UNL     1      43.996  50.917  40.247  1.00  0.00     0.163 HD
BRANCH  26  28
HETATM   28  C17 UNL     1      44.023  52.391  38.662  1.00  0.00     0.214 C
BRANCH  28  29
HETATM   29  C18 UNL     1      45.456  52.379  38.291  1.00  0.00     0.199 C
HETATM   30  O4  UNL     1      45.902  51.734  37.291  1.00  0.00    -0.646 OA
HETATM   31  O5  UNL     1      46.387  53.079  39.032  1.00  0.00    -0.646 OA
ENDBRANCH  28  29
BRANCH  28  32
HETATM   32  C19 UNL     1      43.161  51.452  37.878  1.00  0.00     0.155 C
BRANCH  32  33
HETATM   33  O6  UNL     1      41.914  52.058  37.734  1.00  0.00    -0.393 OA
ATOM     34  H6  UNL     1      42.004  52.736  37.074  1.00  0.00     0.210 HD
ENDBRANCH  32  33
BRANCH  32  35
HETATM   35  C20 UNL     1      42.945  50.120  38.510  1.00  0.00     0.017 C
HETATM   36  C21 UNL     1      41.494  49.707  38.240  1.00  0.00     0.008 C
HETATM   37  C22 UNL     1      41.184  48.359  38.778  1.00  0.00     0.009 C
HETATM   38  C23 UNL     1      42.306  47.620  39.412  1.00  0.00    -0.048 C
HETATM   39  C24 UNL     1      42.373  47.946  40.891  1.00  0.00     0.015 C
HETATM   40  C25 UNL     1      41.966  46.132  39.339  1.00  0.00     0.015 C
HETATM   41  C26 UNL     1      43.653  47.818  38.814  1.00  0.00     0.009 C
HETATM   42  C27 UNL     1      43.758  49.005  37.889  1.00  0.00     0.008 C
ENDBRANCH  32  35
ENDBRANCH  28  32
ENDBRANCH  26  28
ENDBRANCH   1  24
TORSDOF 14
ENDMDL