MODEL 4
REMARK VINA RESULT: -8.656280445      9.128     13.774
REMARK  14 active torsions:
REMARK  status: ('A' for Active; 'I' for Inactive)
REMARK    1  A    between atoms: C2_2  and  C3_3
REMARK    2  A    between atoms: C3_3  and  C4_4
REMARK    3  A    between atoms: C4_4  and  C5_5
REMARK    4  A    between atoms: C7_10  and  C8_11
REMARK    5  A    between atoms: C8_11  and  C9_12
REMARK    6  A    between atoms: C13_16  and  O2_17
REMARK    7  A    between atoms: C15_20  and  C16_21
REMARK    8  A    between atoms: C19_24  and  C20_25
REMARK    9  A    between atoms: C20_25  and  C21_26
REMARK   10  A    between atoms: C21_26  and  C22_27
REMARK   11  A    between atoms: C22_27  and  C23_28
REMARK   12  A    between atoms: C23_28  and  N2_29
REMARK   13  A    between atoms: N2_29  and  C24_31
REMARK   14  A    between atoms: C26_38  and  O3_39
ROOT
HETATM    1  C5  UNL     1      45.384  41.449  53.372  1.00  0.00     0.177 C
HETATM    2  N1  UNL     1      45.057  42.750  52.924  1.00  0.00    -0.344 N
ATOM      3  H1  UNL     1      44.060  42.882  52.754  1.00  0.00     0.163 HD
HETATM    4  C6  UNL     1      45.823  43.895  52.665  1.00  0.00     0.246 C
HETATM    5  O1  UNL     1      45.347  44.965  53.196  1.00  0.00    -0.268 OA
HETATM    6  C7  UNL     1      47.092  44.012  51.859  1.00  0.00     0.014 C
HETATM    7  C19 UNL     1      48.317  43.974  52.583  1.00  0.00     0.118 C
HETATM    8  N4  UNL     1      48.407  44.095  54.024  1.00  0.00    -0.361 N
ATOM      9  H4  UNL     1      49.385  44.222  54.285  1.00  0.00     0.162 HD
HETATM   10  C26 UNL     1      47.646  44.099  55.146  1.00  0.00     0.159 C
HETATM   11  C27 UNL     1      46.943  43.078  55.965  1.00  0.00     0.059 C
HETATM   12  C28 UNL     1      45.630  43.593  56.543  1.00  0.00     0.072 C
HETATM   13  N5  UNL     1      46.896  41.759  55.455  1.00  0.00    -0.325 N
ATOM     14  H5  UNL     1      47.133  41.040  56.138  1.00  0.00     0.168 HD
HETATM   15  C29 UNL     1      46.586  41.262  54.190  1.00  0.00     0.244 C
HETATM   16  O4  UNL     1      47.508  40.520  53.670  1.00  0.00    -0.271 OA
ENDROOT
BRANCH   6  17
HETATM   17  C8  UNL     1      46.847  43.269  50.558  1.00  0.00     0.082 C
BRANCH  17  18
HETATM   18  C9  UNL     1      46.134  43.883  49.465  1.00  0.00    -0.037 A
HETATM   19  C10 UNL     1      46.670  44.983  48.814  1.00  0.00    -0.052 A
HETATM   20  C11 UNL     1      48.106  45.430  48.953  1.00  0.00     0.049 C
HETATM   21  C12 UNL     1      45.900  45.684  47.887  1.00  0.00     0.043 A
HETATM   22  C13 UNL     1      44.621  45.283  47.619  1.00  0.00     0.067 A
HETATM   23  C14 UNL     1      44.122  44.201  48.261  1.00  0.00     0.048 A
HETATM   24  C15 UNL     1      44.845  43.431  49.219  1.00  0.00    -0.025 A
BRANCH  22  25
HETATM   25  O2  UNL     1      43.897  46.024  46.681  1.00  0.00    -0.361 OA
ATOM     26  H2  UNL     1      43.088  45.649  46.356  1.00  0.00     0.217 HD
ENDBRANCH  22  25
BRANCH  24  27
HETATM   27  C16 UNL     1      44.176  42.211  49.637  1.00  0.00    -0.077 C
HETATM   28  C17 UNL     1      44.623  40.951  48.907  1.00  0.00     0.044 C
HETATM   29  C18 UNL     1      42.909  42.096  50.341  1.00  0.00     0.044 C
ENDBRANCH  24  27
ENDBRANCH  17  18
ENDBRANCH   6  17
BRANCH   7  30
HETATM   30  C20 UNL     1      49.372  44.961  52.024  1.00  0.00     0.030 C
BRANCH  30  31
HETATM   31  C21 UNL     1      50.248  45.566  53.081  1.00  0.00     0.004 C
BRANCH  31  32
HETATM   32  C22 UNL     1      50.664  46.980  52.676  1.00  0.00     0.020 C
BRANCH  32  33
HETATM   33  C23 UNL     1      50.404  47.934  53.815  1.00  0.00     0.121 C
BRANCH  33  34
HETATM   34  N2  UNL     1      49.028  47.829  54.238  1.00  0.00    -0.380 N
ATOM     35  H2  UNL     1      48.854  47.579  55.212  1.00  0.00     0.160 HD
BRANCH  34  36
HETATM   36  C24 UNL     1      47.908  48.044  53.414  1.00  0.00     0.066 C
HETATM   37  C25 UNL     1      47.845  49.086  52.365  1.00  0.00     0.088 C
HETATM   38  N3  UNL     1      46.846  47.300  53.556  1.00  0.00    -0.389 N
ATOM     39  H32 UNL     1      46.889  46.581  54.279  1.00  0.00     0.157 HD
ATOM     40  H31 UNL     1      46.034  47.456  52.958  1.00  0.00     0.157 HD
ENDBRANCH  34  36
ENDBRANCH  33  34
ENDBRANCH  32  33
ENDBRANCH  31  32
ENDBRANCH  30  31
ENDBRANCH   7  30
BRANCH   1  41
HETATM   41  C4  UNL     1      44.170  40.758  54.031  1.00  0.00     0.035 C
BRANCH  41  42
HETATM   42  C3  UNL     1      43.911  39.385  53.509  1.00  0.00     0.002 C
BRANCH  42  43
HETATM   43  C2  UNL     1      44.528  39.190  52.139  1.00  0.00    -0.004 C
HETATM   44  C1  UNL     1      43.555  38.360  51.291  1.00  0.00     0.005 C
ENDBRANCH  42  43
ENDBRANCH  41  42
ENDBRANCH   1  41
BRANCH  10  45
HETATM   45  O3  UNL     1      47.450  45.264  55.699  1.00  0.00    -0.345 OA
ATOM     46  H3  UNL     1      47.587  45.308  56.638  1.00  0.00     0.219 HD
ENDBRANCH  10  45
TORSDOF 14
ENDMDL