MODEL 3
REMARK VINA RESULT: -9.629501936     11.807     15.472
REMARK  13 active torsions:
REMARK  status: ('A' for Active; 'I' for Inactive)
REMARK    1  A    between atoms: C10_10  and  C11_11
REMARK    2  A    between atoms: C11_11  and  N1_12
REMARK    3  A    between atoms: C11_11  and  C18_31
REMARK       I    between atoms: N1_12  and  C12_14
REMARK    4  A    between atoms: C12_14  and  C13_16
REMARK    5  A    between atoms: C13_16  and  N2_17
REMARK    6  A    between atoms: C13_16  and  C14_21
REMARK    7  A    between atoms: C14_21  and  C15_22
REMARK    8  A    between atoms: C15_22  and  C16_23
REMARK    9  A    between atoms: C16_23  and  N3_24
REMARK       I    between atoms: N3_24  and  C17_26
REMARK       I    between atoms: C18_31  and  N6_33
REMARK   10  A    between atoms: N6_33  and  C19_35
REMARK   11  A    between atoms: C19_35  and  C20_36
REMARK   12  A    between atoms: C19_35  and  C21_38
REMARK   13  A    between atoms: C21_38  and  C22_39
ROOT
HETATM    1  C11 UNL     1      44.429  41.223  50.855  1.00  0.00     0.185 C
ENDROOT
BRANCH   1   2
HETATM    2  C10 UNL     1      44.648  41.256  52.329  1.00  0.00    -0.009 C
HETATM    3  C9  UNL     1      44.608  42.641  52.917  1.00  0.00     0.021 C
HETATM    4  C6  UNL     1      45.067  42.579  54.361  1.00  0.00    -0.042 C
HETATM    5  C5  UNL     1      46.397  41.935  54.542  1.00  0.00     0.014 C
HETATM    6  C7  UNL     1      45.082  44.011  54.884  1.00  0.00     0.015 C
HETATM    7  C8  UNL     1      43.982  41.831  55.108  1.00  0.00     0.018 C
HETATM    8  C4  UNL     1      46.329  40.523  54.057  1.00  0.00    -0.012 C
HETATM    9  C3  UNL     1      45.262  39.743  54.793  1.00  0.00     0.014 C
HETATM   10  C28 UNL     1      45.978  40.549  52.587  1.00  0.00     0.016 C
HETATM   11  C2  UNL     1      43.952  40.433  54.564  1.00  0.00    -0.042 C
HETATM   12  C1  UNL     1      42.848  39.685  55.277  1.00  0.00     0.015 C
HETATM   13  C29 UNL     1      43.615  40.451  53.081  1.00  0.00     0.021 C
ENDBRANCH   1   2
BRANCH   1  14
HETATM   14  N1  UNL     1      45.653  41.748  50.231  1.00  0.00    -0.345 N
HETATM   15  C12 UNL     1      45.634  42.457  49.022  1.00  0.00     0.249 C
HETATM   16  O1  UNL     1      44.594  42.698  48.387  1.00  0.00    -0.271 OA
ATOM     17  H1  UNL     1      46.548  41.590  50.694  1.00  0.00     0.163 HD
BRANCH  15  18
HETATM   18  C13 UNL     1      46.930  42.959  48.451  1.00  0.00     0.274 C
BRANCH  18  19
HETATM   19  N2  UNL     1      46.891  42.837  47.001  1.00  0.00    -0.067 N
ATOM     20  H23 UNL     1      47.225  41.929  46.679  1.00  0.00     0.275 HD
ATOM     21  H22 UNL     1      45.937  42.775  46.643  1.00  0.00     0.275 HD
ATOM     22  H21 UNL     1      47.411  43.611  46.587  1.00  0.00     0.275 HD
ENDBRANCH  18  19
BRANCH  18  23
HETATM   23  C14 UNL     1      47.133  44.395  48.816  1.00  0.00     0.044 C
BRANCH  23  24
HETATM   24  C15 UNL     1      47.810  45.263  47.834  1.00  0.00     0.022 C
BRANCH  24  25
HETATM   25  C16 UNL     1      47.035  46.376  47.233  1.00  0.00     0.122 C
BRANCH  25  26
HETATM   26  N3  UNL     1      45.686  46.414  47.838  1.00  0.00    -0.365 N
HETATM   27  C17 UNL     1      44.619  45.847  47.106  1.00  0.00     0.181 C
HETATM   28  N4  UNL     1      43.552  45.495  47.723  1.00  0.00    -0.374 N
HETATM   29  N5  UNL     1      44.716  45.665  45.714  1.00  0.00    -0.064 NA
ATOM     30  H42 UNL     1      43.482  45.627  48.732  1.00  0.00     0.158 HD
ATOM     31  H41 UNL     1      42.782  45.087  47.194  1.00  0.00     0.158 HD
ATOM     32  H3  UNL     1      45.531  46.835  48.754  1.00  0.00     0.162 HD
ENDBRANCH  25  26
ENDBRANCH  24  25
ENDBRANCH  23  24
ENDBRANCH  18  23
ENDBRANCH  15  18
ENDBRANCH   1  14
BRANCH   1  33
HETATM   33  C18 UNL     1      44.135  39.932  50.251  1.00  0.00     0.241 C
HETATM   34  O2  UNL     1      42.932  39.672  49.890  1.00  0.00    -0.271 OA
HETATM   35  N6  UNL     1      45.048  38.881  50.007  1.00  0.00    -0.348 N
ATOM     36  H6  UNL     1      46.021  39.021  50.276  1.00  0.00     0.163 HD
BRANCH  35  37
HETATM   37  C19 UNL     1      44.682  37.607  49.394  1.00  0.00     0.146 C
BRANCH  37  38
HETATM   38  C20 UNL     1      45.650  37.227  48.332  1.00  0.00     0.256 C
HETATM   39  O3  UNL     1      45.797  37.990  47.399  1.00  0.00    -0.305 OA
ENDBRANCH  37  38
BRANCH  37  40
HETATM   40  C21 UNL     1      44.657  36.501  50.412  1.00  0.00     0.037 C
BRANCH  40  41
HETATM   41  C22 UNL     1      45.403  36.865  51.649  1.00  0.00    -0.012 C
HETATM   42  C23 UNL     1      44.495  36.661  52.864  1.00  0.00     0.005 C
HETATM   43  C24 UNL     1      45.223  36.063  54.028  1.00  0.00     0.000 C
HETATM   44  C25 UNL     1      46.574  36.653  54.281  1.00  0.00     0.000 C
HETATM   45  C26 UNL     1      47.393  36.826  53.043  1.00  0.00     0.000 C
HETATM   46  C27 UNL     1      46.665  36.111  51.894  1.00  0.00     0.005 C
ENDBRANCH  40  41
ENDBRANCH  37  40
ENDBRANCH  35  37
ENDBRANCH   1  33
TORSDOF 13
ENDMDL