MODEL 4
REMARK VINA RESULT: -9.055535334      2.896      7.922
REMARK  11 active torsions:
REMARK  status: ('A' for Active; 'I' for Inactive)
REMARK    1  A    between atoms: C2_2  and  C4_4
REMARK    2  A    between atoms: C4_4  and  N1_5
REMARK    3  A    between atoms: C4_4  and  C13_18
REMARK       I    between atoms: N1_5  and  C5_7
REMARK       I    between atoms: C5_7  and  N2_9
REMARK    4  A    between atoms: N2_9  and  C6_11
REMARK       I    between atoms: C13_18  and  N3_20
REMARK    5  A    between atoms: N3_20  and  C14_22
REMARK    6  A    between atoms: C14_22  and  C22_30
REMARK    7  A    between atoms: C15_23  and  C16_24
REMARK    8  A    between atoms: C22_30  and  C23_31
REMARK    9  A    between atoms: C22_30  and  N5_36
REMARK   10  A    between atoms: C24_32  and  C25_33
REMARK       I    between atoms: N5_36  and  C26_38
REMARK   11  A    between atoms: C26_38  and  C27_40
ROOT
HETATM    1  C13 UNL     1      45.493  43.890  53.522  1.00  0.00     0.245 C
HETATM    2  O2  UNL     1      44.927  45.003  53.763  1.00  0.00    -0.271 OA
HETATM    3  N3  UNL     1      46.365  43.811  52.435  1.00  0.00    -0.327 N
ATOM      4  H3  UNL     1      46.824  42.914  52.269  1.00  0.00     0.168 HD
ENDROOT
BRANCH   3   5
HETATM    5  C14 UNL     1      46.679  44.901  51.512  1.00  0.00     0.035 C
HETATM    6  C15 UNL     1      47.548  45.878  52.089  1.00  0.00     0.005 C
BRANCH   6   7
HETATM    7  C16 UNL     1      48.883  45.615  52.675  1.00  0.00     0.010 C
HETATM    8  C17 UNL     1      48.767  45.575  54.209  1.00  0.00     0.008 C
HETATM    9  C18 UNL     1      49.181  46.808  54.903  1.00  0.00     0.001 C
HETATM   10  C19 UNL     1      50.584  47.230  54.450  1.00  0.00     0.000 C
HETATM   11  C20 UNL     1      50.448  47.602  53.014  1.00  0.00     0.001 C
HETATM   12  C21 UNL     1      49.998  46.432  52.209  1.00  0.00     0.008 C
ENDBRANCH   6   7
BRANCH   5  13
HETATM   13  C22 UNL     1      46.730  44.362  50.126  1.00  0.00     0.158 C
BRANCH  13  14
HETATM   14  C23 UNL     1      46.197  42.957  50.229  1.00  0.00     0.009 C
HETATM   15  C24 UNL     1      45.026  42.447  49.576  1.00  0.00     0.069 C
BRANCH  15  16
HETATM   16  C25 UNL     1      43.666  42.853  49.899  1.00  0.00     0.254 C
HETATM   17  N4  UNL     1      43.254  44.221  49.639  1.00  0.00    -0.058 NA
HETATM   18  O3  UNL     1      42.803  42.115  50.389  1.00  0.00    -0.272 OA
ENDBRANCH  15  16
ENDBRANCH  13  14
BRANCH  13  19
HETATM   19  N5  UNL     1      46.267  45.189  49.106  1.00  0.00    -0.339 N
HETATM   20  C26 UNL     1      46.712  45.330  47.764  1.00  0.00     0.319 C
HETATM   21  O4  UNL     1      47.678  44.617  47.392  1.00  0.00    -0.261 OA
ATOM     22  H5  UNL     1      45.483  45.789  49.363  1.00  0.00     0.164 HD
BRANCH  20  23
HETATM   23  C27 UNL     1      46.132  46.232  46.785  1.00  0.00     0.270 C
HETATM   24  O5  UNL     1      46.928  46.808  46.019  1.00  0.00    -0.640 OA
HETATM   25  O6  UNL     1      44.798  46.432  46.717  1.00  0.00    -0.640 OA
ENDBRANCH  20  23
ENDBRANCH  13  19
ENDBRANCH   5  13
ENDBRANCH   3   5
BRANCH   1  26
HETATM   26  C4  UNL     1      45.180  42.762  54.403  1.00  0.00     0.182 C
BRANCH  26  27
HETATM   27  C2  UNL     1      44.711  43.129  55.792  1.00  0.00     0.009 C
HETATM   28  C1  UNL     1      43.918  41.970  56.408  1.00  0.00     0.012 C
HETATM   29  C3  UNL     1      45.803  43.432  56.763  1.00  0.00     0.012 C
ENDBRANCH  26  27
BRANCH  26  30
HETATM   30  N1  UNL     1      44.103  41.945  53.773  1.00  0.00    -0.330 N
HETATM   31  C5  UNL     1      44.423  40.721  53.086  1.00  0.00     0.317 C
HETATM   32  O1  UNL     1      45.627  40.395  53.071  1.00  0.00    -0.247 OA
HETATM   33  N2  UNL     1      43.429  39.978  52.486  1.00  0.00    -0.338 N
ATOM     34  H2  UNL     1      42.482  40.345  52.584  1.00  0.00     0.164 HD
ATOM     35  H1  UNL     1      43.133  42.256  53.829  1.00  0.00     0.165 HD
BRANCH  33  36
HETATM   36  C6  UNL     1      43.553  38.727  51.725  1.00  0.00     0.087 C
HETATM   37  C7  UNL     1      44.438  39.053  50.623  1.00  0.00     0.026 C
HETATM   38  C8  UNL     1      44.829  38.131  49.507  1.00  0.00     0.013 C
HETATM   39  C9  UNL     1      45.839  37.028  50.004  1.00  0.00     0.080 C
HETATM   40  C10 UNL     1      45.452  36.831  51.350  1.00  0.00    -0.183 C
HETATM   41  C11 UNL     1      44.988  36.776  52.660  1.00  0.00     0.082 C
HETATM   42  C12 UNL     1      43.769  37.706  52.781  1.00  0.00     0.036 C
ENDBRANCH  33  36
ENDBRANCH  26  30
ENDBRANCH   1  26
TORSDOF 11
ENDMDL