MODEL 5
REMARK VINA RESULT: -9.732364041      3.491     11.543
REMARK  16 active torsions:
REMARK  status: ('A' for Active; 'I' for Inactive)
REMARK    1  A    between atoms: C2_2  and  N1_3
REMARK    2  A    between atoms: C4_10  and  N4_11
REMARK    3  A    between atoms: N4_11  and  C5_13
REMARK    4  A    between atoms: C8_16  and  C9_17
REMARK    5  A    between atoms: C9_17  and  N5_18
REMARK    6  A    between atoms: N5_18  and  C10_20
REMARK    7  A    between atoms: C10_20  and  O1_21
REMARK    8  A    between atoms: C10_20  and  C11_23
REMARK    9  A    between atoms: C11_23  and  C12_24
REMARK   10  A    between atoms: C11_23  and  N6_28
REMARK   11  A    between atoms: C12_24  and  C13_25
REMARK       I    between atoms: N6_28  and  C16_30
REMARK   12  A    between atoms: C16_30  and  C17_32
REMARK   13  A    between atoms: C17_32  and  N7_33
REMARK   14  A    between atoms: C17_32  and  C18_37
REMARK   15  A    between atoms: C18_37  and  C19_38
REMARK   16  A    between atoms: C19_38  and  C20_39
ROOT
HETATM    1  C10 UNL     1      44.632  46.652  44.652  1.00  0.00     0.134 C
ENDROOT
BRANCH   1   2
HETATM    2  N5  UNL     1      44.582  46.910  46.028  1.00  0.00    -0.372 N
ATOM      3  H5  UNL     1      44.628  47.894  46.291  1.00  0.00     0.161 HD
BRANCH   2   4
HETATM    4  C9  UNL     1      44.477  45.992  47.115  1.00  0.00     0.126 C
BRANCH   4   5
HETATM    5  C8  UNL     1      45.600  45.802  48.025  1.00  0.00     0.003 C
HETATM    6  C7  UNL     1      46.906  46.360  47.451  1.00  0.00     0.008 C
HETATM    7  C6  UNL     1      48.065  45.667  48.138  1.00  0.00     0.026 C
HETATM    8  C5  UNL     1      47.798  45.757  49.656  1.00  0.00     0.099 C
HETATM    9  C28 UNL     1      46.670  44.784  49.971  1.00  0.00     0.026 C
HETATM   10  C27 UNL     1      45.822  44.507  48.703  1.00  0.00     0.008 C
BRANCH   8  11
HETATM   11  N4  UNL     1      47.478  47.087  50.023  1.00  0.00    -0.220 N
ATOM     12  H4  UNL     1      47.136  47.655  49.248  1.00  0.00     0.178 HD
BRANCH  11  13
HETATM   13  C4  UNL     1      47.533  47.706  51.121  1.00  0.00     0.708 A
HETATM   14  N3  UNL     1      47.265  48.971  51.472  1.00  0.00    -0.117 N
HETATM   15  N2  UNL     1      47.503  49.140  52.779  1.00  0.00    -0.117 N
ATOM     16  H3  UNL     1      46.930  49.697  50.838  1.00  0.00     0.206 HD
HETATM   17  C3  UNL     1      47.926  47.966  53.252  1.00  0.00     0.707 A
ATOM     18  H2  UNL     1      47.384  50.002  53.311  1.00  0.00     0.206 HD
HETATM   19  N1  UNL     1      48.256  47.742  54.488  1.00  0.00    -0.225 N
HETATM   20  N8  UNL     1      47.956  47.071  52.273  1.00  0.00    -0.020 N
ATOM     21  H1  UNL     1      48.203  48.489  55.180  1.00  0.00     0.177 HD
ATOM     22  H8  UNL     1      48.240  46.094  52.355  1.00  0.00     0.203 HD
BRANCH  19  23
HETATM   23  C2  UNL     1      48.704  46.409  54.871  1.00  0.00     0.134 C
HETATM   24  C1  UNL     1      50.018  46.555  55.594  1.00  0.00     0.027 C
ENDBRANCH  19  23
ENDBRANCH  11  13
ENDBRANCH   8  11
ENDBRANCH   4   5
ENDBRANCH   2   4
ENDBRANCH   1   2
BRANCH   1  25
HETATM   25  O1  UNL     1      44.628  45.388  44.339  1.00  0.00    -0.348 OA
ATOM     26  H1  UNL     1      45.155  45.168  43.580  1.00  0.00     0.219 HD
ENDBRANCH   1  25
BRANCH   1  27
HETATM   27  C11 UNL     1      44.689  47.562  43.552  1.00  0.00     0.159 C
BRANCH  27  28
HETATM   28  C12 UNL     1      44.149  48.971  43.797  1.00  0.00     0.037 C
BRANCH  28  29
HETATM   29  C13 UNL     1      44.884  50.114  43.261  1.00  0.00    -0.020 C
HETATM   30  C14 UNL     1      44.239  50.523  41.940  1.00  0.00     0.009 C
HETATM   31  C15 UNL     1      44.567  51.310  44.205  1.00  0.00     0.009 C
ENDBRANCH  28  29
ENDBRANCH  27  28
BRANCH  27  32
HETATM   32  N6  UNL     1      43.935  47.160  42.345  1.00  0.00    -0.347 N
HETATM   33  C16 UNL     1      44.629  46.915  41.138  1.00  0.00     0.248 C
HETATM   34  O2  UNL     1      45.896  47.055  41.153  1.00  0.00    -0.271 OA
ATOM     35  H6  UNL     1      42.921  47.061  42.383  1.00  0.00     0.163 HD
BRANCH  33  36
HETATM   36  C17 UNL     1      43.986  46.516  39.845  1.00  0.00     0.274 C
BRANCH  36  37
HETATM   37  N7  UNL     1      43.653  45.103  40.020  1.00  0.00    -0.067 N
ATOM     38  H73 UNL     1      43.897  44.728  40.936  1.00  0.00     0.275 HD
ATOM     39  H72 UNL     1      42.652  44.915  40.081  1.00  0.00     0.275 HD
ATOM     40  H71 UNL     1      44.116  44.631  39.242  1.00  0.00     0.275 HD
ENDBRANCH  36  37
BRANCH  36  41
HETATM   41  C18 UNL     1      44.842  46.836  38.697  1.00  0.00     0.043 C
BRANCH  41  42
HETATM   42  C19 UNL     1      44.747  48.110  37.977  1.00  0.00     0.007 C
BRANCH  42  43
HETATM   43  C20 UNL     1      43.480  48.860  37.904  1.00  0.00    -0.014 C
HETATM   44  C21 UNL     1      42.522  48.352  36.905  1.00  0.00     0.005 C
HETATM   45  C22 UNL     1      41.763  49.481  36.166  1.00  0.00     0.004 C
HETATM   46  C23 UNL     1      41.255  50.427  37.218  1.00  0.00    -0.019 C
HETATM   47  C24 UNL     1      40.281  51.435  36.623  1.00  0.00     0.010 C
HETATM   48  C25 UNL     1      42.464  51.125  37.799  1.00  0.00     0.004 C
HETATM   49  C26 UNL     1      43.742  50.354  37.674  1.00  0.00     0.005 C
ENDBRANCH  42  43
ENDBRANCH  41  42
ENDBRANCH  36  41
ENDBRANCH  33  36
ENDBRANCH  27  32
ENDBRANCH   1  27
TORSDOF 16
ENDMDL