MODEL 2
REMARK VINA RESULT: -9.371037754      8.031     15.011
REMARK  13 active torsions:
REMARK  status: ('A' for Active; 'I' for Inactive)
REMARK    1  A    between atoms: C2_2  and  C5_5
REMARK    2  A    between atoms: C5_5  and  C6_6
REMARK    3  A    between atoms: C5_5  and  N4_32
REMARK    4  A    between atoms: C6_6  and  N1_7
REMARK       I    between atoms: N1_7  and  C7_9
REMARK    5  A    between atoms: C7_9  and  C8_11
REMARK    6  A    between atoms: C8_11  and  C9_12
REMARK    7  A    between atoms: C8_11  and  N2_19
REMARK    8  A    between atoms: C9_12  and  C10_13
REMARK       I    between atoms: N2_19  and  C16_21
REMARK    9  A    between atoms: C16_21  and  C17_23
REMARK   10  A    between atoms: C17_23  and  N3_24
REMARK   11  A    between atoms: C17_23  and  C18_28
REMARK   12  A    between atoms: C18_28  and  C19_29
REMARK       I    between atoms: N4_32  and  C20_34
REMARK       I    between atoms: C20_34  and  N5_36
REMARK   13  A    between atoms: C21_38  and  C22_40
ROOT
HETATM    1  N1  UNL     1      44.084  40.915  49.861  1.00  0.00    -0.357 N
ATOM      2  H1  UNL     1      43.212  41.296  50.227  1.00  0.00     0.162 HD
HETATM    3  C7  UNL     1      45.255  41.653  50.052  1.00  0.00     0.240 C
HETATM    4  O1  UNL     1      46.334  41.190  49.607  1.00  0.00    -0.271 OA
ENDROOT
BRANCH   3   5
HETATM    5  C8  UNL     1      45.342  42.980  50.758  1.00  0.00     0.177 C
BRANCH   5   6
HETATM    6  C9  UNL     1      46.383  42.919  51.786  1.00  0.00     0.039 C
BRANCH   6   7
HETATM    7  C10 UNL     1      46.070  43.162  53.213  1.00  0.00    -0.012 C
HETATM    8  C11 UNL     1      47.494  43.187  53.898  1.00  0.00     0.005 C
HETATM    9  C12 UNL     1      47.315  43.807  55.245  1.00  0.00     0.000 C
HETATM   10  C13 UNL     1      47.268  45.315  55.033  1.00  0.00     0.000 C
HETATM   11  C14 UNL     1      46.446  45.567  53.785  1.00  0.00     0.000 C
HETATM   12  C15 UNL     1      45.419  44.446  53.595  1.00  0.00     0.005 C
ENDBRANCH   6   7
ENDBRANCH   5   6
BRANCH   5  13
HETATM   13  N2  UNL     1      45.620  43.917  49.693  1.00  0.00    -0.346 N
HETATM   14  C16 UNL     1      44.621  44.678  49.031  1.00  0.00     0.249 C
HETATM   15  O2  UNL     1      43.396  44.556  49.371  1.00  0.00    -0.271 OA
ATOM     16  H2  UNL     1      46.589  44.037  49.399  1.00  0.00     0.163 HD
BRANCH  14  17
HETATM   17  C17 UNL     1      45.024  45.608  47.951  1.00  0.00     0.284 C
BRANCH  17  18
HETATM   18  N3  UNL     1      45.193  44.872  46.718  1.00  0.00    -0.066 N
ATOM     19  H33 UNL     1      45.924  45.271  46.129  1.00  0.00     0.275 HD
ATOM     20  H32 UNL     1      45.613  43.955  46.872  1.00  0.00     0.275 HD
ATOM     21  H31 UNL     1      44.299  44.810  46.232  1.00  0.00     0.275 HD
ENDBRANCH  17  18
BRANCH  17  22
HETATM   22  C18 UNL     1      46.280  46.376  48.269  1.00  0.00     0.155 C
BRANCH  22  23
HETATM   23  C19 UNL     1      47.225  46.227  47.140  1.00  0.00     0.175 C
HETATM   24  O3  UNL     1      48.219  45.481  47.333  1.00  0.00    -0.648 OA
HETATM   25  O4  UNL     1      46.991  46.888  45.962  1.00  0.00    -0.648 OA
ENDBRANCH  22  23
ENDBRANCH  17  22
ENDBRANCH  14  17
ENDBRANCH   5  13
ENDBRANCH   3   5
BRANCH   1  26
HETATM   26  C6  UNL     1      44.037  39.667  49.189  1.00  0.00     0.148 C
BRANCH  26  27
HETATM   27  C5  UNL     1      44.162  38.401  49.947  1.00  0.00     0.111 C
BRANCH  27  28
HETATM   28  C2  UNL     1      45.230  37.484  49.556  1.00  0.00    -0.029 C
HETATM   29  C1  UNL     1      44.838  36.008  49.747  1.00  0.00     0.016 C
HETATM   30  C3  UNL     1      45.599  37.568  48.081  1.00  0.00     0.016 C
HETATM   31  C4  UNL     1      46.504  37.743  50.309  1.00  0.00     0.016 C
ENDBRANCH  27  28
BRANCH  27  32
HETATM   32  N4  UNL     1      44.203  38.820  51.344  1.00  0.00    -0.336 N
HETATM   33  C20 UNL     1      43.489  38.281  52.392  1.00  0.00     0.321 C
HETATM   34  O5  UNL     1      42.700  37.322  52.180  1.00  0.00    -0.247 OA
HETATM   35  N5  UNL     1      43.603  38.761  53.701  1.00  0.00    -0.300 N
HETATM   36  C21 UNL     1      43.700  39.938  54.132  1.00  0.00     0.101 C
ATOM     37  H5  UNL     1      43.609  38.039  54.422  1.00  0.00     0.171 HD
HETATM   38  N6  UNL     1      43.702  41.034  53.235  1.00  0.00    -0.087 NA
ATOM     39  H4  UNL     1      44.827  39.594  51.569  1.00  0.00     0.164 HD
BRANCH  36  40
HETATM   40  C22 UNL     1      43.833  40.264  55.602  1.00  0.00     0.051 C
HETATM   41  C23 UNL     1      45.270  40.180  55.970  1.00  0.00     0.012 C
HETATM   42  C24 UNL     1      45.684  40.934  57.185  1.00  0.00     0.001 C
HETATM   43  C25 UNL     1      44.629  41.883  57.704  1.00  0.00     0.000 C
HETATM   44  C26 UNL     1      44.073  42.599  56.489  1.00  0.00     0.001 C
HETATM   45  C27 UNL     1      43.183  41.585  55.807  1.00  0.00     0.012 C
ENDBRANCH  36  40
ENDBRANCH  27  32
ENDBRANCH  26  27
ENDBRANCH   1  26
TORSDOF 13
ENDMDL