MODEL 5
REMARK VINA RESULT: -5.605840064      4.597      7.865
REMARK  3 active torsions:
REMARK  status: ('A' for Active; 'I' for Inactive)
REMARK    1  A    between atoms: N1_3  and  C3_5
REMARK    2  A    between atoms: C7_10  and  C8_11
REMARK    3  A    between atoms: C8_11  and  N2_12
ROOT
HETATM    1  C1  UNL     1      -2.936  -3.693  11.231  1.00  0.00     0.037 C
HETATM    2  C2  UNL     1      -3.307  -2.567  11.384  1.00  0.00    -0.003 C
HETATM    3  N1  UNL     1      -3.761  -1.253  11.556  1.00  0.00    -0.324 N
ATOM      4  H1  UNL     1      -4.454  -1.070  12.281  1.00  0.00     0.172 HD
ENDROOT
BRANCH   3   5
HETATM    5  C3  UNL     1      -3.302  -0.164  10.766  1.00  0.00     0.232 C
HETATM    6  C4  UNL     1      -2.583   0.950  11.487  1.00  0.00     0.097 C
HETATM    7  C5  UNL     1      -3.878   1.602  11.305  1.00  0.00     0.116 C
HETATM    8  C6  UNL     1      -4.708   1.993  12.449  1.00  0.00     0.209 C
HETATM    9  C7  UNL     1      -4.002   2.986  10.863  1.00  0.00     0.176 C
HETATM   10  O2  UNL     1      -4.358   0.675  10.418  1.00  0.00    -0.350 OA
HETATM   11  O1  UNL     1      -5.023   3.185  11.794  1.00  0.00    -0.378 OA
BRANCH   9  12
HETATM   12  C8  UNL     1      -2.888   3.948  11.133  1.00  0.00     0.165 C
BRANCH  12  13
HETATM   13  N2  UNL     1      -2.274   4.287   9.872  1.00  0.00    -0.335 N
HETATM   14  C9  UNL     1      -2.844   5.005   8.895  1.00  0.00     0.200 A
HETATM   15  N3  UNL     1      -1.986   5.127   7.865  1.00  0.00    -0.295 N
HETATM   16  N4  UNL     1      -0.892   4.482   8.216  1.00  0.00    -0.295 N
ATOM     17  H3  UNL     1      -2.150   5.620   6.987  1.00  0.00     0.187 HD
HETATM   18  C10 UNL     1      -1.050   3.962   9.439  1.00  0.00     0.200 A
ATOM     19  H4  UNL     1      -0.052   4.392   7.643  1.00  0.00     0.187 HD
ENDBRANCH  12  13
ENDBRANCH   9  12
ENDBRANCH   3   5
TORSDOF 3
ENDMDL