MODEL 5
REMARK VINA RESULT: -5.895845414      2.791      5.661
REMARK  5 active torsions:
REMARK  status: ('A' for Active; 'I' for Inactive)
REMARK    1  A    between atoms: C1_2  and  O2_3
REMARK    2  A    between atoms: O2_3  and  C2_4
REMARK    3  A    between atoms: C2_4  and  C3_6
REMARK       I    between atoms: N1_10  and  C7_11
REMARK    4  A    between atoms: C7_11  and  C8_13
REMARK    5  A    between atoms: N2_14  and  O5_16
ROOT
HETATM    1  C3  UNL     1      -4.008   1.042  11.664  1.00  0.00     0.187 C
HETATM    2  C4  UNL     1      -4.120  -0.445  11.529  1.00  0.00     0.037 C
HETATM    3  C5  UNL     1      -3.129  -0.747  10.433  1.00  0.00     0.022 C
HETATM    4  C6  UNL     1      -1.991   0.194  10.852  1.00  0.00     0.127 C
HETATM    5  N1  UNL     1      -2.684   1.383  11.321  1.00  0.00    -0.333 N
HETATM    6  C7  UNL     1      -2.020   2.654  11.362  1.00  0.00     0.261 C
HETATM    7  O4  UNL     1      -2.595   3.712  11.733  1.00  0.00    -0.267 OA
ENDROOT
BRANCH   1   8
HETATM    8  C2  UNL     1      -4.407   1.456  13.042  1.00  0.00     0.289 C
HETATM    9  O3  UNL     1      -5.033   2.521  13.183  1.00  0.00    -0.262 OA
BRANCH   8  10
HETATM   10  O2  UNL     1      -4.110   0.704  14.158  1.00  0.00    -0.251 OA
BRANCH  10  11
HETATM   11  C1  UNL     1      -4.492   1.052  15.449  1.00  0.00     0.406 C
HETATM   12  O1  UNL     1      -3.734   0.760  16.414  1.00  0.00    -0.276 OA
ENDBRANCH  10  11
ENDBRANCH   8  10
ENDBRANCH   1   8
BRANCH   6  13
HETATM   13  C8  UNL     1      -0.622   2.794  10.972  1.00  0.00     0.188 C
HETATM   14  N2  UNL     1      -0.246   3.305   9.853  1.00  0.00    -0.275 N
ATOM     15  H2  UNL     1       0.745   3.379   9.627  1.00  0.00     0.193 HD
BRANCH  14  16
HETATM   16  O5  UNL     1      -1.205   3.753   8.958  1.00  0.00    -0.290 OA
ATOM     17  H5  UNL     1      -2.100   3.870   9.255  1.00  0.00     0.244 HD
ENDBRANCH  14  16
ENDBRANCH   6  13
TORSDOF 5
ENDMDL