MODEL 3
REMARK VINA RESULT: -5.636064745      1.575      1.882
REMARK  5 active torsions:
REMARK  status: ('A' for Active; 'I' for Inactive)
REMARK    1  A    between atoms: S1_2  and  C2_3
REMARK    2  A    between atoms: C4_5  and  N1_6
REMARK    3  A    between atoms: N3_10  and  O1_11
REMARK    4  A    between atoms: C7_15  and  C8_16
REMARK    5  A    between atoms: C8_16  and  O3_17
ROOT
HETATM    1  C2  UNL     1      -3.496   4.691  13.069  1.00  0.00     0.082 C
HETATM    2  C3  UNL     1      -3.713   4.188  14.506  1.00  0.00     0.072 C
HETATM    3  C4  UNL     1      -4.859   3.229  14.238  1.00  0.00     0.231 C
HETATM    4  O2  UNL     1      -4.833   2.887  12.914  1.00  0.00    -0.358 OA
HETATM    5  C7  UNL     1      -3.673   3.372  12.343  1.00  0.00     0.161 C
ENDROOT
BRANCH   3   6
HETATM    6  N1  UNL     1      -4.818   2.052  15.049  1.00  0.00    -0.307 N
HETATM    7  C5  UNL     1      -4.222   0.884  14.761  1.00  0.00     0.205 A
HETATM    8  N2  UNL     1      -4.436   0.067  15.802  1.00  0.00    -0.269 N
HETATM    9  N3  UNL     1      -5.143   0.707  16.710  1.00  0.00    -0.158 N
ATOM     10  H2  UNL     1      -4.104  -0.895  15.878  1.00  0.00     0.190 HD
HETATM   11  C6  UNL     1      -5.384   1.927  16.259  1.00  0.00     0.239 A
BRANCH   9  12
HETATM   12  O1  UNL     1      -5.547   0.173  17.912  1.00  0.00    -0.267 OA
ATOM     13  H1  UNL     1      -5.915   0.671  18.631  1.00  0.00     0.247 HD
ENDBRANCH   9  12
ENDBRANCH   3   6
BRANCH   1  14
HETATM   14  S1  UNL     1      -4.884   5.814  12.731  1.00  0.00    -0.166 SA
HETATM   15  C1  UNL     1      -4.194   7.415  12.259  1.00  0.00     0.090 C
ENDBRANCH   1  14
BRANCH   5  16
HETATM   16  C8  UNL     1      -3.780   3.544  10.855  1.00  0.00     0.197 C
BRANCH  16  17
HETATM   17  O3  UNL     1      -4.604   2.594  10.274  1.00  0.00    -0.398 OA
ATOM     18  H3  UNL     1      -4.468   1.728  10.639  1.00  0.00     0.209 HD
ENDBRANCH  16  17
ENDBRANCH   5  16
TORSDOF 5
ENDMDL