MODEL 4
REMARK VINA RESULT: -6.217883349      1.444      2.333
REMARK  4 active torsions:
REMARK  status: ('A' for Active; 'I' for Inactive)
REMARK    1  A    between atoms: C2_2  and  O1_3
REMARK    2  A    between atoms: O1_3  and  C3_4
REMARK    3  A    between atoms: C7_11  and  C8_12
REMARK    4  A    between atoms: C8_12  and  O5_13
ROOT
HETATM    1  C3  UNL     1      -3.633  -0.454  10.371  1.00  0.00     0.449 C
HETATM    2  O2  UNL     1      -4.890   0.044  10.060  1.00  0.00    -0.176 OA
HETATM    3  O3  UNL     1      -5.195   0.928  10.976  1.00  0.00    -0.193 OA
HETATM    4  C4  UNL     1      -4.007   1.439  11.474  1.00  0.00     0.224 C
HETATM    5  C5  UNL     1      -3.790   2.815  10.886  1.00  0.00     0.239 C
HETATM    6  O4  UNL     1      -4.652   3.732  11.401  1.00  0.00    -0.385 OA
HETATM    7  C6  UNL     1      -4.634   3.915  12.743  1.00  0.00     0.174 C
HETATM    8  C7  UNL     1      -4.069   2.832  13.572  1.00  0.00     0.038 C
HETATM    9  C9  UNL     1      -4.092   1.468  12.978  1.00  0.00     0.082 C
HETATM   10  O6  UNL     1      -2.996   0.621  10.999  1.00  0.00    -0.295 OA
ENDROOT
BRANCH   8  11
HETATM   11  C8  UNL     1      -4.846   2.772  14.894  1.00  0.00     0.170 C
BRANCH  11  12
HETATM   12  O5  UNL     1      -4.113   2.170  15.891  1.00  0.00    -0.400 OA
ATOM     13  H5  UNL     1      -3.243   1.931  15.594  1.00  0.00     0.209 HD
ENDBRANCH  11  12
ENDBRANCH   8  11
BRANCH   1  14
HETATM   14  O1  UNL     1      -3.653  -1.511  11.235  1.00  0.00    -0.338 OA
BRANCH  14  15
HETATM   15  C2  UNL     1      -2.585  -2.364  11.159  1.00  0.00     0.169 C
HETATM   16  C1  UNL     1      -3.094  -3.786  11.199  1.00  0.00     0.033 C
ENDBRANCH  14  15
ENDBRANCH   1  14
TORSDOF 4
ENDMDL