MODEL 4
REMARK VINA RESULT: -6.025700422      2.900      4.095
REMARK  4 active torsions:
REMARK  status: ('A' for Active; 'I' for Inactive)
REMARK    1  A    between atoms: O1_3  and  N2_4
REMARK    2  A    between atoms: C2_6  and  C3_7
REMARK    3  A    between atoms: C2_6  and  C4_12
REMARK    4  A    between atoms: N3_8  and  O2_10
REMARK       I    between atoms: C4_12  and  N4_14
ROOT
HETATM    1  N1  UNL     1      -3.007  -3.591  11.592  1.00  0.00    -0.162 NA
HETATM    2  C1  UNL     1      -2.861  -2.489  11.243  1.00  0.00     0.253 C
HETATM    3  O1  UNL     1      -2.672  -1.202  10.848  1.00  0.00    -0.159 OA
ENDROOT
BRANCH   3   4
HETATM    4  N2  UNL     1      -3.630  -0.266  11.121  1.00  0.00    -0.243 N
HETATM    5  C2  UNL     1      -3.350   0.963  11.382  1.00  0.00     0.140 C
ATOM      6  H2  UNL     1      -4.609  -0.553  11.119  1.00  0.00     0.196 HD
BRANCH   5   7
HETATM    7  C3  UNL     1      -1.930   1.323  11.373  1.00  0.00     0.150 C
HETATM    8  N3  UNL     1      -1.534   2.366  12.027  1.00  0.00    -0.278 N
ATOM      9  H3  UNL     1      -2.233   2.910  12.533  1.00  0.00     0.193 HD
BRANCH   8  10
HETATM   10  O2  UNL     1      -0.246   2.778  12.079  1.00  0.00    -0.290 OA
ATOM     11  H2  UNL     1       0.016   3.690  12.126  1.00  0.00     0.244 HD
ENDBRANCH   8  10
ENDBRANCH   5   7
BRANCH   5  12
HETATM   12  C4  UNL     1      -4.365   1.956  11.671  1.00  0.00     0.273 C
HETATM   13  O3  UNL     1      -4.882   2.560  10.682  1.00  0.00    -0.266 OA
HETATM   14  N4  UNL     1      -4.828   2.310  12.942  1.00  0.00    -0.347 N
HETATM   15  C5  UNL     1      -4.303   1.678  14.123  1.00  0.00     0.126 C
HETATM   16  C9  UNL     1      -5.838   3.315  13.138  1.00  0.00     0.126 C
HETATM   17  C6  UNL     1      -5.029   2.239  15.348  1.00  0.00     0.020 C
HETATM   18  C7  UNL     1      -4.993   3.730  15.407  1.00  0.00     0.003 C
HETATM   19  C8  UNL     1      -5.340   4.376  14.091  1.00  0.00     0.020 C
ENDBRANCH   5  12
ENDBRANCH   3   4
TORSDOF 4
ENDMDL