MODEL 1
REMARK VINA RESULT: -7.303984175      0.000      0.000
REMARK  4 active torsions:
REMARK  status: ('A' for Active; 'I' for Inactive)
REMARK    1  A    between atoms: C1_2  and  O2_3
REMARK    2  A    between atoms: O2_3  and  C2_4
REMARK       I    between atoms: C2_4  and  N1_6
REMARK    3  A    between atoms: N1_6  and  N2_8
REMARK    4  A    between atoms: N3_10  and  N4_12
ROOT
HETATM    1  N2  UNL     1      -4.133   2.079  14.131  1.00  0.00    -0.223 N
ATOM      2  H2  UNL     1      -3.579   2.865  13.789  1.00  0.00     0.210 HD
HETATM    3  N3  UNL     1      -4.158   1.019  13.453  1.00  0.00    -0.216 N
ATOM      4  H3  UNL     1      -4.718   0.246  13.813  1.00  0.00     0.211 HD
ENDROOT
BRANCH   1   5
HETATM    5  N1  UNL     1      -4.820   2.223  15.312  1.00  0.00    -0.229 N
HETATM    6  C2  UNL     1      -4.563   1.427  16.444  1.00  0.00     0.387 C
HETATM    7  O3  UNL     1      -3.668   0.551  16.364  1.00  0.00    -0.236 OA
ATOM      8  H1  UNL     1      -5.547   2.937  15.370  1.00  0.00     0.194 HD
BRANCH   6   9
HETATM    9  O2  UNL     1      -5.239   1.551  17.646  1.00  0.00    -0.234 OA
BRANCH   9  10
HETATM   10  C1  UNL     1      -6.567   1.195  17.714  1.00  0.00     0.408 C
HETATM   11  O1  UNL     1      -7.080   0.440  16.836  1.00  0.00    -0.275 OA
ENDBRANCH   9  10
ENDBRANCH   6   9
ENDBRANCH   1   5
BRANCH   3  12
HETATM   12  N4  UNL     1      -3.492   0.817  12.268  1.00  0.00    -0.196 N
HETATM   13  C3  UNL     1      -3.404  -0.361  11.458  1.00  0.00     0.191 C
HETATM   14  C4  UNL     1      -2.193  -0.332  10.623  1.00  0.00     0.009 C
HETATM   15  C5  UNL     1      -1.604   0.820  10.480  1.00  0.00     0.131 C
HETATM   16  S1  UNL     1      -2.545   1.971  11.402  1.00  0.00     0.269 S
HETATM   17  O4  UNL     1      -1.714   2.823  12.286  1.00  0.00    -0.200 OA
HETATM   18  O5  UNL     1      -3.478   2.754  10.532  1.00  0.00    -0.200 OA
ENDBRANCH   3  12
TORSDOF 4
ENDMDL