MODEL 2
REMARK VINA RESULT: -6.026836230      2.533      3.649
REMARK  3 active torsions:
REMARK  status: ('A' for Active; 'I' for Inactive)
REMARK    1  A    between atoms: C2_2  and  C3_3
REMARK    2  A    between atoms: C3_3  and  N1_4
REMARK    3  A    between atoms: N1_4  and  C4_7
ROOT
HETATM    1  C4  UNL     1      -3.912   3.403  12.625  1.00  0.00     0.332 C
HETATM    2  O1  UNL     1      -3.622   4.004  11.405  1.00  0.00    -0.356 OA
HETATM    3  C5  UNL     1      -2.402   3.478  10.990  1.00  0.00     0.203 C
HETATM    4  C6  UNL     1      -2.307   2.080  11.566  1.00  0.00     0.158 C
HETATM    5  O2  UNL     1      -2.076   1.181  10.582  1.00  0.00    -0.378 OA
HETATM    6  C7  UNL     1      -2.391  -0.124  10.815  1.00  0.00     0.229 C
HETATM    7  C8  UNL     1      -3.880  -0.330  10.802  1.00  0.00     0.289 C
HETATM    8  O3  UNL     1      -4.481   0.855  10.419  1.00  0.00    -0.329 OA
HETATM    9  C9  UNL     1      -4.646   1.172  11.758  1.00  0.00     0.277 C
HETATM   10  O4  UNL     1      -4.448  -0.177  12.063  1.00  0.00    -0.329 OA
HETATM   11  C10 UNL     1      -3.545   1.954  12.368  1.00  0.00     0.128 C
ENDROOT
BRANCH   1  12
HETATM   12  N1  UNL     1      -5.274   3.590  13.007  1.00  0.00    -0.048 N
ATOM     13  H12 UNL     1      -5.826   2.765  12.771  1.00  0.00     0.280 HD
ATOM     14  H11 UNL     1      -5.722   4.278  12.402  1.00  0.00     0.280 HD
BRANCH  12  15
HETATM   15  C3  UNL     1      -5.461   3.940  14.381  1.00  0.00     0.235 C
BRANCH  15  16
HETATM   16  C2  UNL     1      -5.705   5.431  14.563  1.00  0.00     0.023 C
HETATM   17  C1  UNL     1      -6.580   5.952  13.460  1.00  0.00     0.007 C
ENDBRANCH  15  16
ENDBRANCH  12  15
ENDBRANCH   1  12
TORSDOF 3
ENDMDL