MODEL 4
REMARK VINA RESULT: -5.833846480      3.783      5.047
REMARK  6 active torsions:
REMARK  status: ('A' for Active; 'I' for Inactive)
REMARK    1  A    between atoms: C2_2  and  O2_4
REMARK    2  A    between atoms: O2_4  and  C3_5
REMARK    3  A    between atoms: C3_5  and  C4_6
REMARK    4  A    between atoms: C7_14  and  N2_15
REMARK    5  A    between atoms: N2_15  and  N3_17
REMARK    6  A    between atoms: N3_17  and  N4_18
ROOT
HETATM    1  C4  UNL     1      -3.415   2.071  12.116  1.00  0.00     0.268 C
HETATM    2  N1  UNL     1      -3.994   1.022  12.975  1.00  0.00    -0.033 N
ATOM      3  H11 UNL     1      -4.816   1.299  13.511  1.00  0.00     0.281 HD
ATOM      4  H12 UNL     1      -3.437   0.767  13.790  1.00  0.00     0.281 HD
HETATM    5  C5  UNL     1      -4.205  -0.024  12.022  1.00  0.00     0.375 C
HETATM    6  O3  UNL     1      -4.798   0.714  10.968  1.00  0.00    -0.323 OA
HETATM    7  C6  UNL     1      -3.692   1.566  10.732  1.00  0.00     0.298 C
HETATM    8  O4  UNL     1      -2.721   0.635  10.408  1.00  0.00    -0.328 OA
HETATM    9  C7  UNL     1      -2.875  -0.360  11.393  1.00  0.00     0.309 C
ENDROOT
BRANCH   9  10
HETATM   10  N2  UNL     1      -3.019  -1.615  10.683  1.00  0.00    -0.218 N
ATOM     11  H2  UNL     1      -3.253  -1.611   9.690  1.00  0.00     0.200 HD
BRANCH  10  12
HETATM   12  N3  UNL     1      -2.861  -2.682  11.267  1.00  0.00    -0.246 NA
BRANCH  12  13
HETATM   13  N4  UNL     1      -2.833  -3.896  11.475  1.00  0.00    -0.261 N
ATOM     14  H42 UNL     1      -2.198  -3.864  12.273  1.00  0.00     0.193 HD
ATOM     15  H41 UNL     1      -3.027  -4.892  11.372  1.00  0.00     0.193 HD
ENDBRANCH  12  13
ENDBRANCH  10  12
ENDBRANCH   9  10
BRANCH   1  16
HETATM   16  C3  UNL     1      -4.136   3.336  12.455  1.00  0.00     0.217 C
BRANCH  16  17
HETATM   17  O2  UNL     1      -5.466   3.168  12.851  1.00  0.00    -0.320 OA
BRANCH  17  18
HETATM   18  C2  UNL     1      -6.090   3.870  13.857  1.00  0.00     0.254 C
HETATM   19  C1  UNL     1      -6.041   3.439  15.292  1.00  0.00     0.126 C
HETATM   20  O1  UNL     1      -6.723   4.913  13.548  1.00  0.00    -0.266 OA
ENDBRANCH  17  18
ENDBRANCH  16  17
ENDBRANCH   1  16
TORSDOF 6
ENDMDL