MODEL 4
REMARK VINA RESULT: -5.439526906      3.016      5.077
REMARK  4 active torsions:
REMARK  status: ('A' for Active; 'I' for Inactive)
REMARK    1  A    between atoms: C1_2  and  C2_4
REMARK    2  A    between atoms: C2_4  and  C3_6
REMARK    3  A    between atoms: N2_11  and  N3_12
REMARK    4  A    between atoms: N3_12  and  O3_14
ROOT
HETATM    1  C3  UNL     1      -4.244   3.133  13.281  1.00  0.00     0.177 C
HETATM    2  O2  UNL     1      -5.561   3.058  12.846  1.00  0.00    -0.379 OA
HETATM    3  C4  UNL     1      -6.330   3.758  13.768  1.00  0.00     0.175 C
HETATM    4  C5  UNL     1      -5.630   3.696  15.088  1.00  0.00     0.037 C
HETATM    5  C6  UNL     1      -6.370   2.834  16.059  1.00  0.00     0.151 C
HETATM    6  N2  UNL     1      -5.518   1.665  16.277  1.00  0.00    -0.308 N
HETATM    7  C7  UNL     1      -4.666   1.550  15.113  1.00  0.00     0.152 C
HETATM    8  C8  UNL     1      -4.343   2.970  14.781  1.00  0.00     0.047 C
ENDROOT
BRANCH   1   9
HETATM    9  C2  UNL     1      -3.714   4.468  12.906  1.00  0.00     0.103 C
HETATM   10  S1  UNL     1      -4.103   5.191  11.500  1.00  0.00    -0.077 SA
BRANCH   9  11
HETATM   11  C1  UNL     1      -2.822   5.134  13.834  1.00  0.00     0.274 C
HETATM   12  N1  UNL     1      -1.550   4.605  14.166  1.00  0.00    -0.057 NA
HETATM   13  O1  UNL     1      -3.186   6.213  14.359  1.00  0.00    -0.270 OA
ENDBRANCH   9  11
ENDBRANCH   1   9
BRANCH   6  14
HETATM   14  N3  UNL     1      -5.564   0.850  17.414  1.00  0.00    -0.212 N
ATOM     15  H3  UNL     1      -5.298   1.251  18.313  1.00  0.00     0.215 HD
BRANCH  14  16
HETATM   16  O3  UNL     1      -5.912  -0.328  17.376  1.00  0.00    -0.275 OA
ATOM     17  H3  UNL     1      -5.426  -1.023  17.804  1.00  0.00     0.246 HD
ENDBRANCH  14  16
ENDBRANCH   6  14
TORSDOF 4
ENDMDL