MODEL 1
REMARK VINA RESULT: -6.243289866      0.000      0.000
REMARK  4 active torsions:
REMARK  status: ('A' for Active; 'I' for Inactive)
REMARK    1  A    between atoms: C2_3  and  N2_4
REMARK    2  A    between atoms: C4_6  and  C5_7
REMARK    3  A    between atoms: C5_7  and  O1_8
REMARK    4  A    between atoms: C6_11  and  N3_12
ROOT
HETATM    1  N1  UNL     1      -5.986   6.158  12.119  1.00  0.00    -0.195 NA
HETATM    2  C1  UNL     1      -5.956   5.619  13.144  1.00  0.00     0.089 C
HETATM    3  C2  UNL     1      -5.943   4.952  14.422  1.00  0.00     0.395 C
ENDROOT
BRANCH   3   4
HETATM    4  N2  UNL     1      -5.871   3.517  14.338  1.00  0.00     0.108 N
HETATM    5  C3  UNL     1      -5.865   2.969  15.640  1.00  0.00     0.307 C
HETATM    6  C4  UNL     1      -4.855   1.875  15.859  1.00  0.00     0.176 C
HETATM    7  O2  UNL     1      -5.016   1.006  14.752  1.00  0.00    -0.355 OA
HETATM    8  C6  UNL     1      -4.343   1.684  13.709  1.00  0.00     0.257 C
HETATM    9  C10 UNL     1      -4.951   3.007  13.406  1.00  0.00     0.327 C
BRANCH   6  10
HETATM   10  C5  UNL     1      -5.101   1.074  17.084  1.00  0.00     0.197 C
BRANCH  10  11
HETATM   11  O1  UNL     1      -5.869  -0.040  16.735  1.00  0.00    -0.398 OA
ATOM     12  H1  UNL     1      -6.619  -0.081  17.316  1.00  0.00     0.209 HD
ENDBRANCH  10  11
ENDBRANCH   6  10
BRANCH   8  13
HETATM   13  N3  UNL     1      -4.258   0.812  12.555  1.00  0.00    -0.323 N
HETATM   14  C7  UNL     1      -3.804  -0.454  12.570  1.00  0.00     0.111 A
HETATM   15  C8  UNL     1      -3.861  -0.986  11.306  1.00  0.00     0.106 A
HETATM   16  N4  UNL     1      -4.352  -0.040  10.518  1.00  0.00    -0.361 N
HETATM   17  C9  UNL     1      -4.593   1.049  11.274  1.00  0.00     0.184 A
ATOM     18  H4  UNL     1      -4.519  -0.123   9.515  1.00  0.00     0.166 HD
ENDBRANCH   8  13
ENDBRANCH   3   4
TORSDOF 4
ENDMDL