MODEL 4
REMARK VINA RESULT: -7.849330149      2.678      3.744
REMARK  6 active torsions:
REMARK  status: ('A' for Active; 'I' for Inactive)
REMARK    1  A    between atoms: C2_2  and  C4_4
REMARK       I    between atoms: C4_4  and  N1_6
REMARK    2  A    between atoms: N2_9  and  C7_10
REMARK    3  A    between atoms: C7_10  and  O2_11
REMARK    4  A    between atoms: C7_10  and  C8_13
REMARK    5  A    between atoms: N3_15  and  C10_16
REMARK    6  A    between atoms: C16_23  and  N4_24
ROOT
HETATM    1  C8  UNL     1      -4.459   2.735  13.013  1.00  0.00     0.116 A
HETATM    2  C9  UNL     1      -4.827   3.284  14.241  1.00  0.00     0.144 A
HETATM    3  N3  UNL     1      -4.804   2.282  15.129  1.00  0.00    -0.184 N
HETATM    4  C16 UNL     1      -4.444   1.170  14.510  1.00  0.00     0.679 A
HETATM    5  N5  UNL     1      -4.222   1.425  13.186  1.00  0.00    -0.186 N
ATOM      6  H5  UNL     1      -3.935   0.756  12.473  1.00  0.00     0.184 HD
ENDROOT
BRANCH   1   7
HETATM    7  C7  UNL     1      -4.371   3.520  11.792  1.00  0.00     0.167 C
BRANCH   7   8
HETATM    8  N2  UNL     1      -3.769   4.768  11.605  1.00  0.00    -0.357 N
HETATM    9  C6  UNL     1      -2.308   4.836  11.819  1.00  0.00     0.145 C
HETATM   10  C5  UNL     1      -2.126   5.946  12.865  1.00  0.00     0.145 C
HETATM   11  N1  UNL     1      -2.484   7.159  12.171  1.00  0.00    -0.349 N
HETATM   12  C4  UNL     1      -1.929   8.391  12.551  1.00  0.00     0.223 C
HETATM   13  C18 UNL     1      -3.426   7.131  11.070  1.00  0.00     0.145 C
HETATM   14  O1  UNL     1      -2.301   9.425  11.886  1.00  0.00    -0.273 OA
HETATM   15  C17 UNL     1      -4.408   5.964  11.238  1.00  0.00     0.145 C
BRANCH  12  16
HETATM   16  C2  UNL     1      -0.951   8.591  13.656  1.00  0.00     0.070 C
HETATM   17  C1  UNL     1       0.073   9.632  13.327  1.00  0.00     0.019 C
HETATM   18  C3  UNL     1      -1.574   8.861  14.983  1.00  0.00     0.019 C
ENDBRANCH  12  16
ENDBRANCH   7   8
BRANCH   7  19
HETATM   19  O2  UNL     1      -4.936   2.959  10.751  1.00  0.00    -0.344 OA
ATOM     20  H2  UNL     1      -4.512   2.194  10.381  1.00  0.00     0.219 HD
ENDBRANCH   7  19
ENDBRANCH   1   7
BRANCH   3  21
HETATM   21  C10 UNL     1      -5.127   2.416  16.552  1.00  0.00     0.141 C
HETATM   22  C11 UNL     1      -5.495   3.829  16.867  1.00  0.00     0.029 C
HETATM   23  C12 UNL     1      -6.580   3.951  17.903  1.00  0.00     0.002 C
HETATM   24  C13 UNL     1      -6.414   2.808  18.890  1.00  0.00     0.003 C
HETATM   25  C14 UNL     1      -6.827   1.545  18.185  1.00  0.00     0.039 C
HETATM   26  C15 UNL     1      -6.283   1.444  16.796  1.00  0.00     0.194 C
HETATM   27  F1  UNL     1      -7.240   1.575  15.828  1.00  0.00    -0.247 F
ENDBRANCH   3  21
BRANCH   4  28
HETATM   28  N4  UNL     1      -4.310  -0.016  15.046  1.00  0.00    -0.234 N
ATOM     29  H42 UNL     1      -4.814  -0.840  14.717  1.00  0.00     0.174 HD
ATOM     30  H41 UNL     1      -3.710  -0.267  15.832  1.00  0.00     0.174 HD
ENDBRANCH   4  28
TORSDOF 6
ENDMDL