MODEL 4
REMARK VINA RESULT: -8.653655552      1.635      1.886
REMARK  3 active torsions:
REMARK  status: ('A' for Active; 'I' for Inactive)
REMARK       I    between atoms: C1_2  and  N1_3
REMARK    1  A    between atoms: C1_2  and  C7_10
REMARK    2  A    between atoms: N1_3  and  C2_5
REMARK    3  A    between atoms: N2_13  and  C10_14
ROOT
HETATM    1  C7  UNL     1      -2.517   4.951  11.168  1.00  0.00     0.115 C
HETATM    2  C8  UNL     1      -2.722   3.473  11.099  1.00  0.00     0.037 C
HETATM    3  C9  UNL     1      -4.116   3.052  11.533  1.00  0.00     0.142 C
HETATM    4  N2  UNL     1      -4.465   3.823  12.687  1.00  0.00    -0.215 N
HETATM    5  C18 UNL     1      -4.474   5.254  12.617  1.00  0.00     0.179 C
HETATM    6  C19 UNL     1      -3.791   5.732  11.367  1.00  0.00     0.201 C
HETATM    7  F1  UNL     1      -4.641   5.598  10.306  1.00  0.00    -0.247 F
ENDROOT
BRANCH   4   8
HETATM    8  C10 UNL     1      -4.801   3.190  13.911  1.00  0.00     0.683 A
HETATM    9  N3  UNL     1      -5.472   3.825  14.865  1.00  0.00    -0.195 N
HETATM   10  C11 UNL     1      -5.793   3.224  16.034  1.00  0.00     0.038 A
ATOM     11  H3  UNL     1      -5.754   4.794  14.712  1.00  0.00     0.184 HD
HETATM   12  C12 UNL     1      -5.412   1.927  16.234  1.00  0.00     0.034 A
HETATM   13  C17 UNL     1      -6.545   3.992  17.054  1.00  0.00     0.058 C
HETATM   14  C13 UNL     1      -4.704   1.253  15.228  1.00  0.00     0.267 A
HETATM   15  C14 UNL     1      -5.713   1.185  17.473  1.00  0.00     0.046 C
HETATM   16  O2  UNL     1      -4.370   0.061  15.445  1.00  0.00    -0.267 OA
HETATM   17  N4  UNL     1      -4.419   1.900  14.099  1.00  0.00    -0.156 N
ATOM     18  H4  UNL     1      -3.904   1.418  13.363  1.00  0.00     0.187 HD
HETATM   19  C15 UNL     1      -6.512   1.972  18.450  1.00  0.00     0.005 C
HETATM   20  C16 UNL     1      -6.171   3.448  18.412  1.00  0.00     0.006 C
ENDBRANCH   4   8
BRANCH   1  21
HETATM   21  C1  UNL     1      -1.861   5.447   9.929  1.00  0.00     0.225 C
HETATM   22  O1  UNL     1      -1.214   6.519   9.972  1.00  0.00    -0.273 OA
HETATM   23  N1  UNL     1      -1.965   4.721   8.723  1.00  0.00    -0.356 N
ATOM     24  H1  UNL     1      -2.494   3.849   8.700  1.00  0.00     0.162 HD
BRANCH  23  25
HETATM   25  C2  UNL     1      -1.336   5.199   7.544  1.00  0.00     0.084 C
HETATM   26  C3  UNL     1      -0.345   4.219   6.923  1.00  0.00     0.025 C
HETATM   27  C4  UNL     1      -0.061   4.881   5.590  1.00  0.00     0.002 C
HETATM   28  C5  UNL     1      -1.253   5.799   5.300  1.00  0.00     0.002 C
HETATM   29  C6  UNL     1      -2.285   5.369   6.355  1.00  0.00     0.025 C
ENDBRANCH  23  25
ENDBRANCH   1  21
TORSDOF 3
ENDMDL