MODEL 1
REMARK VINA RESULT: -7.395559430      0.000      0.000
REMARK  4 active torsions:
REMARK  status: ('A' for Active; 'I' for Inactive)
REMARK    1  A    between atoms: C2_2  and  C4_4
REMARK    2  A    between atoms: C5_5  and  O1_6
REMARK       I    between atoms: N1_13  and  C10_14
REMARK    3  A    between atoms: C10_14  and  C11_16
REMARK    4  A    between atoms: C11_16  and  C12_17
ROOT
HETATM    1  C4  UNL     1      -1.390   7.390  13.616  1.00  0.00     0.052 C
HETATM    2  C5  UNL     1      -0.408   7.121  12.515  1.00  0.00     0.146 C
HETATM    3  C6  UNL     1      -0.592   5.600  12.344  1.00  0.00     0.118 C
HETATM    4 CL1  UNL     1      -0.501   5.225  10.593  1.00  0.00    -0.122 Cl
HETATM    5  C7  UNL     1      -1.947   5.280  12.860  1.00  0.00     0.041 C
HETATM    6  C8  UNL     1      -2.684   4.274  12.042  1.00  0.00     0.120 C
HETATM    7  C9  UNL     1      -1.761   3.048  11.962  1.00  0.00     0.035 C
HETATM    8  N1  UNL     1      -3.864   3.840  12.753  1.00  0.00    -0.221 N
HETATM    9  C10 UNL     1      -4.758   2.906  12.144  1.00  0.00     0.252 C
HETATM   10  O2  UNL     1      -5.780   2.579  12.815  1.00  0.00    -0.271 OA
HETATM   11  O4  UNL     1      -4.276   4.229  14.008  1.00  0.00    -0.270 OA
HETATM   12  C13 UNL     1      -4.722   5.538  13.832  1.00  0.00     0.149 C
HETATM   13  C14 UNL     1      -5.913   5.825  14.732  1.00  0.00     0.042 C
HETATM   14  C15 UNL     1      -3.627   6.477  14.262  1.00  0.00     0.044 C
HETATM   15  C16 UNL     1      -2.599   6.578  13.156  1.00  0.00    -0.025 C
HETATM   16  C17 UNL     1      -3.279   7.248  11.989  1.00  0.00     0.016 C
ENDROOT
BRANCH   9  17
HETATM   17  C11 UNL     1      -4.542   2.336  10.814  1.00  0.00     0.204 C
BRANCH  17  18
HETATM   18  C12 UNL     1      -4.854   0.895  10.795  1.00  0.00     0.239 C
HETATM   19  N2  UNL     1      -4.416   0.077  11.913  1.00  0.00    -0.062 NA
HETATM   20  O3  UNL     1      -5.474   0.382   9.855  1.00  0.00    -0.276 OA
ENDBRANCH  17  18
ENDBRANCH   9  17
BRANCH   2  21
HETATM   21  O1  UNL     1      -0.642   7.700  11.307  1.00  0.00    -0.393 OA
ATOM     22  H1  UNL     1      -0.094   7.435  10.578  1.00  0.00     0.210 HD
ENDBRANCH   2  21
BRANCH   1  23
HETATM   23  C2  UNL     1      -1.557   8.731  14.060  1.00  0.00    -0.086 C
HETATM   24  C1  UNL     1      -1.532   9.783  13.262  1.00  0.00     0.014 C
HETATM   25  C3  UNL     1      -1.718   9.092  15.513  1.00  0.00     0.043 C
ENDBRANCH   1  23
TORSDOF 4
ENDMDL