MODEL 3
REMARK VINA RESULT: -7.869403652      1.261      1.504
REMARK  4 active torsions:
REMARK  status: ('A' for Active; 'I' for Inactive)
REMARK    1  A    between atoms: C7_8  and  N2_9
REMARK    2  A    between atoms: N4_19  and  C13_21
REMARK    3  A    between atoms: C13_21  and  C14_22
REMARK    4  A    between atoms: C15_23  and  C16_24
ROOT
HETATM    1  C1  UNL     1      -6.158   3.708  17.882  1.00  0.00     0.052 C
HETATM    2  C2  UNL     1      -5.754   3.717  16.441  1.00  0.00    -0.020 A
HETATM    3  C3  UNL     1      -5.795   4.812  15.660  1.00  0.00     0.100 A
HETATM    4  N1  UNL     1      -5.435   4.864  14.336  1.00  0.00    -0.358 N
HETATM    5  C4  UNL     1      -5.521   6.082  13.606  1.00  0.00     0.156 C
HETATM    6  C5  UNL     1      -5.007   3.681  13.820  1.00  0.00     0.070 A
HETATM    7  C6  UNL     1      -4.944   2.537  14.565  1.00  0.00    -0.002 A
HETATM    8  C7  UNL     1      -5.325   2.546  15.908  1.00  0.00     0.041 A
HETATM    9  C8  UNL     1      -4.466   1.268  13.992  1.00  0.00     0.048 A
HETATM   10  C9  UNL     1      -4.139   1.198  12.569  1.00  0.00     0.047 A
HETATM   11  C10 UNL     1      -4.179   2.453  11.831  1.00  0.00    -0.012 A
HETATM   12  C11 UNL     1      -3.785   2.471  10.475  1.00  0.00     0.115 A
HETATM   13  N3  UNL     1      -3.850   3.618   9.834  1.00  0.00    -0.201 N
ATOM     14  H3  UNL     1      -3.566   3.637   8.854  1.00  0.00     0.183 HD
HETATM   15  C12 UNL     1      -4.278   4.794  10.407  1.00  0.00     0.678 A
HETATM   16  N4  UNL     1      -4.287   5.847   9.652  1.00  0.00    -0.226 N
ATOM     17  H4  UNL     1      -3.980   5.747   8.685  1.00  0.00     0.177 HD
HETATM   18  N5  UNL     1      -4.641   4.734  11.686  1.00  0.00    -0.189 N
ATOM     19  H5  UNL     1      -4.964   5.591  12.137  1.00  0.00     0.184 HD
HETATM   20  C21 UNL     1      -4.608   3.626  12.406  1.00  0.00     0.084 A
ENDROOT
BRANCH  16  21
HETATM   21  C13 UNL     1      -4.702   7.134  10.094  1.00  0.00     0.144 C
BRANCH  21  22
HETATM   22  C14 UNL     1      -5.195   7.908   8.914  1.00  0.00     0.020 A
HETATM   23  C15 UNL     1      -5.464   9.412   9.114  1.00  0.00     0.030 A
HETATM   24  C17 UNL     1      -6.512   8.457   8.744  1.00  0.00    -0.029 A
HETATM   25  C18 UNL     1      -7.278   8.520   7.474  1.00  0.00     0.010 C
HETATM   26  C20 UNL     1      -7.718   8.159   9.534  1.00  0.00     0.010 C
HETATM   27  C19 UNL     1      -8.469   7.932   8.215  1.00  0.00     0.002 C
BRANCH  23  28
HETATM   28  C16 UNL     1      -5.421   9.981  10.490  1.00  0.00     0.228 C
HETATM   29  F1  UNL     1      -6.437  10.820  10.820  1.00  0.00    -0.255 F
ENDBRANCH  23  28
ENDBRANCH  21  22
ENDBRANCH  16  21
BRANCH   8  30
HETATM   30  N2  UNL     1      -5.251   1.473  16.570  1.00  0.00    -0.398 N
ATOM     31  H22 UNL     1      -5.046   1.523  17.568  1.00  0.00     0.156 HD
ATOM     32  H21 UNL     1      -5.391   0.552  16.155  1.00  0.00     0.156 HD
ENDBRANCH   8  30
TORSDOF 4
ENDMDL