MODEL 1
REMARK VINA RESULT: -7.999675236      0.000      0.000
REMARK  6 active torsions:
REMARK  status: ('A' for Active; 'I' for Inactive)
REMARK    1  A    between atoms: C4_4  and  C5_5
REMARK    2  A    between atoms: C5_5  and  C6_6
REMARK    3  A    between atoms: C9_11  and  C10_12
REMARK    4  A    between atoms: C10_12  and  O2_14
REMARK    5  A    between atoms: O2_14  and  C11_15
REMARK    6  A    between atoms: C13_17  and  O3_18
ROOT
HETATM    1  C1  UNL     1      -7.287   8.205  11.654  1.00  0.00     0.018 C
HETATM    2  C2  UNL     1      -6.141   7.826  11.792  1.00  0.00    -0.074 C
HETATM    3  C3  UNL     1      -4.788   7.374  11.966  1.00  0.00     0.060 A
HETATM    4  C4  UNL     1      -4.339   6.305  12.750  1.00  0.00     0.098 A
HETATM    5  O4  UNL     1      -3.040   6.207  12.652  1.00  0.00    -0.301 OA
HETATM    6  C14 UNL     1      -2.560   7.144  11.848  1.00  0.00     0.129 A
HETATM    7 BR1  UNL     1      -0.731   7.436  11.369  1.00  0.00    -0.022 Br
HETATM    8  C15 UNL     1      -3.636   7.887  11.406  1.00  0.00     0.001 A
HETATM    9  C16 UNL     1      -3.578   9.059  10.471  1.00  0.00     0.053 C
ENDROOT
BRANCH   4  10
HETATM   10  C5  UNL     1      -5.278   5.493  13.519  1.00  0.00     0.071 C
BRANCH  10  11
HETATM   11  C6  UNL     1      -5.055   4.204  13.761  1.00  0.00     0.070 A
HETATM   12  N1  UNL     1      -4.668   3.274  12.887  1.00  0.00    -0.354 N
HETATM   13  C7  UNL     1      -4.543   2.063  13.510  1.00  0.00     0.042 A
ATOM     14  H1  UNL     1      -4.490   3.442  11.896  1.00  0.00     0.166 HD
HETATM   15  C8  UNL     1      -4.175   0.961  12.892  1.00  0.00     0.044 C
HETATM   16  C9  UNL     1      -4.860   2.204  14.842  1.00  0.00     0.100 A
HETATM   17  C13 UNL     1      -5.181   3.553  14.990  1.00  0.00     0.111 A
BRANCH  16  18
HETATM   18  C10 UNL     1      -4.873   1.199  15.894  1.00  0.00     0.298 C
HETATM   19  O1  UNL     1      -3.839   0.870  16.516  1.00  0.00    -0.259 OA
BRANCH  18  20
HETATM   20  O2  UNL     1      -6.033   0.539  16.281  1.00  0.00    -0.318 OA
BRANCH  20  21
HETATM   21  C11 UNL     1      -7.052   1.184  17.023  1.00  0.00     0.174 C
HETATM   22  C12 UNL     1      -6.489   1.855  18.245  1.00  0.00     0.034 C
ENDBRANCH  20  21
ENDBRANCH  18  20
ENDBRANCH  16  18
BRANCH  17  23
HETATM   23  O3  UNL     1      -5.563   4.204  16.121  1.00  0.00    -0.357 OA
ATOM     24  H3  UNL     1      -4.964   4.364  16.841  1.00  0.00     0.217 HD
ENDBRANCH  17  23
ENDBRANCH  10  11
ENDBRANCH   4  10
TORSDOF 6
ENDMDL