MODEL 2
REMARK VINA RESULT: -5.226500244      3.073      5.100
REMARK  5 active torsions:
REMARK  status: ('A' for Active; 'I' for Inactive)
REMARK    1  A    between atoms: C2_2  and  C3_3
REMARK    2  A    between atoms: C9_12  and  C10_13
REMARK    3  A    between atoms: C10_13  and  O1_14
REMARK    4  A    between atoms: C12_18  and  C14_20
REMARK    5  A    between atoms: C14_20  and  O3_21
ROOT
HETATM    1  C1  UNL     1      -6.080   4.433  13.695  1.00  0.00     0.024 C
HETATM    2  C2  UNL     1      -4.725   3.698  13.641  1.00  0.00     0.030 C
HETATM    3  C4  UNL     1      -4.812   2.473  12.766  1.00  0.00     0.047 C
HETATM    4  C5  UNL     1      -4.591   2.867  11.328  1.00  0.00     0.001 C
HETATM    5  C6  UNL     1      -3.780   3.794  10.955  1.00  0.00     0.028 C
HETATM    6  N1  UNL     1      -3.348   4.405   9.846  1.00  0.00    -0.316 N
HETATM    7  C7  UNL     1      -2.099   4.464   9.240  1.00  0.00     0.404 C
HETATM    8  N2  UNL     1      -2.280   5.895   9.819  1.00  0.00     0.143 N
HETATM    9  C8  UNL     1      -2.580   5.840  11.222  1.00  0.00     0.304 C
HETATM   10  C9  UNL     1      -2.896   4.595  12.014  1.00  0.00     0.111 C
HETATM   11  C11 UNL     1      -3.784   4.737  13.140  1.00  0.00     0.154 C
HETATM   12  O2  UNL     1      -3.793   5.793  13.767  1.00  0.00    -0.296 OA
HETATM   13  C12 UNL     1      -3.664   5.562   9.100  1.00  0.00     0.293 C
HETATM   14  C13 UNL     1      -3.535   5.603   7.654  1.00  0.00     0.083 C
ENDROOT
BRANCH  13  15
HETATM   15  C14 UNL     1      -4.648   6.532   9.587  1.00  0.00     0.170 C
HETATM   16  S1  UNL     1      -4.530   8.086   9.136  1.00  0.00    -0.053 SA
BRANCH  15  17
HETATM   17  O3  UNL     1      -5.672   6.149  10.417  1.00  0.00    -0.351 OA
ATOM     18  H3  UNL     1      -6.540   6.525  10.333  1.00  0.00     0.218 HD
ENDBRANCH  15  17
ENDBRANCH  13  15
BRANCH  10  19
HETATM   19  C10 UNL     1      -1.665   3.859  12.399  1.00  0.00     0.189 C
BRANCH  19  20
HETATM   20  O1  UNL     1      -1.214   3.972  13.690  1.00  0.00    -0.399 OA
ATOM     21  H1  UNL     1      -0.763   3.231  14.077  1.00  0.00     0.209 HD
ENDBRANCH  19  20
ENDBRANCH  10  19
BRANCH   2  22
HETATM   22  C3  UNL     1      -4.441   3.273  15.045  1.00  0.00     0.102 C
HETATM   23 BR1  UNL     1      -5.951   3.901  16.123  1.00  0.00    -0.095 Br
ENDBRANCH   2  22
TORSDOF 5
ENDMDL