MODEL 3
REMARK VINA RESULT: -8.672687128      1.082      1.669
REMARK  3 active torsions:
REMARK  status: ('A' for Active; 'I' for Inactive)
REMARK       I    between atoms: C1_2  and  N1_3
REMARK    1  A    between atoms: C1_2  and  C12_15
REMARK    2  A    between atoms: N1_3  and  C2_5
REMARK    3  A    between atoms: N2_18  and  C15_19
ROOT
HETATM    1  C12 UNL     1      -4.798   5.515  12.895  1.00  0.00     0.081 C
HETATM    2  C13 UNL     1      -5.845   5.648  13.948  1.00  0.00     0.034 C
HETATM    3  C14 UNL     1      -6.302   4.250  14.319  1.00  0.00     0.125 C
HETATM    4  N2  UNL     1      -5.122   3.504  14.727  1.00  0.00    -0.363 N
HETATM    5  C19 UNL     1      -3.831   3.628  14.119  1.00  0.00     0.125 C
HETATM    6  C20 UNL     1      -3.553   4.963  13.514  1.00  0.00     0.034 C
ENDROOT
BRANCH   1   7
HETATM    7  C1  UNL     1      -4.534   6.782  12.167  1.00  0.00     0.222 C
HETATM    8  O1  UNL     1      -3.556   7.513  12.462  1.00  0.00    -0.273 OA
HETATM    9  N1  UNL     1      -5.382   7.206  11.112  1.00  0.00    -0.356 N
ATOM     10  H1  UNL     1      -6.182   6.629  10.854  1.00  0.00     0.162 HD
BRANCH   9  11
HETATM   11  C2  UNL     1      -5.140   8.438  10.391  1.00  0.00     0.089 C
HETATM   12  C3  UNL     1      -4.364   8.219   9.124  1.00  0.00     0.030 C
HETATM   13  C4  UNL     1      -5.053   8.943   7.987  1.00  0.00    -0.012 C
HETATM   14  C5  UNL     1      -5.086  10.409   8.116  1.00  0.00     0.009 C
HETATM   15  C9  UNL     1      -6.411   8.283   7.881  1.00  0.00     0.010 C
HETATM   16  C6  UNL     1      -6.267  10.996   8.801  1.00  0.00    -0.013 C
HETATM   17  C7  UNL     1      -7.568  10.280   8.487  1.00  0.00     0.010 C
HETATM   18  C11 UNL     1      -6.161  10.658  10.297  1.00  0.00     0.011 C
HETATM   19  C8  UNL     1      -7.222   8.883   9.029  1.00  0.00    -0.008 C
HETATM   20  C10 UNL     1      -6.425   9.167  10.233  1.00  0.00     0.013 C
ENDBRANCH   9  11
ENDBRANCH   1   7
BRANCH   4  21
HETATM   21  C15 UNL     1      -5.290   2.592  15.808  1.00  0.00     0.175 A
HETATM   22  N3  UNL     1      -5.747   3.051  16.984  1.00  0.00    -0.313 N
HETATM   23  C16 UNL     1      -5.935   2.274  18.053  1.00  0.00     0.205 A
ATOM     24  H3  UNL     1      -5.961   4.045  17.065  1.00  0.00     0.170 HD
HETATM   25  F1  UNL     1      -6.401   2.761  19.240  1.00  0.00    -0.185 F
HETATM   26  C17 UNL     1      -5.643   0.927  17.935  1.00  0.00     0.152 A
HETATM   27  N4  UNL     1      -5.185   0.444  16.769  1.00  0.00    -0.326 N
HETATM   28  C18 UNL     1      -5.000   1.248  15.698  1.00  0.00     0.289 A
ATOM     29  H4  UNL     1      -4.972  -0.550  16.690  1.00  0.00     0.168 HD
HETATM   30  O2  UNL     1      -4.565   0.777  14.598  1.00  0.00    -0.264 OA
ENDBRANCH   4  21
TORSDOF 3
ENDMDL