MODEL 3
REMARK VINA RESULT: -7.796984900      2.824      3.314
REMARK  4 active torsions:
REMARK  status: ('A' for Active; 'I' for Inactive)
REMARK    1  A    between atoms: C7_9  and  C8_10
REMARK       I    between atoms: C8_10  and  N1_12
REMARK    2  A    between atoms: N1_12  and  C9_14
REMARK    3  A    between atoms: C15_21  and  C16_22
REMARK    4  A    between atoms: C16_22  and  O4_23
ROOT
HETATM    1  O1  UNL     1      -6.006   5.703   9.146  1.00  0.00    -0.295 OA
HETATM    2  C1  UNL     1      -4.929   6.205   9.502  1.00  0.00     0.159 C
HETATM    3  C2  UNL     1      -4.732   7.658   9.301  1.00  0.00     0.101 C
HETATM    4  C3  UNL     1      -5.302   8.428  10.464  1.00  0.00     0.087 C
HETATM    5 BR1  UNL     1      -6.340   9.928   9.821  1.00  0.00    -0.086 Br
HETATM    6  C4  UNL     1      -6.084   7.574  11.396  1.00  0.00    -0.015 C
HETATM    7  C5  UNL     1      -5.577   6.798  12.337  1.00  0.00    -0.026 C
HETATM    8  C6  UNL     1      -4.116   6.662  12.612  1.00  0.00     0.068 C
HETATM    9  C7  UNL     1      -3.638   5.238  12.335  1.00  0.00     0.217 C
HETATM   10  O3  UNL     1      -4.345   4.719  11.271  1.00  0.00    -0.361 OA
HETATM   11  C15 UNL     1      -3.885   5.354  10.108  1.00  0.00     0.215 C
ENDROOT
BRANCH   9  12
HETATM   12  C8  UNL     1      -3.700   4.400  13.545  1.00  0.00     0.247 C
HETATM   13  O2  UNL     1      -2.687   3.760  13.895  1.00  0.00    -0.271 OA
HETATM   14  N1  UNL     1      -4.871   4.301  14.317  1.00  0.00    -0.354 N
ATOM     15  H1  UNL     1      -5.683   4.834  14.008  1.00  0.00     0.162 HD
BRANCH  14  16
HETATM   16  C9  UNL     1      -5.015   3.511  15.505  1.00  0.00     0.084 C
HETATM   17  C10 UNL     1      -5.223   2.061  15.078  1.00  0.00     0.025 C
HETATM   18  C11 UNL     1      -4.989   1.110  16.233  1.00  0.00     0.002 C
HETATM   19  C12 UNL     1      -5.521   1.776  17.483  1.00  0.00     0.000 C
HETATM   20  C13 UNL     1      -6.625   2.753  17.162  1.00  0.00     0.002 C
HETATM   21  C14 UNL     1      -6.062   3.985  16.447  1.00  0.00     0.025 C
ENDBRANCH  14  16
ENDBRANCH   9  12
BRANCH  11  22
HETATM   22  C16 UNL     1      -3.397   4.289   9.124  1.00  0.00     0.203 C
BRANCH  22  23
HETATM   23  O4  UNL     1      -3.949   3.055   9.367  1.00  0.00    -0.398 OA
ATOM     24  H4  UNL     1      -3.755   2.428   8.680  1.00  0.00     0.209 HD
ENDBRANCH  22  23
ENDBRANCH  11  22
TORSDOF 4
ENDMDL