MODEL 3
REMARK VINA RESULT: -6.408774801      4.055      6.388
REMARK  4 active torsions:
REMARK  status: ('A' for Active; 'I' for Inactive)
REMARK    1  A    between atoms: C7_12  and  N3_13
REMARK    2  A    between atoms: N3_13  and  C8_15
REMARK    3  A    between atoms: C8_15  and  C9_16
REMARK    4  A    between atoms: C9_16  and  N4_17
ROOT
HETATM    1  C1  UNL     1      -7.035   7.567  12.284  1.00  0.00     0.051 C
HETATM    2  C2  UNL     1      -5.659   7.482  11.646  1.00  0.00    -0.022 A
HETATM    3  C3  UNL     1      -5.404   8.256  10.543  1.00  0.00     0.059 A
HETATM    4 BR1  UNL     1      -6.545   9.488   9.629  1.00  0.00    -0.042 Br
HETATM    5  S1  UNL     1      -3.795   7.871  10.149  1.00  0.00    -0.079 SA
HETATM    6  C4  UNL     1      -3.485   6.739  11.392  1.00  0.00     0.046 A
HETATM    7  C5  UNL     1      -2.355   5.980  11.724  1.00  0.00     0.079 A
HETATM    8  N1  UNL     1      -1.188   6.110  10.932  1.00  0.00    -0.100 NA
HETATM    9  C6  UNL     1      -2.396   5.124  12.814  1.00  0.00     0.117 A
HETATM   10  N2  UNL     1      -3.549   5.095  13.476  1.00  0.00    -0.350 N
ATOM     11  H2  UNL     1      -3.604   4.471  14.281  1.00  0.00     0.166 HD
HETATM   12  C7  UNL     1      -4.649   5.808  13.185  1.00  0.00     0.113 A
HETATM   13  C14 UNL     1      -4.663   6.694  12.086  1.00  0.00     0.035 A
ENDROOT
BRANCH  12  14
HETATM   14  N3  UNL     1      -5.708   5.694  13.900  1.00  0.00    -0.374 N
ATOM     15  H3  UNL     1      -6.192   6.566  14.111  1.00  0.00     0.161 HD
BRANCH  14  16
HETATM   16  C8  UNL     1      -6.294   4.527  14.436  1.00  0.00     0.141 C
BRANCH  16  17
HETATM   17  C9  UNL     1      -6.031   4.531  15.948  1.00  0.00     0.146 C
BRANCH  17  18
HETATM   18  N4  UNL     1      -5.821   3.216  16.410  1.00  0.00    -0.368 N
HETATM   19  C10 UNL     1      -6.775   2.624  17.246  1.00  0.00     0.089 C
HETATM   20  C11 UNL     1      -6.725   1.132  17.355  1.00  0.00     0.212 C
HETATM   21  O1  UNL     1      -6.107   0.522  16.273  1.00  0.00    -0.381 OA
HETATM   22  C12 UNL     1      -4.815   0.990  16.202  1.00  0.00     0.212 C
HETATM   23  C13 UNL     1      -4.850   2.423  15.772  1.00  0.00     0.089 C
ENDBRANCH  17  18
ENDBRANCH  16  17
ENDBRANCH  14  16
ENDBRANCH  12  14
TORSDOF 4
ENDMDL