MODEL 5
REMARK VINA RESULT: -7.156285364      3.519      5.507
REMARK  2 active torsions:
REMARK  status: ('A' for Active; 'I' for Inactive)
REMARK    1  A    between atoms: C7_7  and  C8_8
REMARK       I    between atoms: C8_8  and  N1_10
REMARK    2  A    between atoms: C12_16  and  N3_17
ROOT
HETATM    1  C1  UNL     1      -1.967   8.164  14.722  1.00  0.00     0.013 C
HETATM    2  C2  UNL     1      -2.169   7.280  13.925  1.00  0.00    -0.107 C
HETATM    3  C3  UNL     1      -2.393   6.202  12.937  1.00  0.00     0.026 C
HETATM    4  C4  UNL     1      -1.139   5.947  12.144  1.00  0.00     0.027 C
HETATM    5  C5  UNL     1      -1.422   4.856  11.146  1.00  0.00    -0.009 C
HETATM    6  C6  UNL     1      -1.845   3.632  11.907  1.00  0.00     0.024 C
HETATM    7  C7  UNL     1      -3.133   3.890  12.658  1.00  0.00     0.046 C
HETATM    8  C10 UNL     1      -2.876   4.974  13.676  1.00  0.00     0.042 C
HETATM    9  C11 UNL     1      -4.201   4.402  11.721  1.00  0.00     0.052 C
HETATM   10  C12 UNL     1      -3.743   5.628  10.964  1.00  0.00     0.054 C
HETATM   11  C15 UNL     1      -2.506   5.296  10.194  1.00  0.00     0.037 C
HETATM   12  C16 UNL     1      -3.454   6.705  11.967  1.00  0.00     0.055 C
ENDROOT
BRANCH   7  13
HETATM   13  C8  UNL     1      -3.575   2.630  13.248  1.00  0.00     0.239 C
HETATM   14  O1  UNL     1      -3.433   1.569  12.569  1.00  0.00    -0.272 OA
HETATM   15  N1  UNL     1      -4.153   2.495  14.528  1.00  0.00    -0.263 N
HETATM   16  C9  UNL     1      -4.550   1.256  15.024  1.00  0.00     0.184 C
ATOM     17  H1  UNL     1      -4.283   3.326  15.104  1.00  0.00     0.181 HD
HETATM   18  N2  UNL     1      -4.902   0.219  15.434  1.00  0.00    -0.172 NA
ENDBRANCH   7  13
BRANCH  10  19
HETATM   19  N3  UNL     1      -4.828   6.024  10.092  1.00  0.00    -0.274 N
HETATM   20  C13 UNL     1      -5.518   7.186  10.176  1.00  0.00     0.147 A
HETATM   21  C14 UNL     1      -6.485   7.221   9.176  1.00  0.00     0.109 A
HETATM   22 BR1  UNL     1      -7.745   8.594   8.804  1.00  0.00    -0.029 Br
HETATM   23  N4  UNL     1      -6.336   6.059   8.518  1.00  0.00    -0.276 N
HETATM   24  N5  UNL     1      -5.355   5.367   9.074  1.00  0.00    -0.019 NA
ATOM     25  H4  UNL     1      -6.891   5.757   7.718  1.00  0.00     0.185 HD
ENDBRANCH  10  19
TORSDOF 2
ENDMDL