MODEL 2
REMARK VINA RESULT: -6.880685736      2.581      3.369
REMARK  6 active torsions:
REMARK  status: ('A' for Active; 'I' for Inactive)
REMARK    1  A    between atoms: C2_2  and  S1_3
REMARK    2  A    between atoms: C2_2  and  C11_19
REMARK    3  A    between atoms: S1_3  and  C3_4
REMARK    4  A    between atoms: C5_9  and  C6_10
REMARK    5  A    between atoms: C6_10  and  C7_11
REMARK       I    between atoms: C11_19  and  N4_21
REMARK    6  A    between atoms: N4_21  and  C12_23
ROOT
HETATM    1  C3  UNL     1       5.596  -0.212  22.045  1.00  0.00     0.148 A
HETATM    2  N1  UNL     1       6.937  -0.064  22.114  1.00  0.00    -0.326 N
ATOM      3  H1  UNL     1       7.585  -0.716  22.556  1.00  0.00     0.169 HD
HETATM    4  C4  UNL     1       7.279   1.094  21.497  1.00  0.00     0.128 A
HETATM    5 CL1  UNL     1       8.908   1.713  21.332  1.00  0.00    -0.062 Cl
HETATM    6  C5  UNL     1       6.120   1.681  21.034  1.00  0.00     0.058 A
HETATM    7  N3  UNL     1       5.115   0.861  21.384  1.00  0.00    -0.332 N
HETATM    8  C10 UNL     1       3.732   1.123  21.078  1.00  0.00     0.158 C
ENDROOT
BRANCH   1   9
HETATM    9  S1  UNL     1       4.597  -1.541  22.685  1.00  0.00    -0.080 SA
BRANCH   9  10
HETATM   10  C2  UNL     1       4.301  -2.804  21.411  1.00  0.00     0.143 C
HETATM   11  C1  UNL     1       5.409  -2.671  20.364  1.00  0.00     0.031 C
BRANCH  10  12
HETATM   12  C11 UNL     1       4.480  -4.169  22.008  1.00  0.00     0.232 C
HETATM   13  O1  UNL     1       4.229  -4.321  23.213  1.00  0.00    -0.272 OA
HETATM   14  N4  UNL     1       4.925  -5.267  21.229  1.00  0.00    -0.352 N
ATOM     15  H4  UNL     1       5.137  -5.151  20.238  1.00  0.00     0.163 HD
BRANCH  14  16
HETATM   16  C12 UNL     1       5.074  -6.555  21.870  1.00  0.00     0.022 C
HETATM   17  C13 UNL     1       5.862  -6.462  23.156  1.00  0.00     0.037 C
HETATM   18  C14 UNL     1       3.713  -7.124  22.157  1.00  0.00     0.037 C
HETATM   19  C15 UNL     1       5.849  -7.506  20.960  1.00  0.00     0.037 C
ENDBRANCH  14  16
ENDBRANCH  10  12
ENDBRANCH   9  10
ENDBRANCH   1   9
BRANCH   6  20
HETATM   20  C6  UNL     1       6.032   2.949  20.307  1.00  0.00     0.125 C
BRANCH  20  21
HETATM   21  C7  UNL     1       5.987   2.748  18.813  1.00  0.00     0.056 A
HETATM   22  N2  UNL     1       5.158   3.324  17.955  1.00  0.00    -0.363 N
HETATM   23  C8  UNL     1       5.245   3.046  16.694  1.00  0.00     0.095 A
ATOM     24  H2  UNL     1       4.454   3.985  18.286  1.00  0.00     0.165 HD
HETATM   25  C9  UNL     1       6.209   2.153  16.302  1.00  0.00     0.068 A
HETATM   26  S2  UNL     1       6.939   1.765  17.797  1.00  0.00    -0.087 SA
ENDBRANCH  20  21
ENDBRANCH   6  20
TORSDOF 6
ENDMDL