MODEL 2
REMARK VINA RESULT: -8.352590751      1.879      2.687
REMARK  8 active torsions:
REMARK  status: ('A' for Active; 'I' for Inactive)
REMARK    1  A    between atoms: O1_2  and  C2_3
REMARK    2  A    between atoms: C2_3  and  C3_5
REMARK    3  A    between atoms: C6_8  and  C7_9
REMARK    4  A    between atoms: C7_9  and  C8_11
REMARK    5  A    between atoms: C11_16  and  C12_17
REMARK    6  A    between atoms: C12_17  and  O4_18
REMARK    7  A    between atoms: C12_17  and  C13_20
REMARK    8  A    between atoms: C16_23  and  O5_24
ROOT
HETATM    1  C8  UNL     1       2.959   1.255  21.777  1.00  0.00     0.118 A
HETATM    2  N1  UNL     1       2.005   2.154  21.619  1.00  0.00    -0.354 N
ATOM      3  H1  UNL     1       1.643   2.445  20.711  1.00  0.00     0.166 HD
HETATM    4  C9  UNL     1       1.568   2.639  22.791  1.00  0.00     0.021 A
HETATM    5  C10 UNL     1       0.525   3.674  23.011  1.00  0.00     0.069 C
HETATM    6  C11 UNL     1       2.263   2.034  23.818  1.00  0.00     0.051 A
HETATM    7  C16 UNL     1       3.130   1.161  23.183  1.00  0.00     0.111 A
ENDROOT
BRANCH   1   8
HETATM    8  C7  UNL     1       3.750   0.485  20.863  1.00  0.00     0.215 C
HETATM    9  O3  UNL     1       3.681  -0.803  20.979  1.00  0.00    -0.285 OA
BRANCH   8  10
HETATM   10  C6  UNL     1       4.637   0.964  19.828  1.00  0.00     0.064 A
HETATM   11  C4  UNL     1       5.975   1.325  20.053  1.00  0.00    -0.011 A
HETATM   12  C3  UNL     1       6.553   1.808  18.926  1.00  0.00     0.118 A
HETATM   13  C5  UNL     1       6.638   1.128  21.369  1.00  0.00     0.052 C
HETATM   14  N2  UNL     1       5.608   1.760  17.967  1.00  0.00    -0.336 N
HETATM   15  C17 UNL     1       4.455   1.258  18.499  1.00  0.00     0.121 A
HETATM   16  C18 UNL     1       5.736   2.142  16.560  1.00  0.00     0.157 C
HETATM   17 CL1  UNL     1       2.966   1.159  17.577  1.00  0.00    -0.063 Cl
BRANCH  12  18
HETATM   18  C2  UNL     1       7.849   2.436  18.761  1.00  0.00     0.310 C
HETATM   19  O2  UNL     1       8.878   1.808  18.366  1.00  0.00    -0.258 OA
BRANCH  18  20
HETATM   20  O1  UNL     1       8.106   3.788  19.013  1.00  0.00    -0.321 OA
HETATM   21  C1  UNL     1       8.063   4.403  20.258  1.00  0.00     0.213 C
ENDBRANCH  18  20
ENDBRANCH  12  18
ENDBRANCH   8  10
ENDBRANCH   1   8
BRANCH   7  22
HETATM   22  O5  UNL     1       4.037   0.310  23.774  1.00  0.00    -0.357 OA
ATOM     23  H5  UNL     1       4.190  -0.578  23.470  1.00  0.00     0.217 HD
ENDBRANCH   7  22
BRANCH   6  24
HETATM   24  C12 UNL     1       2.123   2.264  25.245  1.00  0.00     0.061 C
BRANCH  24  25
HETATM   25  O4  UNL     1       1.050   2.924  25.567  1.00  0.00    -0.364 OA
ATOM     26  H4  UNL     1       1.170   3.518  26.299  1.00  0.00     0.217 HD
ENDBRANCH  24  25
BRANCH  24  27
HETATM   27  C13 UNL     1       2.958   1.891  26.355  1.00  0.00     0.035 C
HETATM   28  C14 UNL     1       2.333   0.968  27.357  1.00  0.00     0.016 C
HETATM   29  C15 UNL     1       3.690   3.054  27.014  1.00  0.00     0.016 C
ENDBRANCH  24  27
ENDBRANCH   6  24
TORSDOF 8
ENDMDL