MODEL 1
REMARK VINA RESULT: -8.723792289      0.000      0.000
REMARK  6 active torsions:
REMARK  status: ('A' for Active; 'I' for Inactive)
REMARK    1  A    between atoms: C2_2  and  N1_3
REMARK    2  A    between atoms: N1_3  and  C3_4
REMARK       I    between atoms: N1_3  and  C5_6
REMARK    3  A    between atoms: C5_6  and  C6_8
REMARK    4  A    between atoms: C6_8  and  C7_9
REMARK    5  A    between atoms: C12_20  and  C13_21
REMARK    6  A    between atoms: C16_29  and  C18_31
ROOT
HETATM    1  C7  UNL     1       3.222   1.312  20.908  1.00  0.00     0.063 A
HETATM    2  N2  UNL     1       2.417   1.087  19.873  1.00  0.00    -0.302 N
ATOM      3  H2  UNL     1       1.452   0.766  19.946  1.00  0.00     0.186 HD
HETATM    4  N3  UNL     1       3.044   1.339  18.738  1.00  0.00    -0.301 N
ATOM      5  H3  UNL     1       2.650   1.247  17.802  1.00  0.00     0.186 HD
HETATM    6  C8  UNL     1       4.293   1.739  19.033  1.00  0.00     0.068 A
HETATM    7  C9  UNL     1       4.449   1.740  20.378  1.00  0.00     0.082 A
HETATM    8  N4  UNL     1       5.650   2.169  20.943  1.00  0.00    -0.356 N
ATOM      9  H4  UNL     1       5.721   2.143  21.960  1.00  0.00     0.166 HD
HETATM   10  C10 UNL     1       6.659   2.589  20.305  1.00  0.00     0.017 C
HETATM   11  C11 UNL     1       7.856   2.998  21.064  1.00  0.00     0.069 C
HETATM   12  C12 UNL     1       6.594   2.725  18.845  1.00  0.00     0.033 C
HETATM   13  C16 UNL     1       5.446   2.094  18.165  1.00  0.00     0.048 C
HETATM   14  C17 UNL     1       4.876   3.039  17.087  1.00  0.00     0.029 C
ENDROOT
BRANCH   1  15
HETATM   15  C6  UNL     1       2.973   1.172  22.352  1.00  0.00     0.164 C
BRANCH  15  16
HETATM   16  C5  UNL     1       2.145   2.308  22.834  1.00  0.00     0.225 C
HETATM   17  N1  UNL     1       2.008   2.490  24.235  1.00  0.00    -0.353 N
HETATM   18  O1  UNL     1       1.591   3.072  22.021  1.00  0.00    -0.273 OA
BRANCH  17  19
HETATM   19  C2  UNL     1       1.213   3.580  24.718  1.00  0.00     0.121 C
HETATM   20  C1  UNL     1      -0.216   3.470  24.252  1.00  0.00     0.026 C
ENDBRANCH  17  19
BRANCH  17  21
HETATM   21  C3  UNL     1       2.639   1.619  25.204  1.00  0.00     0.121 C
HETATM   22  C4  UNL     1       2.631   2.213  26.596  1.00  0.00     0.026 C
ENDBRANCH  17  21
ENDBRANCH  15  16
ENDBRANCH   1  15
BRANCH  13  23
HETATM   23  C18 UNL     1       5.760   0.816  17.400  1.00  0.00     0.135 C
HETATM   24 CL1  UNL     1       5.385   0.951  15.668  1.00  0.00    -0.129 Cl
ENDBRANCH  13  23
BRANCH  12  25
HETATM   25  C13 UNL     1       7.888   2.510  18.178  1.00  0.00     0.181 A
HETATM   26  N5  UNL     1       8.718   1.469  18.278  1.00  0.00    -0.323 N
HETATM   27  C14 UNL     1       9.789   1.658  17.512  1.00  0.00     0.100 A
ATOM     28  H5  UNL     1       8.555   0.646  18.858  1.00  0.00     0.169 HD
HETATM   29  C15 UNL     1      10.982   0.794  17.287  1.00  0.00     0.091 C
HETATM   30  N6  UNL     1       9.597   2.865  16.925  1.00  0.00    -0.247 N
HETATM   31  O2  UNL     1       8.452   3.338  17.349  1.00  0.00    -0.218 OA
ATOM     32  H6  UNL     1      10.231   3.323  16.269  1.00  0.00     0.196 HD
ENDBRANCH  12  25
TORSDOF 6
ENDMDL