MODEL 4
REMARK VINA RESULT: -7.527034489      1.928      2.381
REMARK  7 active torsions:
REMARK  status: ('A' for Active; 'I' for Inactive)
REMARK    1  A    between atoms: O1_2  and  C2_3
REMARK    2  A    between atoms: C3_4  and  N1_5
REMARK       I    between atoms: N1_5  and  C4_7
REMARK    3  A    between atoms: C8_12  and  C9_13
REMARK    4  A    between atoms: C9_13  and  N2_15
REMARK    5  A    between atoms: N2_15  and  N3_16
REMARK    6  A    between atoms: N3_16  and  C11_18
REMARK    7  A    between atoms: C15_26  and  O3_27
ROOT
HETATM    1  C2  UNL     1       8.193   2.435  19.266  1.00  0.00     0.129 A
HETATM    2  C3  UNL     1       8.103   3.676  19.878  1.00  0.00     0.071 A
HETATM    3  C6  UNL     1       6.917   4.025  20.453  1.00  0.00     0.033 A
HETATM    4  C7  UNL     1       5.852   3.129  20.402  1.00  0.00     0.020 A
HETATM    5  C8  UNL     1       5.929   1.886  19.792  1.00  0.00     0.038 A
HETATM    6  C15 UNL     1       7.114   1.540  19.222  1.00  0.00     0.117 A
ENDROOT
BRANCH   5   7
HETATM    7  C9  UNL     1       4.718   1.052  19.736  1.00  0.00     0.118 C
HETATM    8  C10 UNL     1       3.948   0.851  18.482  1.00  0.00     0.088 C
BRANCH   7   9
HETATM    9  N2  UNL     1       4.311   0.530  20.769  1.00  0.00    -0.328 NA
BRANCH   9  10
HETATM   10  N3  UNL     1       3.899   0.003  21.815  1.00  0.00    -0.212 N
ATOM     11  H3  UNL     1       3.910  -1.017  21.827  1.00  0.00     0.204 HD
BRANCH  10  12
HETATM   12  C11 UNL     1       3.453   0.573  22.905  1.00  0.00     0.175 A
HETATM   13  N4  UNL     1       2.629   1.605  23.045  1.00  0.00    -0.337 N
HETATM   14  C12 UNL     1       2.315   2.011  24.243  1.00  0.00     0.036 A
ATOM     15  H4  UNL     1       2.245   2.074  22.224  1.00  0.00     0.168 HD
HETATM   16  C13 UNL     1       1.378   3.191  24.484  1.00  0.00     0.070 C
HETATM   17  C14 UNL     1       2.862   1.341  25.307  1.00  0.00     0.100 A
HETATM   18 CL1  UNL     1       2.615   1.670  27.033  1.00  0.00    -0.074 Cl
HETATM   19  S1  UNL     1       3.806   0.152  24.538  1.00  0.00    -0.038 SA
ENDBRANCH  10  12
ENDBRANCH   9  10
ENDBRANCH   7   9
ENDBRANCH   5   7
BRANCH   6  20
HETATM   20  O3  UNL     1       7.336   0.330  18.584  1.00  0.00    -0.352 OA
HETATM   21  C16 UNL     1       7.726  -0.764  19.431  1.00  0.00     0.210 C
ENDBRANCH   6  20
BRANCH   1  22
HETATM   22  O1  UNL     1       9.390   2.080  18.684  1.00  0.00    -0.351 OA
HETATM   23  C1  UNL     1       9.580   2.388  17.317  1.00  0.00     0.210 C
ENDBRANCH   1  22
BRANCH   2  24
HETATM   24  N1  UNL     1       9.215   4.543  19.882  1.00  0.00    -0.325 N
HETATM   25  C4  UNL     1      10.074   4.903  20.901  1.00  0.00     0.218 C
HETATM   26  C5  UNL     1      11.191   5.866  20.622  1.00  0.00     0.117 C
HETATM   27  O2  UNL     1      10.003   4.491  22.062  1.00  0.00    -0.274 OA
ATOM     28  H1  UNL     1       9.419   4.978  18.982  1.00  0.00     0.169 HD
ENDBRANCH   2  24
TORSDOF 7
ENDMDL