MODEL 5
REMARK VINA RESULT: -6.479924446      3.917      5.609
REMARK  7 active torsions:
REMARK  status: ('A' for Active; 'I' for Inactive)
REMARK    1  A    between atoms: C2_2  and  O1_3
REMARK    2  A    between atoms: O1_3  and  C3_4
REMARK    3  A    between atoms: C3_4  and  C4_6
REMARK    4  A    between atoms: C5_7  and  C6_8
REMARK    5  A    between atoms: C6_8  and  C7_10
REMARK    6  A    between atoms: C12_18  and  C13_19
REMARK    7  A    between atoms: N2_20  and  N3_22
REMARK       I    between atoms: N3_22  and  C14_23
ROOT
HETATM    1  C4  UNL     1       6.415  -0.138  19.132  1.00  0.00     0.092 A
HETATM    2  C5  UNL     1       6.225  -0.184  17.787  1.00  0.00     0.098 A
HETATM    3  N1  UNL     1       4.997   0.212  17.338  1.00  0.00    -0.343 N
ATOM      4  H1  UNL     1       4.802   0.197  16.337  1.00  0.00     0.167 HD
HETATM    5  C11 UNL     1       4.029   0.626  18.198  1.00  0.00     0.114 A
HETATM    6  S1  UNL     1       2.575   1.095  17.571  1.00  0.00    -0.059 SA
HETATM    7  C12 UNL     1       4.182   0.685  19.551  1.00  0.00     0.043 A
HETATM    8  C16 UNL     1       5.440   0.282  20.023  1.00  0.00     0.067 A
HETATM    9 CL1  UNL     1       5.739   0.316  21.744  1.00  0.00    -0.082 Cl
ENDROOT
BRANCH   7  10
HETATM   10  C13 UNL     1       3.187   1.097  20.515  1.00  0.00     0.137 C
HETATM   11  N2  UNL     1       3.162   2.248  21.065  1.00  0.00    -0.243 N
ATOM     12  H2  UNL     1       3.889   2.916  20.809  1.00  0.00     0.201 HD
BRANCH  11  13
HETATM   13  N3  UNL     1       2.233   2.637  21.966  1.00  0.00    -0.288 NA
HETATM   14  C14 UNL     1       1.324   3.016  22.845  1.00  0.00     0.308 C
HETATM   15  C15 UNL     1       1.573   2.685  24.326  1.00  0.00     0.137 C
HETATM   16  O4  UNL     1       0.210   3.647  22.679  1.00  0.00    -0.256 OA
ENDBRANCH  11  13
ENDBRANCH   7  10
BRANCH   1  17
HETATM   17  C3  UNL     1       7.705  -0.486  19.747  1.00  0.00     0.297 C
HETATM   18  O2  UNL     1       7.992  -1.567  20.261  1.00  0.00    -0.259 OA
BRANCH  17  19
HETATM   19  O1  UNL     1       8.647   0.525  19.735  1.00  0.00    -0.318 OA
BRANCH  19  20
HETATM   20  C2  UNL     1       8.996   1.403  20.736  1.00  0.00     0.174 C
HETATM   21  C1  UNL     1       8.278   2.700  20.749  1.00  0.00     0.034 C
ENDBRANCH  19  20
ENDBRANCH  17  19
ENDBRANCH   1  17
BRANCH   2  22
HETATM   22  C6  UNL     1       7.218  -0.661  16.875  1.00  0.00     0.184 C
HETATM   23  O3  UNL     1       7.344  -1.920  16.763  1.00  0.00    -0.290 OA
BRANCH  22  24
HETATM   24  C7  UNL     1       8.135   0.128  16.032  1.00  0.00     0.016 C
HETATM   25  C8  UNL     1       9.585  -0.312  16.356  1.00  0.00     0.023 C
HETATM   26  C9  UNL     1       7.970  -0.126  14.546  1.00  0.00     0.023 C
HETATM   27  C10 UNL     1       8.141   1.610  16.361  1.00  0.00     0.023 C
ENDBRANCH  22  24
ENDBRANCH   2  22
TORSDOF 7
ENDMDL