MODEL 3
REMARK VINA RESULT: -7.032157474      5.189      6.862
REMARK  7 active torsions:
REMARK  status: ('A' for Active; 'I' for Inactive)
REMARK       I    between atoms: C2_2  and  N1_4
REMARK    1  A    between atoms: N1_4  and  C3_6
REMARK    2  A    between atoms: C3_6  and  C4_7
REMARK    3  A    between atoms: C4_7  and  C5_8
REMARK    4  A    between atoms: C5_8  and  N2_9
REMARK    5  A    between atoms: N2_9  and  C6_11
REMARK    6  A    between atoms: C7_14  and  C8_15
REMARK    7  A    between atoms: C10_18  and  N4_19
ROOT
HETATM    1  C8  UNL     1       4.164  -0.414  23.660  1.00  0.00    -0.029 C
HETATM    2  C9  UNL     1       3.756   0.342  24.515  1.00  0.00     0.012 C
HETATM    3 CL1  UNL     1       3.176   1.395  25.755  1.00  0.00    -0.023 Cl
ENDROOT
BRANCH   1   4
HETATM    4  C7  UNL     1       4.634  -1.343  22.613  1.00  0.00     0.124 A
HETATM    5  N3  UNL     1       4.482  -2.635  22.705  1.00  0.00    -0.327 N
HETATM    6  C6  UNL     1       4.933  -3.408  21.718  1.00  0.00     0.147 A
ATOM      7  H3  UNL     1       4.025  -3.046  23.518  1.00  0.00     0.168 HD
HETATM    8  S3  UNL     1       5.597  -2.291  20.620  1.00  0.00    -0.033 SA
HETATM    9  C10 UNL     1       5.261  -0.864  21.485  1.00  0.00     0.121 A
BRANCH   6  10
HETATM   10  N2  UNL     1       4.886  -4.715  21.607  1.00  0.00    -0.370 N
ATOM     11  H2  UNL     1       5.432  -5.208  20.900  1.00  0.00     0.161 HD
BRANCH  10  12
HETATM   12  C5  UNL     1       4.021  -5.433  22.538  1.00  0.00     0.123 C
BRANCH  12  13
HETATM   13  C4  UNL     1       4.589  -6.794  22.875  1.00  0.00     0.039 C
BRANCH  13  14
HETATM   14  C3  UNL     1       5.417  -6.633  24.119  1.00  0.00     0.124 C
BRANCH  14  15
HETATM   15  N1  UNL     1       4.602  -6.078  25.167  1.00  0.00    -0.361 N
HETATM   16  C2  UNL     1       4.858  -6.315  26.525  1.00  0.00     0.213 C
HETATM   17  C1  UNL     1       3.950  -5.698  27.539  1.00  0.00     0.117 C
HETATM   18  O1  UNL     1       5.815  -7.018  26.880  1.00  0.00    -0.274 OA
ATOM     19  H1  UNL     1       3.809  -5.490  24.912  1.00  0.00     0.162 HD
ENDBRANCH  14  15
ENDBRANCH  13  14
ENDBRANCH  12  13
ENDBRANCH  10  12
ENDBRANCH   6  10
BRANCH   9  20
HETATM   20  N4  UNL     1       5.549   0.536  21.150  1.00  0.00    -0.292 N
HETATM   21  C11 UNL     1       6.640   1.168  21.494  1.00  0.00     0.022 A
HETATM   22  C12 UNL     1       7.744   0.476  22.300  1.00  0.00     0.069 C
HETATM   23  C13 UNL     1       6.770   2.479  21.107  1.00  0.00     0.077 A
HETATM   24  S1  UNL     1       5.316   2.754  20.264  1.00  0.00    -0.070 SA
HETATM   25  C14 UNL     1       4.631   1.206  20.446  1.00  0.00     0.150 A
HETATM   26  S2  UNL     1       3.166   0.679  19.874  1.00  0.00    -0.052 SA
ENDBRANCH   9  20
ENDBRANCH   1   4
TORSDOF 7
ENDMDL