MODEL 4
REMARK VINA RESULT: -7.881827094      4.253      6.008
REMARK  6 active torsions:
REMARK  status: ('A' for Active; 'I' for Inactive)
REMARK    1  A    between atoms: C2_2  and  C3_4
REMARK    2  A    between atoms: C9_12  and  N3_13
REMARK    3  A    between atoms: N3_13  and  C10_14
REMARK    4  A    between atoms: C11_17  and  C12_18
REMARK    5  A    between atoms: C15_21  and  C16_22
REMARK    6  A    between atoms: C16_22  and  C17_23
ROOT
HETATM    1  C3  UNL     1       4.133   0.457  23.145  1.00  0.00     0.101 A
HETATM    2  C4  UNL     1       4.167  -0.908  23.077  1.00  0.00     0.063 A
HETATM    3  C5  UNL     1       5.134  -1.467  22.232  1.00  0.00     0.073 A
HETATM    4  C6  UNL     1       5.217  -2.885  22.155  1.00  0.00     0.101 C
HETATM    5  N1  UNL     1       5.278  -4.048  22.049  1.00  0.00    -0.191 NA
HETATM    6  C7  UNL     1       5.967  -0.652  21.540  1.00  0.00     0.131 A
HETATM    7  C8  UNL     1       6.962  -1.244  20.663  1.00  0.00     0.106 C
HETATM    8  N2  UNL     1       7.761  -1.721  19.998  1.00  0.00    -0.191 NA
HETATM    9  C9  UNL     1       5.897   0.758  21.631  1.00  0.00     0.247 A
HETATM   10  O3  UNL     1       4.932   1.204  22.474  1.00  0.00    -0.280 OA
ENDROOT
BRANCH   1  11
HETATM   11  C2  UNL     1       3.120   1.048  24.030  1.00  0.00     0.058 C
HETATM   12  C1  UNL     1       3.149   0.751  25.334  1.00  0.00     0.039 C
HETATM   13 CL1  UNL     1       1.964   2.217  23.383  1.00  0.00    -0.082 Cl
ENDBRANCH   1  11
BRANCH   9  14
HETATM   14  N3  UNL     1       6.615   1.448  21.014  1.00  0.00    -0.354 NA
BRANCH  14  15
HETATM   15  C10 UNL     1       7.539   2.164  20.362  1.00  0.00     0.226 A
HETATM   16  N4  UNL     1       7.989   2.198  19.109  1.00  0.00    -0.327 N
HETATM   17  C11 UNL     1       8.840   3.076  18.718  1.00  0.00     0.029 A
ATOM     18  H4  UNL     1       7.649   1.506  18.442  1.00  0.00     0.169 HD
HETATM   19  C15 UNL     1       9.297   3.990  19.649  1.00  0.00     0.020 A
HETATM   20  S1  UNL     1       8.437   3.518  21.041  1.00  0.00    -0.041 SA
BRANCH  17  21
HETATM   21  C12 UNL     1       9.101   3.290  17.220  1.00  0.00     0.028 C
HETATM   22  C13 UNL     1       9.833   2.226  16.518  1.00  0.00     0.016 C
HETATM   23  C14 UNL     1       7.673   3.241  16.521  1.00  0.00     0.016 C
ENDBRANCH  17  21
BRANCH  19  24
HETATM   24  C16 UNL     1      10.384   5.015  19.576  1.00  0.00     0.161 C
BRANCH  24  25
HETATM   25  C17 UNL     1      10.085   6.008  20.626  1.00  0.00     0.177 C
HETATM   26  O1  UNL     1       9.252   6.899  20.628  1.00  0.00    -0.648 OA
HETATM   27  O2  UNL     1      10.924   5.878  21.785  1.00  0.00    -0.648 OA
ENDBRANCH  24  25
ENDBRANCH  19  24
ENDBRANCH  14  15
ENDBRANCH   9  14
TORSDOF 6
ENDMDL