MODEL 1
REMARK VINA RESULT: -8.199897951      0.000      0.000
REMARK  7 active torsions:
REMARK  status: ('A' for Active; 'I' for Inactive)
REMARK    1  A    between atoms: C2_2  and  C4_4
REMARK    2  A    between atoms: C4_4  and  C5_6
REMARK    3  A    between atoms: C8_10  and  N1_11
REMARK    4  A    between atoms: C12_15  and  S1_16
REMARK    5  A    between atoms: S1_16  and  C13_17
REMARK    6  A    between atoms: C15_20  and  O2_21
REMARK    7  A    between atoms: C17_24  and  O3_25
ROOT
HETATM    1  C5  UNL     1       4.210  -0.336  22.463  1.00  0.00     0.029 A
HETATM    2  C6  UNL     1       4.024  -0.189  23.838  1.00  0.00     0.042 A
HETATM    3  C7  UNL     1       3.195   0.819  24.311  1.00  0.00     0.061 A
HETATM    4 CL1  UNL     1       2.981   0.980  26.055  1.00  0.00    -0.082 Cl
HETATM    5  C8  UNL     1       2.565   1.660  23.430  1.00  0.00     0.052 A
HETATM    6  C11 UNL     1       2.767   1.491  22.082  1.00  0.00     0.050 A
HETATM    7  C12 UNL     1       3.584   0.502  21.570  1.00  0.00     0.018 A
ENDROOT
BRANCH   7   8
HETATM    8  S1  UNL     1       3.743   0.410  19.811  1.00  0.00    -0.111 SA
BRANCH   8   9
HETATM    9  C13 UNL     1       4.969   1.475  19.097  1.00  0.00     0.142 C
HETATM   10  S2  UNL     1       6.665   0.778  19.274  1.00  0.00    -0.148 SA
HETATM   11  C14 UNL     1       7.779   2.127  18.785  1.00  0.00     0.107 C
HETATM   12  C15 UNL     1       7.003   2.974  17.782  1.00  0.00     0.130 C
HETATM   13  C16 UNL     1       6.105   2.077  16.960  1.00  0.00     0.066 C
HETATM   14  C17 UNL     1       4.803   1.773  17.651  1.00  0.00     0.144 C
BRANCH  12  15
HETATM   15  O2  UNL     1       7.918   3.547  16.900  1.00  0.00    -0.395 OA
ATOM     16  H2  UNL     1       7.434   3.907  16.166  1.00  0.00     0.210 HD
ENDBRANCH  12  15
BRANCH  14  17
HETATM   17  O3  UNL     1       3.955   2.855  17.436  1.00  0.00    -0.394 OA
ATOM     18  H3  UNL     1       3.474   2.774  16.621  1.00  0.00     0.210 HD
ENDBRANCH  14  17
ENDBRANCH   8   9
ENDBRANCH   7   8
BRANCH   1  19
HETATM   19  C4  UNL     1       5.030  -1.415  21.992  1.00  0.00     0.164 C
HETATM   20  O1  UNL     1       6.296  -1.347  22.172  1.00  0.00    -0.292 OA
BRANCH  19  21
HETATM   21  C2  UNL     1       4.567  -2.637  21.298  1.00  0.00     0.052 C
HETATM   22  C1  UNL     1       5.376  -3.031  20.109  1.00  0.00     0.018 C
HETATM   23  C3  UNL     1       4.501  -3.797  22.262  1.00  0.00     0.018 C
ENDBRANCH  19  21
ENDBRANCH   1  19
BRANCH   5  24
HETATM   24  N1  UNL     1       1.719   2.683  23.932  1.00  0.00    -0.388 N
HETATM   25  C9  UNL     1       0.766   3.297  23.046  1.00  0.00     0.149 C
HETATM   26  C10 UNL     1       1.792   3.120  25.302  1.00  0.00     0.149 C
ENDBRANCH   5  24
TORSDOF 7
ENDMDL