MODEL 4
REMARK VINA RESULT: -7.756431665      3.089      6.328
REMARK  7 active torsions:
REMARK  status: ('A' for Active; 'I' for Inactive)
REMARK    1  A    between atoms: C2_2  and  O1_3
REMARK    2  A    between atoms: O1_3  and  C3_4
REMARK    3  A    between atoms: C3_4  and  C4_6
REMARK    4  A    between atoms: C7_11  and  C8_12
REMARK    5  A    between atoms: C8_12  and  O4_14
REMARK    6  A    between atoms: O4_14  and  C9_15
REMARK    7  A    between atoms: C11_17  and  C12_18
ROOT
HETATM    1  C4  UNL     1       3.184   1.274  20.327  1.00  0.00     0.122 A
HETATM    2  N1  UNL     1       2.388   1.127  19.208  1.00  0.00    -0.353 N
ATOM      3  H1  UNL     1       1.380   1.281  19.180  1.00  0.00     0.166 HD
HETATM    4  C5  UNL     1       3.135   0.753  18.175  1.00  0.00     0.023 A
HETATM    5  C6  UNL     1       2.712   0.478  16.768  1.00  0.00     0.069 C
HETATM    6  C7  UNL     1       4.460   0.636  18.567  1.00  0.00     0.076 A
HETATM    7  C11 UNL     1       4.463   0.966  19.929  1.00  0.00     0.043 A
ENDROOT
BRANCH   7   8
HETATM    8  C12 UNL     1       5.651   0.804  20.769  1.00  0.00     0.064 A
HETATM    9  C13 UNL     1       6.689   1.677  20.991  1.00  0.00     0.070 A
HETATM   10  C14 UNL     1       7.558   1.179  21.970  1.00  0.00     0.096 A
HETATM   11 BR1  UNL     1       9.146   1.996  22.641  1.00  0.00    -0.030 Br
HETATM   12  N2  UNL     1       7.031   0.020  22.321  1.00  0.00    -0.293 N
HETATM   13  N3  UNL     1       5.918  -0.216  21.631  1.00  0.00    -0.299 N
ATOM     14  H2  UNL     1       7.423  -0.608  23.022  1.00  0.00     0.187 HD
ATOM     15  H3  UNL     1       5.341  -1.050  21.735  1.00  0.00     0.187 HD
ENDBRANCH   7   8
BRANCH   1  16
HETATM   16  C3  UNL     1       2.697   1.729  21.615  1.00  0.00     0.311 C
HETATM   17  O2  UNL     1       1.927   2.657  21.867  1.00  0.00    -0.258 OA
BRANCH  16  18
HETATM   18  O1  UNL     1       3.141   1.041  22.769  1.00  0.00    -0.317 OA
BRANCH  18  19
HETATM   19  C2  UNL     1       2.710   1.454  24.077  1.00  0.00     0.175 C
HETATM   20  C1  UNL     1       3.420   0.615  25.137  1.00  0.00     0.034 C
ENDBRANCH  18  19
ENDBRANCH  16  18
ENDBRANCH   1  16
BRANCH   6  21
HETATM   21  C8  UNL     1       5.582   0.224  17.753  1.00  0.00     0.296 C
HETATM   22  O3  UNL     1       5.867  -0.982  17.485  1.00  0.00    -0.259 OA
BRANCH  21  23
HETATM   23  O4  UNL     1       6.447   1.173  17.196  1.00  0.00    -0.318 OA
BRANCH  23  24
HETATM   24  C9  UNL     1       5.949   2.165  16.292  1.00  0.00     0.174 C
HETATM   25  C10 UNL     1       5.977   3.492  16.974  1.00  0.00     0.034 C
ENDBRANCH  23  24
ENDBRANCH  21  23
ENDBRANCH   6  21
TORSDOF 7
ENDMDL