MODEL 4
REMARK VINA RESULT: -7.431841284      3.028      9.260
REMARK  6 active torsions:
REMARK  status: ('A' for Active; 'I' for Inactive)
REMARK    1  A    between atoms: O1_2  and  C2_3
REMARK    2  A    between atoms: C2_3  and  C3_5
REMARK    3  A    between atoms: C5_7  and  N1_8
REMARK       I    between atoms: N1_8  and  C6_10
REMARK    4  A    between atoms: C6_10  and  C7_12
REMARK    5  A    between atoms: C8_14  and  C9_15
REMARK    6  A    between atoms: C9_15  and  C10_16
ROOT
HETATM    1  N1  UNL     1       4.771   1.489  20.141  1.00  0.00    -0.317 N
ATOM      2  H1  UNL     1       5.076   2.398  20.489  1.00  0.00     0.169 HD
HETATM    3  C6  UNL     1       3.878   0.782  20.915  1.00  0.00     0.264 C
HETATM    4  O3  UNL     1       3.478  -0.366  20.472  1.00  0.00    -0.267 OA
ENDROOT
BRANCH   1   5
HETATM    5  C5  UNL     1       5.313   1.044  18.866  1.00  0.00     0.079 A
HETATM    6  C4  UNL     1       6.393   0.278  18.563  1.00  0.00     0.057 A
HETATM    7  C3  UNL     1       6.626  -0.003  17.265  1.00  0.00     0.070 A
HETATM    8  C14 UNL     1       5.751   0.501  16.343  1.00  0.00     0.092 A
HETATM    9  S2  UNL     1       4.651   1.349  17.309  1.00  0.00    -0.059 SA
HETATM   10 CL1  UNL     1       5.820   0.286  14.578  1.00  0.00    -0.075 Cl
BRANCH   7  11
HETATM   11  C2  UNL     1       7.799  -0.844  16.849  1.00  0.00     0.295 C
HETATM   12  O2  UNL     1       8.803  -0.472  16.343  1.00  0.00    -0.259 OA
BRANCH  11  13
HETATM   13  O1  UNL     1       7.650  -2.261  17.115  1.00  0.00    -0.322 OA
HETATM   14  C1  UNL     1       8.855  -3.007  17.233  1.00  0.00     0.213 C
ENDBRANCH  11  13
ENDBRANCH   7  11
ENDBRANCH   1   5
BRANCH   3  15
HETATM   15  C7  UNL     1       3.303   1.173  22.212  1.00  0.00     0.079 A
HETATM   16  S1  UNL     1       2.173   2.459  22.458  1.00  0.00    -0.088 SA
HETATM   17  C8  UNL     1       1.923   2.352  24.108  1.00  0.00    -0.006 A
HETATM   18  C11 UNL     1       2.729   1.299  24.456  1.00  0.00     0.023 A
HETATM   19  C12 UNL     1       3.447   0.679  23.493  1.00  0.00    -0.038 A
HETATM   20  C13 UNL     1       4.377  -0.481  23.821  1.00  0.00     0.050 C
BRANCH  17  21
HETATM   21  C9  UNL     1       1.081   3.160  25.066  1.00  0.00     0.159 C
BRANCH  21  22
HETATM   22  C10 UNL     1       0.272   4.155  24.359  1.00  0.00     0.177 C
HETATM   23  O4  UNL     1       0.604   5.344  24.226  1.00  0.00    -0.648 OA
HETATM   24  O5  UNL     1      -0.945   3.736  23.803  1.00  0.00    -0.648 OA
ENDBRANCH  21  22
ENDBRANCH  17  21
ENDBRANCH   3  15
TORSDOF 6
ENDMDL