MODEL 5
REMARK VINA RESULT: -6.492705525      0.591      1.968
REMARK  14 active torsions:
REMARK  status: ('A' for Active; 'I' for Inactive)
REMARK    1  A    between atoms: C2_3  and  C3_4
REMARK    2  A    between atoms: C2_3  and  C6_11
REMARK    3  A    between atoms: C3_4  and  C4_5
REMARK    4  A    between atoms: C4_5  and  C5_6
REMARK    5  A    between atoms: C5_6  and  N2_7
REMARK    6  A    between atoms: C6_11  and  O1_12
REMARK    7  A    between atoms: N3_14  and  C7_16
REMARK    8  A    between atoms: C10_20  and  C11_21
REMARK    9  A    between atoms: C11_21  and  N5_22
REMARK   10  A    between atoms: C13_24  and  N6_25
REMARK   11  A    between atoms: C14_30  and  N8_31
REMARK   12  A    between atoms: N10_39  and  C17_40
REMARK   13  A    between atoms: C17_40  and  C18_41
REMARK   14  A    between atoms: C18_41  and  C19_42
ROOT
HETATM    1  C1  UNL     1      27.987  -0.800  -0.507  1.00  0.00     0.229 C
HETATM    2  N1  UNL     1      28.919  -1.743  -0.741  1.00  0.00    -0.429 NA
HETATM    3  C2  UNL     1      29.742  -2.576  -0.948  1.00  0.00     0.133 C
ENDROOT
BRANCH   3   4
HETATM    4  C3  UNL     1      31.080  -2.003  -1.535  1.00  0.00     0.079 C
BRANCH   4   5
HETATM    5  C4  UNL     1      32.223  -2.242  -0.637  1.00  0.00     0.034 C
BRANCH   5   6
HETATM    6  C5  UNL     1      33.313  -3.081  -1.224  1.00  0.00     0.230 C
BRANCH   6   7
HETATM    7  N2  UNL     1      33.136  -4.492  -0.911  1.00  0.00    -0.079 N
ATOM      8  H23 UNL     1      32.500  -4.942  -1.569  1.00  0.00     0.274 HD
ATOM      9  H22 UNL     1      33.980  -5.026  -1.114  1.00  0.00     0.274 HD
ATOM     10  H21 UNL     1      32.832  -4.631   0.053  1.00  0.00     0.274 HD
ENDBRANCH   6   7
ENDBRANCH   5   6
ENDBRANCH   4   5
ENDBRANCH   3   4
BRANCH   3  11
HETATM   11  C6  UNL     1      29.803  -4.022  -0.849  1.00  0.00     0.179 C
HETATM   12  N3  UNL     1      29.730  -4.975   0.096  1.00  0.00    -0.320 N
ATOM     13  H3  UNL     1      29.848  -5.903  -0.312  1.00  0.00     0.169 HD
BRANCH  11  14
HETATM   14  O1  UNL     1      29.994  -4.594  -2.083  1.00  0.00    -0.344 OA
ATOM     15  H1  UNL     1      29.261  -4.417  -2.660  1.00  0.00     0.219 HD
ENDBRANCH  11  14
BRANCH  12  16
HETATM   16  C7  UNL     1      29.537  -5.060   1.481  1.00  0.00     0.124 A
HETATM   17  C8  UNL     1      29.394  -6.121   2.290  1.00  0.00     0.140 A
HETATM   18  N4  UNL     1      29.217  -5.646   3.569  1.00  0.00    -0.346 N
HETATM   19  C9  UNL     1      29.052  -6.526   4.737  1.00  0.00     0.157 C
HETATM   20  C10 UNL     1      29.242  -4.343   3.592  1.00  0.00     0.104 A
HETATM   21  N12 UNL     1      29.441  -3.966   2.306  1.00  0.00    -0.329 N
ATOM     22  H12 UNL     1      29.510  -2.998   1.991  1.00  0.00     0.168 HD
BRANCH  20  23
HETATM   23  C11 UNL     1      29.077  -3.310   4.621  1.00  0.00     0.226 C
BRANCH  23  24
HETATM   24  N5  UNL     1      29.004  -1.950   4.235  1.00  0.00    -0.274 N
HETATM   25  C12 UNL     1      30.069  -1.115   4.047  1.00  0.00     0.128 A
HETATM   26  C13 UNL     1      31.430  -1.238   4.287  1.00  0.00     0.145 A
HETATM   27  C15 UNL     1      29.571   0.079   3.531  1.00  0.00     0.150 A
HETATM   28  N7  UNL     1      32.205  -0.178   3.999  1.00  0.00    -0.175 N
HETATM   29  C14 UNL     1      31.717   0.976   3.498  1.00  0.00     0.678 A
ATOM     30  H7  UNL     1      33.209  -0.250   4.167  1.00  0.00     0.186 HD
HETATM   31  N9  UNL     1      30.405   1.123   3.258  1.00  0.00    -0.184 N
ATOM     32  H9  UNL     1      30.040   1.997   2.879  1.00  0.00     0.184 HD
HETATM   33  C16 UNL     1      28.211  -0.045   3.418  1.00  0.00     0.292 A
HETATM   34  O2  UNL     1      27.415   0.839   2.986  1.00  0.00    -0.264 OA
HETATM   35  N10 UNL     1      27.910  -1.285   3.857  1.00  0.00    -0.252 N
BRANCH  26  36
HETATM   36  N6  UNL     1      31.951  -2.299   4.777  1.00  0.00    -0.383 N
ATOM     37  H62 UNL     1      32.603  -2.235   5.559  1.00  0.00     0.157 HD
ATOM     38  H61 UNL     1      31.730  -3.232   4.427  1.00  0.00     0.157 HD
ENDBRANCH  26  36
BRANCH  29  39
HETATM   39  N8  UNL     1      32.503   1.956   3.242  1.00  0.00    -0.234 N
ATOM     40  H82 UNL     1      33.004   2.397   4.013  1.00  0.00     0.174 HD
ATOM     41  H81 UNL     1      32.622   2.285   2.284  1.00  0.00     0.174 HD
ENDBRANCH  29  39
BRANCH  35  42
HETATM   42  C17 UNL     1      26.575  -1.773   3.827  1.00  0.00     0.161 C
BRANCH  42  43
HETATM   43  C18 UNL     1      26.187  -2.712   2.738  1.00  0.00     0.121 C
BRANCH  43  44
HETATM   44  C19 UNL     1      25.235  -3.771   2.963  1.00  0.00     0.232 C
HETATM   45  N11 UNL     1      25.599  -4.874   3.796  1.00  0.00    -0.062 NA
HETATM   46  O3  UNL     1      24.101  -3.815   2.485  1.00  0.00    -0.277 OA
ENDBRANCH  43  44
ENDBRANCH  42  43
ENDBRANCH  35  42
ENDBRANCH  23  24
ENDBRANCH  20  23
ENDBRANCH  12  16
ENDBRANCH   3  11
TORSDOF 14
ENDMDL