MODEL 4
REMARK VINA RESULT: -6.191225931      3.002      6.380
REMARK  13 active torsions:
REMARK  status: ('A' for Active; 'I' for Inactive)
REMARK       I    between atoms: C1_4  and  N3_6
REMARK    1  A    between atoms: N3_6  and  O1_8
REMARK    2  A    between atoms: O1_8  and  C2_9
REMARK    3  A    between atoms: C2_9  and  C3_10
REMARK    4  A    between atoms: C3_10  and  N4_11
REMARK    5  A    between atoms: N4_11  and  N5_12
REMARK    6  A    between atoms: N4_11  and  C4_15
REMARK    7  A    between atoms: N6_17  and  C6_18
REMARK    8  A    between atoms: C7_21  and  N8_22
REMARK    9  A    between atoms: C9_28  and  C10_29
REMARK   10  A    between atoms: N10_35  and  C15_36
REMARK   11  A    between atoms: C15_36  and  C16_37
REMARK   12  A    between atoms: C16_37  and  C17_38
REMARK   13  A    between atoms: C17_38  and  N11_39
ROOT
HETATM    1  C6  UNL     1      31.460  -5.511   1.137  1.00  0.00     0.137 A
HETATM    2  N7  UNL     1      32.440  -6.332   0.647  1.00  0.00    -0.176 N
ATOM      3  H7  UNL     1      33.004  -6.000  -0.136  1.00  0.00     0.186 HD
HETATM    4  C7  UNL     1      32.695  -7.538   1.143  1.00  0.00     0.677 A
HETATM    5  N9  UNL     1      31.964  -7.978   2.164  1.00  0.00    -0.190 N
ATOM      6  H9  UNL     1      32.164  -8.905   2.541  1.00  0.00     0.184 HD
HETATM    7  C8  UNL     1      30.976  -7.260   2.724  1.00  0.00     0.081 A
HETATM    8  C9  UNL     1      30.229  -7.721   3.776  1.00  0.00     0.020 A
HETATM    9  C14 UNL     1      29.221  -6.928   4.311  1.00  0.00     0.108 A
HETATM   10  N10 UNL     1      28.959  -5.715   3.820  1.00  0.00    -0.323 N
HETATM   11  C18 UNL     1      29.718  -5.285   2.775  1.00  0.00     0.263 A
HETATM   12  O3  UNL     1      29.432  -4.146   2.353  1.00  0.00    -0.267 OA
HETATM   13  C19 UNL     1      30.724  -5.992   2.190  1.00  0.00     0.105 A
ENDROOT
BRANCH   1  14
HETATM   14  N6  UNL     1      31.246  -4.243   0.564  1.00  0.00    -0.363 N
HETATM   15  C5  UNL     1      30.551  -3.694  -0.560  1.00  0.00     0.147 C
HETATM   16  C4  UNL     1      31.273  -2.379  -0.448  1.00  0.00     0.115 C
HETATM   17  C20 UNL     1      31.737  -2.931   0.883  1.00  0.00     0.147 C
BRANCH  16  18
HETATM   18  N4  UNL     1      30.445  -1.217  -0.312  1.00  0.00    -0.228 NA
BRANCH  18  19
HETATM   19  C3  UNL     1      29.311  -1.146  -1.167  1.00  0.00     0.142 C
BRANCH  19  20
HETATM   20  C2  UNL     1      27.974  -1.207  -0.518  1.00  0.00     0.217 C
BRANCH  20  21
HETATM   21  O1  UNL     1      27.824  -0.486   0.634  1.00  0.00    -0.277 OA
BRANCH  21  22
HETATM   22  N3  UNL     1      28.367  -1.068   1.701  1.00  0.00    -0.239 N
HETATM   23  C1  UNL     1      28.997  -0.364   2.768  1.00  0.00     0.205 C
HETATM   24  N1  UNL     1      30.246  -0.051   2.635  1.00  0.00    -0.372 N
HETATM   25  N2  UNL     1      28.302  -0.008   3.949  1.00  0.00    -0.062 NA
ATOM     26  H12 UNL     1      30.697   0.452   3.399  1.00  0.00     0.158 HD
ATOM     27  H11 UNL     1      30.747  -0.308   1.784  1.00  0.00     0.158 HD
ATOM     28  H3  UNL     1      28.331  -2.085   1.758  1.00  0.00     0.197 HD
ENDBRANCH  21  22
ENDBRANCH  20  21
ENDBRANCH  19  20
ENDBRANCH  18  19
BRANCH  18  29
HETATM   29  N5  UNL     1      31.213  -0.066  -0.495  1.00  0.00    -0.363 NA
ATOM     30  H52 UNL     1      31.715  -0.124  -1.381  1.00  0.00     0.171 HD
ATOM     31  H51 UNL     1      30.613   0.748  -0.367  1.00  0.00     0.171 HD
ENDBRANCH  18  29
ENDBRANCH  16  18
ENDBRANCH   1  14
BRANCH   4  32
HETATM   32  N8  UNL     1      33.620  -8.258   0.648  1.00  0.00    -0.234 N
ATOM     33  H82 UNL     1      34.236  -7.889  -0.075  1.00  0.00     0.174 HD
ATOM     34  H81 UNL     1      33.759  -9.216   0.968  1.00  0.00     0.174 HD
ENDBRANCH   4  32
BRANCH   8  35
HETATM   35  C10 UNL     1      30.533  -9.037   4.288  1.00  0.00     0.002 A
HETATM   36  C11 UNL     1      31.538  -9.344   5.173  1.00  0.00     0.039 A
HETATM   37  C12 UNL     1      31.486 -10.714   5.405  1.00  0.00     0.142 A
HETATM   38  O2  UNL     1      30.497 -11.203   4.692  1.00  0.00    -0.334 OA
HETATM   39  C13 UNL     1      29.901 -10.228   4.007  1.00  0.00     0.153 A
ENDBRANCH   8  35
BRANCH  10  40
HETATM   40  C15 UNL     1      27.905  -4.893   4.381  1.00  0.00     0.133 C
BRANCH  40  41
HETATM   41  C16 UNL     1      26.544  -5.227   3.870  1.00  0.00     0.047 C
BRANCH  41  42
HETATM   42  C17 UNL     1      25.986  -3.970   3.220  1.00  0.00     0.231 C
BRANCH  42  43
HETATM   43  N11 UNL     1      26.365  -3.859   1.837  1.00  0.00    -0.079 N
ATOM     44 3H11 UNL     1      26.889  -3.000   1.667  1.00  0.00     0.274 HD
ATOM     45 2H11 UNL     1      27.087  -4.539   1.597  1.00  0.00     0.274 HD
ATOM     46 1H11 UNL     1      25.565  -3.932   1.210  1.00  0.00     0.274 HD
ENDBRANCH  42  43
ENDBRANCH  41  42
ENDBRANCH  40  41
ENDBRANCH  10  40
TORSDOF 13
ENDMDL