MODEL 4
REMARK VINA RESULT: -5.585782116      4.737      9.660
REMARK  17 active torsions:
REMARK  status: ('A' for Active; 'I' for Inactive)
REMARK    1  A    between atoms: N1_2  and  C2_4
REMARK    2  A    between atoms: C3_7  and  S1_8
REMARK    3  A    between atoms: S1_8  and  C4_9
REMARK    4  A    between atoms: C4_9  and  C5_10
REMARK    5  A    between atoms: C5_10  and  C6_11
REMARK    6  A    between atoms: C5_10  and  C18_38
REMARK    7  A    between atoms: C6_11  and  C7_12
REMARK    8  A    between atoms: C7_12  and  C8_13
REMARK    9  A    between atoms: C10_15  and  C11_16
REMARK   10  A    between atoms: C11_16  and  O1_17
REMARK   11  A    between atoms: O1_17  and  C12_18
REMARK       I    between atoms: C12_18  and  N3_20
REMARK   12  A    between atoms: N3_20  and  C13_22
REMARK   13  A    between atoms: C13_22  and  C14_23
REMARK   14  A    between atoms: C14_23  and  N4_24
REMARK   15  A    between atoms: C15_28  and  C16_29
REMARK   16  A    between atoms: C16_29  and  N5_30
REMARK   17  A    between atoms: C18_38  and  N7_39
ROOT
HETATM    1  C8  UNL     1      26.248   0.596   4.367  1.00  0.00     0.086 A
HETATM    2  C9  UNL     1      27.284   0.550   3.486  1.00  0.00     0.037 A
HETATM    3  C10 UNL     1      27.720  -0.595   2.870  1.00  0.00    -0.008 A
HETATM    4  C15 UNL     1      27.006  -1.790   3.218  1.00  0.00     0.046 A
HETATM    5  N6  UNL     1      25.995  -1.796   4.076  1.00  0.00    -0.324 N
ATOM      6  H6  UNL     1      25.518  -2.670   4.301  1.00  0.00     0.169 HD
HETATM    7  C17 UNL     1      25.600  -0.635   4.654  1.00  0.00     0.264 A
HETATM    8  O3  UNL     1      24.672  -0.601   5.438  1.00  0.00    -0.267 OA
ENDROOT
BRANCH   1   9
HETATM    9  C7  UNL     1      25.737   1.793   4.958  1.00  0.00    -0.061 C
BRANCH   9  10
HETATM   10  C6  UNL     1      25.293   2.852   5.397  1.00  0.00    -0.094 C
BRANCH  10  11
HETATM   11  C5  UNL     1      24.743   4.115   5.816  1.00  0.00     0.100 C
BRANCH  11  12
HETATM   12  C4  UNL     1      23.245   4.032   6.049  1.00  0.00     0.101 C
BRANCH  12  13
HETATM   13  S1  UNL     1      23.062   3.341   7.752  1.00  0.00    -0.091 SA
BRANCH  13  14
HETATM   14  C3  UNL     1      22.723   1.622   7.821  1.00  0.00     0.160 A
HETATM   15  N2  UNL     1      22.756   0.907   8.983  1.00  0.00    -0.319 N
HETATM   16  C2  UNL     1      22.398  -0.377   9.035  1.00  0.00     0.146 A
ATOM     17  H2  UNL     1      23.064   1.369   9.839  1.00  0.00     0.169 HD
HETATM   18  C19 UNL     1      21.971  -1.024   7.846  1.00  0.00     0.175 A
HETATM   19  N9  UNL     1      21.959  -0.286   6.753  1.00  0.00    -0.283 N
HETATM   20  N10 UNL     1      21.542  -2.354   7.902  1.00  0.00    -0.077 NA
HETATM   21  N8  UNL     1      22.308   0.965   6.715  1.00  0.00    -0.278 N
ATOM     22  H9  UNL     1      21.655  -0.725   5.884  1.00  0.00     0.188 HD
ATOM     23  H8  UNL     1      22.269   1.465   5.827  1.00  0.00     0.189 HD
BRANCH  16  24
HETATM   24  N1  UNL     1      22.358  -1.055  10.084  1.00  0.00    -0.378 N
HETATM   25  C1  UNL     1      23.191  -1.211  11.195  1.00  0.00     0.147 C
ATOM     26  H1  UNL     1      21.518  -1.630  10.144  1.00  0.00     0.160 HD
ENDBRANCH  16  24
ENDBRANCH  13  14
ENDBRANCH  12  13
ENDBRANCH  11  12
BRANCH  11  27
HETATM   27  C18 UNL     1      25.410   4.600   7.122  1.00  0.00     0.247 C
BRANCH  27  28
HETATM   28  N7  UNL     1      26.835   4.660   6.993  1.00  0.00    -0.078 N
ATOM     29  H73 UNL     1      27.121   4.676   6.015  1.00  0.00     0.274 HD
ATOM     30  H72 UNL     1      27.198   5.570   7.278  1.00  0.00     0.274 HD
ATOM     31  H71 UNL     1      27.289   3.902   7.502  1.00  0.00     0.274 HD
ENDBRANCH  27  28
ENDBRANCH  11  27
ENDBRANCH  10  11
ENDBRANCH   9  10
ENDBRANCH   1   9
BRANCH   3  32
HETATM   32  C11 UNL     1      28.654  -0.727   1.750  1.00  0.00     0.221 C
BRANCH  32  33
HETATM   33  O1  UNL     1      28.051  -0.558   0.471  1.00  0.00    -0.299 OA
BRANCH  33  34
HETATM   34  C12 UNL     1      28.585  -1.324  -0.585  1.00  0.00     0.364 C
HETATM   35  O2  UNL     1      27.723  -1.938  -1.275  1.00  0.00    -0.238 OA
HETATM   36  N3  UNL     1      29.961  -1.370  -0.760  1.00  0.00    -0.315 N
ATOM     37  H3  UNL     1      30.490  -0.764  -0.132  1.00  0.00     0.170 HD
BRANCH  36  38
HETATM   38  C13 UNL     1      30.748  -2.114  -1.660  1.00  0.00     0.093 C
BRANCH  38  39
HETATM   39  C14 UNL     1      30.866  -3.553  -1.182  1.00  0.00     0.274 C
BRANCH  39  40
HETATM   40  N4  UNL     1      29.816  -4.409  -1.638  1.00  0.00    -0.075 N
ATOM     41  H43 UNL     1      29.563  -5.082  -0.914  1.00  0.00     0.274 HD
ATOM     42  H42 UNL     1      28.938  -3.893  -1.708  1.00  0.00     0.274 HD
ATOM     43  H41 UNL     1      30.020  -4.888  -2.516  1.00  0.00     0.274 HD
ENDBRANCH  39  40
ENDBRANCH  38  39
ENDBRANCH  36  38
ENDBRANCH  33  34
ENDBRANCH  32  33
ENDBRANCH   3  32
BRANCH   4  44
HETATM   44  C16 UNL     1      27.448  -3.095   2.623  1.00  0.00     0.287 C
BRANCH  44  45
HETATM   45  N5  UNL     1      26.619  -3.401   1.444  1.00  0.00    -0.074 N
ATOM     46  H53 UNL     1      25.721  -2.918   1.467  1.00  0.00     0.274 HD
ATOM     47  H52 UNL     1      26.988  -2.979   0.593  1.00  0.00     0.274 HD
ATOM     48  H51 UNL     1      26.512  -4.411   1.358  1.00  0.00     0.274 HD
ENDBRANCH  44  45
ENDBRANCH   4  44
TORSDOF 17
ENDMDL