MODEL 3
REMARK VINA RESULT: -5.958718068      2.194      6.176
REMARK  16 active torsions:
REMARK  status: ('A' for Active; 'I' for Inactive)
REMARK    1  A    between atoms: N1_2  and  C2_3
REMARK    2  A    between atoms: N1_2  and  C6_12
REMARK    3  A    between atoms: C2_3  and  C3_4
REMARK    4  A    between atoms: C6_12  and  O1_13
REMARK    5  A    between atoms: C6_12  and  C7_15
REMARK    6  A    between atoms: C7_15  and  N5_16
REMARK    7  A    between atoms: N5_16  and  C8_17
REMARK    8  A    between atoms: N5_16  and  C10_23
REMARK    9  A    between atoms: C8_17  and  C9_18
REMARK   10  A    between atoms: C9_18  and  N6_19
REMARK   11  A    between atoms: C10_23  and  C11_24
REMARK   12  A    between atoms: C11_24  and  C12_25
REMARK   13  A    between atoms: C12_25  and  N7_26
REMARK   14  A    between atoms: N7_26  and  C13_28
REMARK   15  A    between atoms: C14_31  and  N9_32
REMARK   16  A    between atoms: C17_42  and  N12_43
ROOT
HETATM    1  C11 UNL     1      30.697  -0.287   4.174  1.00  0.00     0.040 C
ENDROOT
BRANCH   1   2
HETATM    2  C10 UNL     1      29.346   0.183   4.626  1.00  0.00     0.129 C
BRANCH   2   3
HETATM    3  N5  UNL     1      28.275  -0.470   3.966  1.00  0.00    -0.368 N
BRANCH   3   4
HETATM    4  C7  UNL     1      27.868  -1.721   4.418  1.00  0.00     0.126 C
BRANCH   4   5
HETATM    5  C6  UNL     1      26.914  -2.441   3.467  1.00  0.00     0.396 C
BRANCH   5   6
HETATM    6  N1  UNL     1      27.358  -3.798   3.226  1.00  0.00     0.123 N
HETATM    7  C1  UNL     1      26.364  -4.780   3.549  1.00  0.00     0.314 C
BRANCH   6   8
HETATM    8  C2  UNL     1      28.014  -3.970   1.981  1.00  0.00     0.335 C
BRANCH   8   9
HETATM    9  C3  UNL     1      29.087  -4.989   2.111  1.00  0.00     0.072 A
HETATM   10  C4  UNL     1      30.175  -5.052   2.955  1.00  0.00     0.139 A
HETATM   11  N2  UNL     1      30.888  -6.191   2.713  1.00  0.00    -0.292 N
HETATM   12  C5  UNL     1      32.083  -6.566   3.419  1.00  0.00     0.178 C
HETATM   13  N3  UNL     1      30.254  -6.812   1.747  1.00  0.00    -0.241 N
HETATM   14  N4  UNL     1      29.189  -6.133   1.369  1.00  0.00    -0.287 N
ATOM     15  H3  UNL     1      30.546  -7.702   1.343  1.00  0.00     0.208 HD
ATOM     16  H4  UNL     1      28.541  -6.418   0.634  1.00  0.00     0.188 HD
ENDBRANCH   8   9
ENDBRANCH   6   8
ENDBRANCH   5   6
BRANCH   5  17
HETATM   17  O1  UNL     1      25.622  -2.527   3.973  1.00  0.00    -0.364 OA
ATOM     18  H1  UNL     1      25.515  -1.798   4.573  1.00  0.00     0.212 HD
ENDBRANCH   5  17
ENDBRANCH   4   5
ENDBRANCH   3   4
BRANCH   3  19
HETATM   19  C8  UNL     1      27.276   0.380   3.471  1.00  0.00     0.090 C
BRANCH  19  20
HETATM   20  C9  UNL     1      26.374   1.080   4.433  1.00  0.00     0.274 C
BRANCH  20  21
HETATM   21  N6  UNL     1      25.099   0.461   4.663  1.00  0.00    -0.075 N
ATOM     22  H63 UNL     1      24.704   0.143   3.778  1.00  0.00     0.274 HD
ATOM     23  H62 UNL     1      25.228  -0.432   5.138  1.00  0.00     0.274 HD
ATOM     24  H61 UNL     1      24.413   1.025   5.166  1.00  0.00     0.274 HD
ENDBRANCH  20  21
ENDBRANCH  19  20
ENDBRANCH   3  19
ENDBRANCH   2   3
ENDBRANCH   1   2
BRANCH   1  25
HETATM   25  C12 UNL     1      31.167   0.518   2.948  1.00  0.00     0.123 C
BRANCH  25  26
HETATM   26  N7  UNL     1      31.635  -0.410   1.942  1.00  0.00    -0.375 N
ATOM     27  H7  UNL     1      32.631  -0.632   1.935  1.00  0.00     0.161 HD
BRANCH  26  28
HETATM   28  C13 UNL     1      30.906  -0.970   1.070  1.00  0.00     0.129 A
HETATM   29  N8  UNL     1      29.704  -0.516   0.676  1.00  0.00    -0.176 N
HETATM   30  C14 UNL     1      28.953  -1.158  -0.266  1.00  0.00     0.678 A
ATOM     31  H8  UNL     1      29.340   0.340   1.095  1.00  0.00     0.186 HD
HETATM   32  N10 UNL     1      29.427  -2.298  -0.829  1.00  0.00    -0.186 N
HETATM   33  C15 UNL     1      30.615  -2.802  -0.481  1.00  0.00     0.131 A
ATOM     34  H10 UNL     1      28.867  -2.779  -1.532  1.00  0.00     0.184 HD
HETATM   35  C16 UNL     1      30.951  -3.976  -1.147  1.00  0.00     0.275 C
HETATM   36  C20 UNL     1      31.353  -2.130   0.474  1.00  0.00     0.041 A
HETATM   37  O2  UNL     1      30.329  -4.146  -2.224  1.00  0.00    -0.266 OA
HETATM   38  N11 UNL     1      31.843  -4.904  -0.762  1.00  0.00    -0.308 N
HETATM   39  C17 UNL     1      32.872  -4.830   0.111  1.00  0.00     0.101 C
ATOM     40  H11 UNL     1      31.723  -5.817  -1.202  1.00  0.00     0.170 HD
HETATM   41  C18 UNL     1      33.218  -3.730   0.863  1.00  0.00     0.049 C
HETATM   42  C19 UNL     1      32.597  -2.494   0.961  1.00  0.00     0.021 C
BRANCH  30  43
HETATM   43  N9  UNL     1      27.804  -0.699  -0.625  1.00  0.00    -0.234 N
ATOM     44  H92 UNL     1      27.350   0.022  -0.064  1.00  0.00     0.174 HD
ATOM     45  H91 UNL     1      27.339  -1.045  -1.464  1.00  0.00     0.174 HD
ENDBRANCH  30  43
BRANCH  39  46
HETATM   46  N12 UNL     1      33.592  -5.914   0.237  1.00  0.00    -0.385 N
ATOM     47 2H12 UNL     1      33.747  -6.282   1.176  1.00  0.00     0.157 HD
ATOM     48 1H12 UNL     1      33.949  -6.315  -0.631  1.00  0.00     0.157 HD
ENDBRANCH  39  46
ENDBRANCH  26  28
ENDBRANCH  25  26
ENDBRANCH   1  25
TORSDOF 16
ENDMDL