MODEL 4
REMARK VINA RESULT: -5.956929230      6.103      8.268
REMARK  17 active torsions:
REMARK  status: ('A' for Active; 'I' for Inactive)
REMARK       I    between atoms: C2_2  and  N1_4
REMARK    1  A    between atoms: N1_4  and  N2_6
REMARK    2  A    between atoms: N2_6  and  C4_8
REMARK    3  A    between atoms: C5_11  and  C6_12
REMARK    4  A    between atoms: C8_14  and  N4_15
REMARK    5  A    between atoms: N4_15  and  O2_17
REMARK    6  A    between atoms: O2_17  and  C9_18
REMARK    7  A    between atoms: C9_18  and  C10_19
REMARK    8  A    between atoms: C10_19  and  O3_20
REMARK    9  A    between atoms: C11_24  and  C12_25
REMARK   10  A    between atoms: C12_25  and  C13_26
REMARK   11  A    between atoms: C13_26  and  C14_27
REMARK   12  A    between atoms: C14_27  and  N6_28
REMARK   13  A    between atoms: N6_28  and  C15_31
REMARK   14  A    between atoms: C15_31  and  C16_32
REMARK   15  A    between atoms: C16_32  and  C17_33
REMARK   16  A    between atoms: C17_33  and  N7_34
REMARK   17  A    between atoms: C18_42  and  N10_43
ROOT
HETATM    1  C4  UNL     1      26.642  -2.423   2.791  1.00  0.00     0.148 A
HETATM    2  N3  UNL     1      26.382  -1.415   3.671  1.00  0.00    -0.324 N
ATOM      3  H3  UNL     1      25.684  -1.583   4.396  1.00  0.00     0.169 HD
HETATM    4  C5  UNL     1      26.989  -0.212   3.644  1.00  0.00     0.136 A
HETATM    5  N9  UNL     1      27.902  -0.008   2.688  1.00  0.00    -0.326 N
ATOM      6  H9  UNL     1      28.383   0.890   2.635  1.00  0.00     0.169 HD
HETATM    7  C18 UNL     1      28.199  -0.985   1.780  1.00  0.00     0.125 A
HETATM    8  C19 UNL     1      27.576  -2.220   1.808  1.00  0.00     0.133 A
HETATM    9  C20 UNL     1      27.885  -3.236   0.842  1.00  0.00     0.107 C
HETATM   10  N11 UNL     1      28.140  -4.038   0.042  1.00  0.00    -0.191 NA
ENDROOT
BRANCH   1  11
HETATM   11  N2  UNL     1      25.965  -3.664   2.896  1.00  0.00    -0.277 N
HETATM   12  C3  UNL     1      26.428  -4.816   3.624  1.00  0.00     0.179 C
BRANCH  11  13
HETATM   13  N1  UNL     1      24.740  -3.763   2.228  1.00  0.00    -0.267 N
HETATM   14  C2  UNL     1      23.539  -3.180   2.686  1.00  0.00     0.232 C
HETATM   15  C1  UNL     1      22.281  -3.327   1.923  1.00  0.00     0.119 C
HETATM   16  O1  UNL     1      23.528  -2.526   3.754  1.00  0.00    -0.272 OA
ATOM     17  H1  UNL     1      24.714  -4.290   1.356  1.00  0.00     0.190 HD
ENDBRANCH  11  13
ENDBRANCH   1  11
BRANCH   7  18
HETATM   18  N10 UNL     1      29.078  -0.780   0.865  1.00  0.00    -0.384 N
ATOM     19 2H10 UNL     1      28.767  -0.336   0.001  1.00  0.00     0.157 HD
ATOM     20 1H10 UNL     1      30.049  -1.056   1.009  1.00  0.00     0.157 HD
ENDBRANCH   7  18
BRANCH   4  21
HETATM   21  C6  UNL     1      26.657   0.815   4.618  1.00  0.00     0.082 A
HETATM   22  C7  UNL     1      25.340   1.139   4.917  1.00  0.00     0.083 A
HETATM   23  C8  UNL     1      25.035   2.112   5.842  1.00  0.00     0.129 A
HETATM   24  N5  UNL     1      26.029   2.763   6.472  1.00  0.00    -0.320 N
HETATM   25  C11 UNL     1      27.300   2.445   6.178  1.00  0.00     0.163 A
ATOM     26  H5  UNL     1      25.821   3.486   7.161  1.00  0.00     0.169 HD
HETATM   27  N8  UNL     1      27.610   1.481   5.262  1.00  0.00    -0.332 N
ATOM     28  H8  UNL     1      28.589   1.269   5.069  1.00  0.00     0.168 HD
BRANCH  23  29
HETATM   29  N4  UNL     1      23.792   2.367   6.078  1.00  0.00    -0.250 N
ATOM     30  H4  UNL     1      23.130   1.592   6.111  1.00  0.00     0.196 HD
BRANCH  29  31
HETATM   31  O2  UNL     1      23.325   3.645   6.285  1.00  0.00    -0.277 OA
BRANCH  31  32
HETATM   32  C9  UNL     1      22.860   4.462   5.242  1.00  0.00     0.227 C
BRANCH  32  33
HETATM   33  C10 UNL     1      23.922   5.447   4.845  1.00  0.00     0.192 C
BRANCH  33  34
HETATM   34  O3  UNL     1      24.899   4.820   4.101  1.00  0.00    -0.399 OA
ATOM     35  H3  UNL     1      24.870   5.122   3.201  1.00  0.00     0.209 HD
ENDBRANCH  33  34
ENDBRANCH  32  33
ENDBRANCH  31  32
ENDBRANCH  29  31
ENDBRANCH  23  29
BRANCH  25  36
HETATM   36  C12 UNL     1      28.341   3.163   6.868  1.00  0.00    -0.028 C
BRANCH  36  37
HETATM   37  C13 UNL     1      29.220   3.772   7.426  1.00  0.00    -0.071 C
BRANCH  37  38
HETATM   38  C14 UNL     1      30.315   4.518   8.091  1.00  0.00     0.326 C
BRANCH  38  39
HETATM   39  N6  UNL     1      31.046   5.190   7.041  1.00  0.00    -0.065 N
ATOM     40  H62 UNL     1      30.541   5.152   6.156  1.00  0.00     0.278 HD
ATOM     41  H61 UNL     1      31.052   6.200   7.181  1.00  0.00     0.278 HD
BRANCH  39  42
HETATM   42  C15 UNL     1      32.373   4.678   6.904  1.00  0.00     0.235 C
BRANCH  42  43
HETATM   43  C16 UNL     1      33.084   5.403   5.805  1.00  0.00     0.055 C
BRANCH  43  44
HETATM   44  C17 UNL     1      33.518   4.470   4.688  1.00  0.00     0.231 C
BRANCH  44  45
HETATM   45  N7  UNL     1      34.251   5.205   3.661  1.00  0.00    -0.079 N
ATOM     46  H73 UNL     1      34.278   6.205   3.857  1.00  0.00     0.274 HD
ATOM     47  H72 UNL     1      35.252   5.014   3.701  1.00  0.00     0.274 HD
ATOM     48  H71 UNL     1      33.865   5.011   2.737  1.00  0.00     0.274 HD
ENDBRANCH  44  45
ENDBRANCH  43  44
ENDBRANCH  42  43
ENDBRANCH  39  42
ENDBRANCH  38  39
ENDBRANCH  37  38
ENDBRANCH  36  37
ENDBRANCH  25  36
ENDBRANCH   4  21
TORSDOF 17
ENDMDL