MODEL 4
REMARK VINA RESULT: -6.438492185      2.496      4.973
REMARK  13 active torsions:
REMARK  status: ('A' for Active; 'I' for Inactive)
REMARK    1  A    between atoms: N1_2  and  C2_4
REMARK    2  A    between atoms: C3_5  and  C4_6
REMARK    3  A    between atoms: C11_20  and  N5_21
REMARK    4  A    between atoms: N5_21  and  C12_23
REMARK    5  A    between atoms: C12_23  and  C13_24
REMARK    6  A    between atoms: C13_24  and  O4_25
REMARK    7  A    between atoms: C15_28  and  N6_29
REMARK    8  A    between atoms: N6_29  and  C16_30
REMARK    9  A    between atoms: N6_29  and  C18_34
REMARK   10  A    between atoms: C16_30  and  C17_31
REMARK   11  A    between atoms: C17_31  and  O5_32
REMARK   12  A    between atoms: C18_34  and  C19_35
REMARK   13  A    between atoms: C19_35  and  O6_36
ROOT
HETATM    1  C2  UNL     1      30.005  -7.215   2.732  1.00  0.00     0.078 A
HETATM    2  C3  UNL     1      29.744  -7.470   4.040  1.00  0.00     0.126 A
HETATM    3  C5  UNL     1      29.100  -6.526   4.810  1.00  0.00     0.265 A
HETATM    4  O2  UNL     1      28.870  -6.798   6.037  1.00  0.00    -0.267 OA
HETATM    5  N3  UNL     1      28.685  -5.312   4.356  1.00  0.00    -0.314 N
HETATM    6  C6  UNL     1      28.027  -4.378   5.224  1.00  0.00     0.160 C
HETATM    7  C7  UNL     1      28.947  -5.060   3.048  1.00  0.00     0.094 A
HETATM    8  C8  UNL     1      29.590  -5.973   2.236  1.00  0.00     0.092 A
HETATM    9  N4  UNL     1      29.837  -5.676   0.953  1.00  0.00    -0.319 N
ATOM     10  H4  UNL     1      30.314  -6.372   0.380  1.00  0.00     0.169 HD
HETATM   11  C9  UNL     1      29.487  -4.504   0.377  1.00  0.00     0.260 A
HETATM   12  O3  UNL     1      29.767  -4.329  -0.836  1.00  0.00    -0.267 OA
HETATM   13  C10 UNL     1      28.846  -3.565   1.146  1.00  0.00     0.087 A
HETATM   14  C11 UNL     1      28.482  -2.356   0.605  1.00  0.00     0.050 A
HETATM   15  C14 UNL     1      27.840  -1.460   1.472  1.00  0.00     0.078 A
HETATM   16  C15 UNL     1      27.593  -1.780   2.780  1.00  0.00     0.105 A
HETATM   17  N7  UNL     1      27.974  -2.967   3.232  1.00  0.00    -0.340 N
ATOM     18  H7  UNL     1      27.785  -3.196   4.208  1.00  0.00     0.167 HD
HETATM   19  C20 UNL     1      28.577  -3.857   2.493  1.00  0.00     0.081 A
ENDROOT
BRANCH  16  20
HETATM   20  N6  UNL     1      26.953  -0.791   3.614  1.00  0.00    -0.363 N
BRANCH  20  21
HETATM   21  C16 UNL     1      25.856  -1.192   4.435  1.00  0.00     0.150 C
BRANCH  21  22
HETATM   22  C17 UNL     1      25.253  -0.027   5.202  1.00  0.00     0.183 C
BRANCH  22  23
HETATM   23  O5  UNL     1      24.145  -0.529   5.881  1.00  0.00    -0.399 OA
ATOM     24  H5  UNL     1      23.777  -1.211   5.332  1.00  0.00     0.209 HD
ENDBRANCH  22  23
ENDBRANCH  21  22
ENDBRANCH  20  21
BRANCH  20  25
HETATM   25  C18 UNL     1      27.396   0.595   3.671  1.00  0.00     0.150 C
BRANCH  25  26
HETATM   26  C19 UNL     1      28.802   0.683   4.243  1.00  0.00     0.183 C
BRANCH  26  27
HETATM   27  O6  UNL     1      29.686   1.100   3.253  1.00  0.00    -0.399 OA
ATOM     28  H6  UNL     1      30.355   1.656   3.635  1.00  0.00     0.209 HD
ENDBRANCH  26  27
ENDBRANCH  25  26
ENDBRANCH  20  25
ENDBRANCH  16  20
BRANCH  14  29
HETATM   29  N5  UNL     1      28.700  -1.972  -0.743  1.00  0.00    -0.387 N
ATOM     30  H5  UNL     1      28.314  -2.528  -1.506  1.00  0.00     0.159 HD
BRANCH  29  31
HETATM   31  C12 UNL     1      29.489  -0.762  -1.031  1.00  0.00     0.146 C
BRANCH  31  32
HETATM   32  C13 UNL     1      30.801  -0.851  -0.268  1.00  0.00     0.183 C
BRANCH  32  33
HETATM   33  O4  UNL     1      30.957   0.245   0.579  1.00  0.00    -0.399 OA
ATOM     34  H4  UNL     1      31.533   0.033   1.304  1.00  0.00     0.209 HD
ENDBRANCH  32  33
ENDBRANCH  31  32
ENDBRANCH  29  31
ENDBRANCH  14  29
BRANCH   1  35
HETATM   35  N1  UNL     1      30.657  -8.095   1.846  1.00  0.00    -0.391 N
HETATM   36  C1  UNL     1      32.077  -8.284   1.718  1.00  0.00     0.146 C
ATOM     37  H1  UNL     1      30.062  -8.655   1.235  1.00  0.00     0.159 HD
ENDBRANCH   1  35
BRANCH   2  38
HETATM   38  C4  UNL     1      30.140  -8.719   4.631  1.00  0.00     0.272 C
HETATM   39  N2  UNL     1      29.370  -9.883   4.433  1.00  0.00    -0.057 NA
HETATM   40  O1  UNL     1      31.171  -8.797   5.328  1.00  0.00    -0.271 OA
ENDBRANCH   2  38
TORSDOF 13
ENDMDL