MODEL 2
REMARK VINA RESULT: -6.597062996      2.228      3.176
REMARK  11 active torsions:
REMARK  status: ('A' for Active; 'I' for Inactive)
REMARK    1  A    between atoms: C2_2  and  C3_3
REMARK    2  A    between atoms: C3_3  and  N1_4
REMARK    3  A    between atoms: N1_4  and  C4_5
REMARK    4  A    between atoms: N1_4  and  C14_31
REMARK    5  A    between atoms: C4_5  and  C5_6
REMARK    6  A    between atoms: C5_6  and  O1_7
REMARK    7  A    between atoms: O1_7  and  C6_8
REMARK    8  A    between atoms: C6_8  and  C7_9
REMARK    9  A    between atoms: C7_9  and  N2_10
REMARK       I    between atoms: N2_10  and  C8_12
REMARK   10  A    between atoms: C8_12  and  C9_14
REMARK   11  A    between atoms: C16_36  and  N10_37
ROOT
HETATM    1  C7  UNL     1      32.944  -8.369   1.024  1.00  0.00     0.149 C
ENDROOT
BRANCH   1   2
HETATM    2  C6  UNL     1      33.013  -8.664   2.484  1.00  0.00     0.187 C
BRANCH   2   3
HETATM    3  O1  UNL     1      32.025  -8.167   3.212  1.00  0.00    -0.388 OA
BRANCH   3   4
HETATM    4  C5  UNL     1      32.123  -7.386   4.283  1.00  0.00     0.187 C
BRANCH   4   5
HETATM    5  C4  UNL     1      31.495  -6.029   4.010  1.00  0.00     0.149 C
BRANCH   5   6
HETATM    6  N1  UNL     1      30.014  -6.113   3.990  1.00  0.00    -0.372 N
BRANCH   6   7
HETATM    7  C3  UNL     1      29.438  -6.724   5.147  1.00  0.00     0.123 C
BRANCH   7   8
HETATM    8  C2  UNL     1      29.347  -5.950   6.411  1.00  0.00     0.015 C
HETATM    9  C1  UNL     1      29.576  -6.787   7.614  1.00  0.00     0.006 C
ENDBRANCH   7   8
ENDBRANCH   6   7
BRANCH   6  10
HETATM   10  C14 UNL     1      29.336  -5.706   2.829  1.00  0.00     0.141 A
HETATM   11  C15 UNL     1      28.978  -4.350   2.703  1.00  0.00     0.164 A
HETATM   12  N8  UNL     1      29.243  -3.446   3.765  1.00  0.00    -0.080 NA
HETATM   13  N9  UNL     1      28.364  -3.904   1.602  1.00  0.00    -0.177 N
HETATM   14  C16 UNL     1      28.049  -4.692   0.564  1.00  0.00     0.680 A
ATOM     15  H9  UNL     1      28.122  -2.915   1.550  1.00  0.00     0.185 HD
HETATM   16  N11 UNL     1      28.379  -5.986   0.660  1.00  0.00    -0.154 N
HETATM   17  C17 UNL     1      29.008  -6.501   1.760  1.00  0.00     0.289 A
ATOM     18  H11 UNL     1      28.153  -6.610  -0.115  1.00  0.00     0.187 HD
HETATM   19  O5  UNL     1      29.294  -7.728   1.786  1.00  0.00    -0.265 OA
BRANCH  14  20
HETATM   20  N10 UNL     1      27.448  -4.216  -0.492  1.00  0.00    -0.234 N
ATOM     21 2H10 UNL     1      27.011  -3.294  -0.489  1.00  0.00     0.174 HD
ATOM     22 1H10 UNL     1      27.393  -4.751  -1.359  1.00  0.00     0.174 HD
ENDBRANCH  14  20
ENDBRANCH   6  10
ENDBRANCH   5   6
ENDBRANCH   4   5
ENDBRANCH   3   4
ENDBRANCH   2   3
ENDBRANCH   1   2
BRANCH   1  23
HETATM   23  N2  UNL     1      32.283  -7.154   0.712  1.00  0.00    -0.352 N
HETATM   24  C8  UNL     1      32.958  -5.918   0.543  1.00  0.00     0.287 C
HETATM   25  O2  UNL     1      34.200  -5.887   0.678  1.00  0.00    -0.264 OA
ATOM     26  H2  UNL     1      31.269  -7.169   0.604  1.00  0.00     0.162 HD
BRANCH  24  27
HETATM   27  C9  UNL     1      32.224  -4.712   0.223  1.00  0.00     0.191 A
HETATM   28  N3  UNL     1      31.459  -4.656  -0.879  1.00  0.00    -0.280 N
HETATM   29  N4  UNL     1      30.780  -3.572  -1.192  1.00  0.00    -0.291 N
ATOM     30  H3  UNL     1      31.404  -5.473  -1.488  1.00  0.00     0.188 HD
HETATM   31  C10 UNL     1      30.815  -2.458  -0.421  1.00  0.00     0.161 A
ATOM     32  H4  UNL     1      30.210  -3.572  -2.038  1.00  0.00     0.187 HD
HETATM   33  C11 UNL     1      30.113  -1.322  -0.734  1.00  0.00     0.281 A
HETATM   34  C13 UNL     1      31.600  -2.483   0.732  1.00  0.00     0.145 A
HETATM   35  O3  UNL     1      29.399  -1.281  -1.771  1.00  0.00    -0.265 OA
HETATM   36  N5  UNL     1      30.212  -0.256   0.098  1.00  0.00    -0.273 N
HETATM   37  C12 UNL     1      30.987  -0.316   1.214  1.00  0.00     0.328 A
ATOM     38  H5  UNL     1      29.698   0.600  -0.115  1.00  0.00     0.173 HD
HETATM   39  O4  UNL     1      31.070   0.684   1.984  1.00  0.00    -0.247 OA
HETATM   40  N6  UNL     1      31.680  -1.409   1.541  1.00  0.00    -0.292 N
ATOM     41  H6  UNL     1      32.255  -1.431   2.383  1.00  0.00     0.172 HD
HETATM   42  N7  UNL     1      32.266  -3.609   0.996  1.00  0.00    -0.321 N
ATOM     43  H7  UNL     1      32.843  -3.637   1.837  1.00  0.00     0.169 HD
ENDBRANCH  24  27
ENDBRANCH   1  23
TORSDOF 11
ENDMDL