MODEL 2
REMARK VINA RESULT: -6.468457501      1.836      2.250
REMARK  3 active torsions:
REMARK  status: ('A' for Active; 'I' for Inactive)
REMARK    1  A    between atoms: C7_12  and  C8_13
REMARK    2  A    between atoms: C8_13  and  O1_14
REMARK    3  A    between atoms: C11_18  and  O2_19
ROOT
HETATM    1  N1  UNL     1      17.069 -56.073 -40.681  1.00  0.00    -0.196 NA
HETATM    2  C1  UNL     1      16.310 -55.210 -40.478  1.00  0.00     0.071 C
HETATM    3  C2  UNL     1      15.352 -54.091 -40.236  1.00  0.00     0.160 C
HETATM    4  C3  UNL     1      14.413 -54.642 -39.252  1.00  0.00     0.059 C
HETATM    5  N2  UNL     1      13.435 -55.348 -39.635  1.00  0.00    -0.396 N
ATOM      6  H21 UNL     1      12.782 -55.732 -38.952  1.00  0.00     0.156 HD
ATOM      7  H22 UNL     1      13.315 -55.523 -40.633  1.00  0.00     0.156 HD
HETATM    8  S1  UNL     1      14.622 -54.336 -37.504  1.00  0.00    -0.115 SA
HETATM    9  C4  UNL     1      15.187 -52.641 -37.469  1.00  0.00     0.086 C
HETATM   10  C5  UNL     1      16.210 -52.393 -38.509  1.00  0.00     0.009 A
HETATM   11  C6  UNL     1      17.287 -53.330 -38.898  1.00  0.00     0.021 A
HETATM   12  C7  UNL     1      16.136 -52.911 -39.827  1.00  0.00     0.018 A
ENDROOT
BRANCH  12  13
HETATM   13  C8  UNL     1      16.472 -51.966 -40.965  1.00  0.00     0.068 C
HETATM   14  C9  UNL     1      17.612 -51.036 -40.690  1.00  0.00     0.041 C
HETATM   15  C10 UNL     1      17.488 -49.913 -41.735  1.00  0.00     0.034 C
HETATM   16  C11 UNL     1      17.448 -50.381 -43.132  1.00  0.00     0.118 C
HETATM   17  C12 UNL     1      16.627 -51.598 -43.379  1.00  0.00     0.034 C
HETATM   18  C13 UNL     1      16.671 -52.616 -42.270  1.00  0.00     0.041 C
BRANCH  13  19
HETATM   19  O1  UNL     1      15.331 -51.128 -41.070  1.00  0.00    -0.389 OA
ATOM     20  H1  UNL     1      14.625 -51.722 -41.297  1.00  0.00     0.210 HD
ENDBRANCH  13  19
BRANCH  16  21
HETATM   21  O2  UNL     1      16.861 -49.348 -43.905  1.00  0.00    -0.396 OA
ATOM     22  H2  UNL     1      17.135 -49.479 -44.805  1.00  0.00     0.210 HD
ENDBRANCH  16  21
ENDBRANCH  12  13
TORSDOF 3
ENDMDL