MODEL 1
REMARK VINA RESULT: -6.642291638      0.000      0.000
REMARK  2 active torsions:
REMARK  status: ('A' for Active; 'I' for Inactive)
REMARK    1  A    between atoms: C4_6  and  O1_7
REMARK    2  A    between atoms: C14_18  and  O2_20
ROOT
HETATM    1  C1  UNL     1      18.408 -53.821 -38.598  1.00  0.00     0.050 C
HETATM    2  C2  UNL     1      17.009 -53.389 -39.025  1.00  0.00     0.194 C
HETATM    3  N1  UNL     1      16.889 -52.520 -40.040  1.00  0.00    -0.426 NA
HETATM    4  C3  UNL     1      16.845 -51.674 -40.878  1.00  0.00     0.193 C
HETATM    5  N2  UNL     1      17.449 -50.347 -40.870  1.00  0.00    -0.069 NA
HETATM    6  C4  UNL     1      16.091 -51.913 -42.176  1.00  0.00     0.126 C
HETATM    7  C5  UNL     1      17.116 -52.133 -43.213  1.00  0.00     0.047 C
HETATM    8  C6  UNL     1      16.836 -53.129 -44.271  1.00  0.00     0.004 C
HETATM    9  C7  UNL     1      17.621 -54.424 -44.145  1.00  0.00     0.000 C
HETATM   10  C8  UNL     1      16.738 -55.621 -43.985  1.00  0.00     0.000 C
HETATM   11  C9  UNL     1      16.617 -56.099 -42.576  1.00  0.00     0.005 C
HETATM   12  C10 UNL     1      16.373 -54.922 -41.604  1.00  0.00    -0.012 C
HETATM   13  C11 UNL     1      15.082 -54.272 -41.885  1.00  0.00     0.008 C
HETATM   14  C12 UNL     1      14.965 -52.836 -42.044  1.00  0.00     0.047 C
HETATM   15  C13 UNL     1      16.418 -55.541 -40.239  1.00  0.00     0.045 C
HETATM   16  C14 UNL     1      16.203 -54.680 -39.075  1.00  0.00     0.086 C
HETATM   17  C15 UNL     1      16.697 -55.470 -37.843  1.00  0.00     0.049 C
ENDROOT
BRANCH  16  18
HETATM   18  O2  UNL     1      14.855 -54.428 -38.751  1.00  0.00    -0.387 OA
ATOM     19  H2  UNL     1      14.433 -55.225 -38.452  1.00  0.00     0.210 HD
ENDBRANCH  16  18
BRANCH   6  20
HETATM   20  O1  UNL     1      15.456 -50.678 -42.529  1.00  0.00    -0.381 OA
ATOM     21  H1  UNL     1      14.620 -50.654 -42.078  1.00  0.00     0.211 HD
ENDBRANCH   6  20
TORSDOF 2
ENDMDL