MODEL 2
REMARK VINA RESULT: -6.826579936      1.962      3.478
REMARK  0 active torsions:
REMARK  status: ('A' for Active; 'I' for Inactive)
ROOT
HETATM    1  C1  UNL     1      16.075 -54.296 -41.810  1.00  0.00     0.012 C
HETATM    2  C2  UNL     1      16.449 -52.861 -41.673  1.00  0.00     0.012 C
HETATM    3  C3  UNL     1      15.912 -52.178 -42.937  1.00  0.00     0.007 C
HETATM    4  C4  UNL     1      16.791 -51.071 -43.412  1.00  0.00     0.000 C
HETATM    5  C5  UNL     1      16.924 -49.960 -42.383  1.00  0.00     0.000 C
HETATM    6  C6  UNL     1      17.780 -50.464 -41.288  1.00  0.00     0.002 C
HETATM    7  C7  UNL     1      17.135 -51.087 -40.128  1.00  0.00     0.034 C
HETATM    8  C8  UNL     1      16.061 -52.147 -40.445  1.00  0.00     0.060 C
HETATM    9  N1  UNL     1      14.875 -51.368 -40.690  1.00  0.00    -0.352 N
ATOM     10  H1  UNL     1      15.094 -50.465 -41.110  1.00  0.00     0.163 HD
HETATM   11  C9  UNL     1      13.632 -51.519 -40.519  1.00  0.00     0.191 C
HETATM   12  N2  UNL     1      12.847 -50.407 -40.946  1.00  0.00    -0.063 NA
HETATM   13  N3  UNL     1      12.989 -52.632 -39.975  1.00  0.00    -0.305 N
ATOM     14  H3  UNL     1      11.979 -52.677 -40.116  1.00  0.00     0.171 HD
HETATM   15  C10 UNL     1      13.516 -53.619 -39.311  1.00  0.00     0.193 C
HETATM   16  N4  UNL     1      12.604 -54.632 -38.870  1.00  0.00    -0.063 NA
HETATM   17  N5  UNL     1      14.881 -53.787 -38.984  1.00  0.00    -0.349 N
HETATM   18  C11 UNL     1      15.151 -55.050 -38.328  1.00  0.00     0.153 C
HETATM   19  C12 UNL     1      15.996 -52.949 -39.179  1.00  0.00     0.053 C
HETATM   20  C13 UNL     1      15.904 -51.886 -38.058  1.00  0.00     0.041 C
HETATM   21  C14 UNL     1      17.332 -53.618 -38.965  1.00  0.00     0.041 C
ENDROOT
TORSDOF 0
ENDMDL