MODEL 4
REMARK VINA RESULT: -7.547667947      2.215      6.177
REMARK  1 active torsions:
REMARK  status: ('A' for Active; 'I' for Inactive)
REMARK    1  A    between atoms: C11_19  and  C12_20
ROOT
HETATM    1  N1  UNL     1      15.136 -55.126 -37.981  1.00  0.00    -0.196 NA
HETATM    2  C1  UNL     1      15.327 -54.970 -39.110  1.00  0.00     0.074 C
HETATM    3  C2  UNL     1      15.593 -54.754 -40.554  1.00  0.00     0.204 C
HETATM    4  C3  UNL     1      16.696 -55.651 -40.975  1.00  0.00     0.132 C
HETATM    5  N2  UNL     1      17.009 -56.594 -40.156  1.00  0.00    -0.382 N
ATOM      6  H21 UNL     1      17.767 -57.211 -40.446  1.00  0.00     0.158 HD
ATOM      7  H22 UNL     1      16.468 -56.634 -39.292  1.00  0.00     0.158 HD
HETATM    8  O1  UNL     1      17.431 -55.596 -42.150  1.00  0.00    -0.325 OA
HETATM    9  C4  UNL     1      16.974 -55.039 -43.364  1.00  0.00     0.093 C
HETATM   10  C5  UNL     1      16.198 -56.124 -44.084  1.00  0.00     0.040 C
HETATM   11  C6  UNL     1      16.343 -55.903 -45.561  1.00  0.00     0.003 C
HETATM   12  C7  UNL     1      17.749 -56.340 -45.969  1.00  0.00     0.000 C
HETATM   13  C8  UNL     1      18.702 -55.771 -44.945  1.00  0.00     0.003 C
HETATM   14  C9  UNL     1      18.117 -54.570 -44.238  1.00  0.00     0.040 C
HETATM   15  C10 UNL     1      16.060 -53.873 -43.052  1.00  0.00     0.271 C
HETATM   16  N3  UNL     1      16.554 -53.022 -42.014  1.00  0.00    -0.060 N
ATOM     17  H31 UNL     1      16.363 -52.045 -42.235  1.00  0.00     0.278 HD
ATOM     18  H32 UNL     1      17.573 -53.007 -42.022  1.00  0.00     0.278 HD
HETATM   19  C11 UNL     1      16.067 -53.344 -40.699  1.00  0.00     0.268 C
ENDROOT
BRANCH  19  20
HETATM   20  C12 UNL     1      15.020 -52.359 -40.261  1.00  0.00     0.085 A
HETATM   21  C13 UNL     1      13.819 -52.146 -40.912  1.00  0.00     0.037 A
HETATM   22  C14 UNL     1      13.131 -51.175 -40.219  1.00  0.00     0.027 A
HETATM   23  C15 UNL     1      13.943 -50.832 -39.167  1.00  0.00     0.142 A
HETATM   24  O2  UNL     1      15.032 -51.559 -39.247  1.00  0.00    -0.325 OA
ENDBRANCH  19  20
TORSDOF 1
ENDMDL