MODEL 2
REMARK VINA RESULT: -6.010455526      3.820      5.883
REMARK  1 active torsions:
REMARK  status: ('A' for Active; 'I' for Inactive)
REMARK    1  A    between atoms: C2_2  and  N1_5
ROOT
HETATM    1  N1  UNL     1      14.697 -52.448 -39.515  1.00  0.00    -0.305 N
HETATM    2  N2  UNL     1      14.421 -53.385 -38.466  1.00  0.00    -0.279 N
ATOM      3  H2  UNL     1      13.832 -53.075 -37.693  1.00  0.00     0.189 HD
HETATM    4  C5  UNL     1      14.860 -54.570 -38.437  1.00  0.00     0.184 C
HETATM    5  S1  UNL     1      14.713 -55.984 -37.286  1.00  0.00    -0.014 SA
HETATM    6  C6  UNL     1      16.321 -56.656 -37.830  1.00  0.00     0.160 C
HETATM    7  N3  UNL     1      17.061 -57.383 -37.093  1.00  0.00    -0.378 N
ATOM      8  H31 UNL     1      17.959 -57.758 -37.397  1.00  0.00     0.158 HD
ATOM      9  H32 UNL     1      16.985 -57.742 -36.141  1.00  0.00     0.158 HD
HETATM   10  N4  UNL     1      16.426 -56.161 -39.143  1.00  0.00    -0.275 N
ATOM     11  H4  UNL     1      17.045 -56.596 -39.829  1.00  0.00     0.189 HD
HETATM   12  N5  UNL     1      15.665 -55.076 -39.460  1.00  0.00    -0.256 N
HETATM   13  C7  UNL     1      15.532 -54.357 -40.739  1.00  0.00     0.075 C
HETATM   14  C8  UNL     1      16.593 -54.828 -41.715  1.00  0.00     0.043 C
HETATM   15  C9  UNL     1      14.202 -54.643 -41.363  1.00  0.00     0.043 C
HETATM   16  C10 UNL     1      15.659 -52.879 -40.460  1.00  0.00     0.068 C
HETATM   17  C11 UNL     1      15.754 -52.252 -41.784  1.00  0.00     0.042 C
HETATM   18  C12 UNL     1      17.021 -52.766 -39.711  1.00  0.00     0.042 C
ENDROOT
BRANCH   1  19
HETATM   19  C2  UNL     1      13.967 -51.240 -39.387  1.00  0.00     0.038 C
HETATM   20  C1  UNL     1      13.086 -50.853 -40.523  1.00  0.00     0.039 C
HETATM   21  C3  UNL     1      13.122 -51.294 -38.136  1.00  0.00     0.039 C
HETATM   22  C4  UNL     1      14.871 -50.003 -39.177  1.00  0.00     0.039 C
ENDBRANCH   1  19
TORSDOF 1
ENDMDL