MODEL 2
REMARK VINA RESULT: -6.036371586      1.948      2.742
REMARK  4 active torsions:
REMARK  status: ('A' for Active; 'I' for Inactive)
REMARK    1  A    between atoms: C2_2  and  C3_3
REMARK    2  A    between atoms: N2_6  and  C5_8
REMARK    3  A    between atoms: C5_8  and  O1_9
REMARK    4  A    between atoms: N3_11  and  O2_13
ROOT
HETATM    1  C3  UNL     1      16.126 -54.658 -39.565  1.00  0.00     0.122 C
HETATM    2  C4  UNL     1      17.206 -54.048 -38.832  1.00  0.00     0.116 C
HETATM    3  N1  UNL     1      18.078 -53.566 -38.262  1.00  0.00    -0.190 NA
HETATM    4  N2  UNL     1      15.488 -55.687 -39.160  1.00  0.00    -0.313 N
ATOM      5  H2  UNL     1      14.740 -56.034 -39.761  1.00  0.00     0.170 HD
ENDROOT
BRANCH   1   6
HETATM    6  C2  UNL     1      15.715 -54.075 -40.866  1.00  0.00     0.088 C
HETATM    7  C1  UNL     1      16.273 -55.027 -41.936  1.00  0.00     0.047 C
HETATM    8  C6  UNL     1      14.236 -54.050 -41.016  1.00  0.00     0.111 C
HETATM    9  S1  UNL     1      13.464 -52.579 -40.315  1.00  0.00    -0.166 SA
HETATM   10  C7  UNL     1      13.737 -51.105 -41.309  1.00  0.00     0.081 C
HETATM   11  C8  UNL     1      14.712 -51.324 -42.436  1.00  0.00     0.079 C
HETATM   12  C9  UNL     1      16.033 -51.672 -41.826  1.00  0.00     0.075 C
HETATM   13  S2  UNL     1      17.272 -50.640 -42.037  1.00  0.00    -0.066 SA
HETATM   14  N4  UNL     1      16.366 -52.820 -41.063  1.00  0.00    -0.368 N
ATOM     15  H4  UNL     1      17.245 -52.731 -40.553  1.00  0.00     0.161 HD
ENDBRANCH   1   6
BRANCH   4  16
HETATM   16  C5  UNL     1      15.718 -56.384 -37.971  1.00  0.00     0.242 C
HETATM   17  N3  UNL     1      16.398 -57.473 -37.991  1.00  0.00    -0.233 N
ATOM     18  H3  UNL     1      16.569 -57.986 -37.127  1.00  0.00     0.198 HD
BRANCH  16  19
HETATM   19  O1  UNL     1      15.188 -55.855 -36.793  1.00  0.00    -0.331 OA
ATOM     20  H1  UNL     1      15.688 -55.186 -36.342  1.00  0.00     0.221 HD
ENDBRANCH  16  19
BRANCH  17  21
HETATM   21  O2  UNL     1      16.890 -57.940 -39.177  1.00  0.00    -0.287 OA
ATOM     22  H2  UNL     1      16.914 -58.875 -39.340  1.00  0.00     0.244 HD
ENDBRANCH  17  21
ENDBRANCH   4  16
TORSDOF 4
ENDMDL