MODEL 1
REMARK VINA RESULT: -6.017085370      0.000      0.000
REMARK  1 active torsions:
REMARK  status: ('A' for Active; 'I' for Inactive)
REMARK    1  A    between atoms: C5_6  and  O2_7
ROOT
HETATM    1  C1  UNL     1      17.347 -50.407 -42.913  1.00  0.00     0.029 C
HETATM    2  C2  UNL     1      16.154 -50.449 -41.968  1.00  0.00     0.025 C
HETATM    3  C3  UNL     1      15.948 -49.009 -41.483  1.00  0.00     0.029 C
HETATM    4  C4  UNL     1      14.891 -50.846 -42.667  1.00  0.00     0.191 C
HETATM    5  O1  UNL     1      14.053 -51.432 -41.705  1.00  0.00    -0.356 OA
HETATM    6  C5  UNL     1      14.421 -52.765 -41.511  1.00  0.00     0.296 C
HETATM    7  C6  UNL     1      15.460 -52.952 -40.459  1.00  0.00     0.139 C
HETATM    8  N1  UNL     1      16.267 -54.095 -40.830  1.00  0.00    -0.348 N
ATOM      9  H1  UNL     1      16.639 -54.115 -41.780  1.00  0.00     0.163 HD
HETATM   10  C7  UNL     1      16.580 -55.177 -39.995  1.00  0.00     0.135 C
HETATM   11  N2  UNL     1      16.792 -56.345 -40.458  1.00  0.00    -0.380 N
ATOM     12  H21 UNL     1      17.020 -57.132 -39.851  1.00  0.00     0.158 HD
ATOM     13  H22 UNL     1      16.739 -56.527 -41.461  1.00  0.00     0.158 HD
HETATM   14  S1  UNL     1      16.671 -54.861 -38.252  1.00  0.00    -0.094 SA
HETATM   15  C8  UNL     1      16.098 -53.144 -38.077  1.00  0.00     0.094 C
HETATM   16  C9  UNL     1      14.965 -52.963 -39.065  1.00  0.00     0.001 C
HETATM   17  C10 UNL     1      14.384 -51.572 -38.776  1.00  0.00     0.019 C
HETATM   18  C11 UNL     1      13.911 -53.951 -38.740  1.00  0.00     0.019 C
HETATM   19  S2  UNL     1      16.586 -51.500 -40.584  1.00  0.00    -0.120 SA
ENDROOT
BRANCH   6  20
HETATM   20  O2  UNL     1      13.298 -53.552 -41.354  1.00  0.00    -0.368 OA
ATOM     21  H2  UNL     1      13.549 -54.459 -41.223  1.00  0.00     0.212 HD
ENDBRANCH   6  20
TORSDOF 1
ENDMDL