MODEL 2
REMARK VINA RESULT: -7.236073693      3.907      6.663
REMARK  2 active torsions:
REMARK  status: ('A' for Active; 'I' for Inactive)
REMARK    1  A    between atoms: C6_8  and  C7_9
REMARK    2  A    between atoms: N2_10  and  O1_12
ROOT
HETATM    1  C1  UNL     1      18.140 -50.029 -46.458  1.00  0.00     0.097 C
HETATM    2  C2  UNL     1      17.457 -51.118 -45.703  1.00  0.00     0.113 C
HETATM    3  N1  UNL     1      17.795 -52.335 -45.924  1.00  0.00    -0.365 N
ATOM      4  H1  UNL     1      18.527 -52.506 -46.614  1.00  0.00     0.162 HD
HETATM    5  C3  UNL     1      17.214 -53.483 -45.264  1.00  0.00     0.037 C
HETATM    6  C4  UNL     1      18.301 -54.268 -44.532  1.00  0.00     0.032 C
HETATM    7  C5  UNL     1      18.064 -55.715 -44.943  1.00  0.00     0.012 C
HETATM    8  C6  UNL     1      17.659 -55.566 -46.378  1.00  0.00     0.028 C
HETATM    9  C8  UNL     1      16.706 -54.407 -46.355  1.00  0.00     0.041 C
HETATM   10  C9  UNL     1      16.093 -53.104 -44.355  1.00  0.00     0.092 C
HETATM   11  C10 UNL     1      16.301 -51.765 -43.716  1.00  0.00     0.145 C
HETATM   12  C11 UNL     1      15.147 -51.417 -42.821  1.00  0.00     0.073 C
HETATM   13  C12 UNL     1      15.647 -51.760 -41.445  1.00  0.00     0.053 C
HETATM   14  C13 UNL     1      14.975 -50.936 -40.368  1.00  0.00     0.018 C
HETATM   15  C14 UNL     1      17.086 -51.403 -41.535  1.00  0.00     0.076 C
HETATM   16  N3  UNL     1      17.841 -50.922 -40.578  1.00  0.00    -0.389 N
ATOM     17  H31 UNL     1      18.829 -50.677 -40.640  1.00  0.00     0.157 HD
ATOM     18  H32 UNL     1      17.571 -50.711 -39.617  1.00  0.00     0.157 HD
HETATM   19  N4  UNL     1      17.462 -51.697 -42.878  1.00  0.00    -0.348 N
ATOM     20  H4  UNL     1      18.420 -51.839 -43.196  1.00  0.00     0.163 HD
HETATM   21  O2  UNL     1      16.463 -50.818 -44.769  1.00  0.00    -0.308 OA
ENDROOT
BRANCH   8  22
HETATM   22  C7  UNL     1      16.940 -56.748 -46.900  1.00  0.00     0.091 C
HETATM   23  N2  UNL     1      16.567 -57.710 -46.145  1.00  0.00    -0.284 N
ATOM     24  H2  UNL     1      16.767 -57.670 -45.146  1.00  0.00     0.192 HD
BRANCH  23  25
HETATM   25  O1  UNL     1      15.906 -58.787 -46.653  1.00  0.00    -0.291 OA
ATOM     26  H1  UNL     1      15.032 -59.011 -46.356  1.00  0.00     0.244 HD
ENDBRANCH  23  25
ENDBRANCH   8  22
TORSDOF 2
ENDMDL