MODEL 4
REMARK VINA RESULT: -6.478891073      1.952      4.295
REMARK  0 active torsions:
REMARK  status: ('A' for Active; 'I' for Inactive)
ROOT
HETATM    1  C1  UNL     1      17.230 -52.322 -39.541  1.00  0.00     0.013 C
HETATM    2  C2  UNL     1      16.705 -53.736 -39.481  1.00  0.00     0.020 C
HETATM    3  C3  UNL     1      16.523 -54.094 -38.059  1.00  0.00     0.040 C
HETATM    4  C4  UNL     1      15.514 -55.132 -37.721  1.00  0.00     0.187 C
HETATM    5  C5  UNL     1      14.284 -54.390 -37.161  1.00  0.00     0.035 C
HETATM    6  C6  UNL     1      14.003 -53.542 -38.416  1.00  0.00     0.038 C
HETATM    7  C7  UNL     1      14.363 -54.473 -39.514  1.00  0.00     0.221 C
HETATM    8  N1  UNL     1      14.844 -55.700 -38.905  1.00  0.00    -0.064 N
ATOM      9  H11 UNL     1      14.142 -56.416 -38.722  1.00  0.00     0.278 HD
ATOM     10  H12 UNL     1      15.415 -56.302 -39.498  1.00  0.00     0.278 HD
HETATM   11  C8  UNL     1      15.530 -53.990 -40.395  1.00  0.00     0.108 C
HETATM   12  N2  UNL     1      15.785 -55.153 -41.218  1.00  0.00    -0.355 N
ATOM     13  H2  UNL     1      15.484 -56.034 -40.801  1.00  0.00     0.162 HD
HETATM   14  C9  UNL     1      16.303 -55.273 -42.335  1.00  0.00     0.157 C
HETATM   15  N3  UNL     1      16.480 -56.487 -42.999  1.00  0.00    -0.075 NA
HETATM   16  S1  UNL     1      16.837 -53.755 -43.147  1.00  0.00    -0.038 SA
HETATM   17  C10 UNL     1      15.685 -52.536 -42.465  1.00  0.00     0.103 A
HETATM   18  N4  UNL     1      15.224 -51.420 -42.975  1.00  0.00    -0.345 N
ATOM     19  H4  UNL     1      15.459 -51.020 -43.883  1.00  0.00     0.167 HD
HETATM   20  C11 UNL     1      14.376 -50.905 -42.057  1.00  0.00     0.181 A
HETATM   21  N5  UNL     1      14.344 -51.737 -40.993  1.00  0.00    -0.351 N
ATOM     22  H5  UNL     1      13.782 -51.586 -40.155  1.00  0.00     0.166 HD
HETATM   23  C12 UNL     1      15.165 -52.806 -41.192  1.00  0.00     0.075 A
ENDROOT
TORSDOF 0
ENDMDL