MODEL 1
REMARK VINA RESULT: -6.239613593      0.000      0.000
REMARK  0 active torsions:
REMARK  status: ('A' for Active; 'I' for Inactive)
ROOT
HETATM    1  C1  UNL     1      15.242 -51.142 -41.303  1.00  0.00     0.048 C
HETATM    2  C2  UNL     1      16.578 -51.768 -41.477  1.00  0.00     0.142 C
HETATM    3  C3  UNL     1      17.283 -51.741 -40.115  1.00  0.00     0.042 C
HETATM    4  C4  UNL     1      16.370 -51.894 -38.961  1.00  0.00     0.028 C
HETATM    5  C5  UNL     1      16.618 -52.970 -37.949  1.00  0.00     0.151 C
HETATM    6  S1  UNL     1      14.950 -53.699 -37.529  1.00  0.00    -0.077 SA
HETATM    7  S2  UNL     1      14.372 -54.457 -39.478  1.00  0.00    -0.043 SA
HETATM    8  C6  UNL     1      15.799 -54.365 -40.471  1.00  0.00     0.061 C
HETATM    9  N1  UNL     1      16.990 -54.271 -39.983  1.00  0.00    -0.323 N
ATOM     10  H1  UNL     1      17.774 -54.243 -40.635  1.00  0.00     0.169 HD
HETATM   11  C7  UNL     1      17.273 -54.204 -38.618  1.00  0.00     0.237 C
HETATM   12  O1  UNL     1      17.930 -54.955 -37.949  1.00  0.00    -0.272 OA
HETATM   13  C8  UNL     1      15.722 -54.140 -41.982  1.00  0.00     0.092 C
HETATM   14  C9  UNL     1      16.688 -52.996 -42.272  1.00  0.00     0.118 C
HETATM   15  N2  UNL     1      16.732 -52.845 -43.683  1.00  0.00    -0.413 N
ATOM     16  H2  UNL     1      17.088 -53.587 -44.288  1.00  0.00     0.153 HD
HETATM   17  C10 UNL     1      16.261 -51.623 -44.213  1.00  0.00     0.142 C
HETATM   18  C11 UNL     1      16.815 -50.412 -43.494  1.00  0.00     0.252 C
HETATM   19  N3  UNL     1      17.368 -50.748 -42.236  1.00  0.00    -0.063 N
ATOM     20  H31 UNL     1      18.337 -51.050 -42.340  1.00  0.00     0.278 HD
ATOM     21  H32 UNL     1      17.508 -49.910 -41.672  1.00  0.00     0.278 HD
ENDROOT
TORSDOF 0
ENDMDL