MODEL 3
REMARK VINA RESULT: -4.386665722      3.919      4.527
REMARK  1 active torsions:
REMARK  status: ('A' for Active; 'I' for Inactive)
REMARK       I    between atoms: C2_2  and  N1_4
REMARK       I    between atoms: N1_4  and  C3_6
REMARK       I    between atoms: C3_6  and  N2_8
REMARK    1  A    between atoms: N2_8  and  C4_10
ROOT
HETATM    1  C1  UNL     1     -15.091  34.085  96.868  1.00  0.00     0.117 C
HETATM    2  C2  UNL     1     -15.748  35.250  96.151  1.00  0.00     0.221 C
HETATM    3  O1  UNL     1     -16.875  35.012  95.702  1.00  0.00    -0.274 OA
HETATM    4  N1  UNL     1     -15.044  36.448  96.062  1.00  0.00    -0.280 N
ATOM      5  H1  UNL     1     -14.120  36.466  96.492  1.00  0.00     0.173 HD
HETATM    6  C3  UNL     1     -15.475  37.640  95.442  1.00  0.00     0.323 C
HETATM    7  O2  UNL     1     -14.629  38.623  95.496  1.00  0.00    -0.247 OA
HETATM    8  N2  UNL     1     -16.709  37.832  94.792  1.00  0.00    -0.338 N
ATOM      9  H2  UNL     1     -17.383  37.069  94.742  1.00  0.00     0.164 HD
ENDROOT
BRANCH   8  10
HETATM   10  C4  UNL     1     -17.022  39.113  94.197  1.00  0.00     0.086 A
HETATM   11  C5  UNL     1     -18.057  39.222  93.142  1.00  0.00     0.027 A
HETATM   12  C6  UNL     1     -18.441  39.596  94.562  1.00  0.00     0.027 A
ENDBRANCH   8  10
TORSDOF 1
ENDMDL