MODEL 4
REMARK VINA RESULT: -4.880227580      2.687      4.471
REMARK  1 active torsions:
REMARK  status: ('A' for Active; 'I' for Inactive)
REMARK       I    between atoms: C1_2  and  N2_4
REMARK    1  A    between atoms: C2_6  and  C3_8
ROOT
HETATM    1  N1  UNL     1     -17.639  34.920  95.613  1.00  0.00    -0.040 NA
HETATM    2  C1  UNL     1     -16.242  34.761  95.362  1.00  0.00     0.333 C
HETATM    3  O1  UNL     1     -15.873  33.878  94.540  1.00  0.00    -0.251 OA
HETATM    4  N2  UNL     1     -15.347  35.598  96.044  1.00  0.00    -0.302 N
ATOM      5  H2  UNL     1     -15.273  36.573  95.752  1.00  0.00     0.171 HD
HETATM    6  C2  UNL     1     -14.617  35.192  97.020  1.00  0.00     0.100 C
HETATM    7  N3  UNL     1     -14.735  33.847  97.406  1.00  0.00    -0.087 NA
ENDROOT
BRANCH   6   8
HETATM    8  C3  UNL     1     -13.718  36.153  97.657  1.00  0.00     0.051 C
HETATM    9  C4  UNL     1     -12.311  36.012  97.065  1.00  0.00     0.012 C
HETATM   10  C5  UNL     1     -12.205  37.513  97.139  1.00  0.00     0.002 C
HETATM   11  C6  UNL     1     -13.737  37.553  97.101  1.00  0.00     0.012 C
ENDBRANCH   6   8
TORSDOF 1
ENDMDL