MODEL 5
REMARK VINA RESULT: -4.426024802      1.454      2.304
REMARK  2 active torsions:
REMARK  status: ('A' for Active; 'I' for Inactive)
REMARK    1  A    between atoms: C2_2  and  C4_10
REMARK    2  A    between atoms: N1_3  and  N2_5
ROOT
HETATM    1  C1  UNL     1     -12.760  35.995  97.080  1.00  0.00     0.065 C
HETATM    2  C2  UNL     1     -14.024  36.706  97.397  1.00  0.00     0.004 C
HETATM    3  N1  UNL     1     -15.105  36.300  96.835  1.00  0.00    -0.307 N
ATOM      4  H1  UNL     1     -15.989  36.768  97.034  1.00  0.00     0.186 HD
ENDROOT
BRANCH   3   5
HETATM    5  N2  UNL     1     -15.074  35.238  95.969  1.00  0.00    -0.276 N
HETATM    6  C3  UNL     1     -16.063  34.644  95.440  1.00  0.00     0.215 C
HETATM    7  N3  UNL     1     -17.430  34.980  95.654  1.00  0.00    -0.065 NA
HETATM    8  N4  UNL     1     -15.799  33.554  94.561  1.00  0.00    -0.065 NA
ATOM      9  H2  UNL     1     -14.150  34.885  95.721  1.00  0.00     0.189 HD
ENDBRANCH   3   5
BRANCH   2  10
HETATM   10  C4  UNL     1     -14.023  37.863  98.348  1.00  0.00     0.032 A
HETATM   11  C5  UNL     1     -13.107  37.789  99.509  1.00  0.00     0.011 A
HETATM   12  C6  UNL     1     -12.837  38.769  98.374  1.00  0.00     0.011 A
ENDBRANCH   2  10
TORSDOF 2
ENDMDL