MODEL 4
REMARK VINA RESULT: -4.134198895      7.338      8.385
REMARK  2 active torsions:
REMARK  status: ('A' for Active; 'I' for Inactive)
REMARK    1  A    between atoms: N1_2  and  C4_5
REMARK    2  A    between atoms: C6_7  and  C7_8
ROOT
HETATM    1  C4  UNL     1     -18.820  40.745  92.724  1.00  0.00     0.201 A
HETATM    2  C5  UNL     1     -18.345  39.833  91.656  1.00  0.00     0.048 A
HETATM    3  C6  UNL     1     -17.420  40.333  92.760  1.00  0.00     0.083 A
ENDROOT
BRANCH   3   4
HETATM    4  C7  UNL     1     -16.325  41.183  92.251  1.00  0.00     0.093 C
HETATM    5  N2  UNL     1     -15.242  40.727  91.725  1.00  0.00    -0.391 N
ATOM      6  H22 UNL     1     -15.184  39.711  91.679  1.00  0.00     0.157 HD
ATOM      7  H21 UNL     1     -14.485  41.314  91.373  1.00  0.00     0.157 HD
HETATM    8  N3  UNL     1     -16.407  42.616  92.315  1.00  0.00    -0.088 NA
ENDBRANCH   3   4
BRANCH   1   9
HETATM    9  N1  UNL     1     -19.811  40.241  93.643  1.00  0.00    -0.074 N
HETATM   10  C1  UNL     1     -19.355  40.280  95.023  1.00  0.00     0.272 C
HETATM   11  C2  UNL     1     -21.075  40.935  93.545  1.00  0.00     0.272 C
HETATM   12  C3  UNL     1     -20.101  38.840  93.374  1.00  0.00     0.272 C
ENDBRANCH   1   9
TORSDOF 2
ENDMDL