MODEL 2
REMARK VINA RESULT: -4.041412877      1.755      2.128
REMARK  2 active torsions:
REMARK  status: ('A' for Active; 'I' for Inactive)
REMARK    1  A    between atoms: C2_2  and  N1_4
REMARK       I    between atoms: N1_4  and  C4_6
REMARK    2  A    between atoms: C4_6  and  C5_8
ROOT
HETATM    1  N1  UNL     1     -15.079  36.100  96.458  1.00  0.00    -0.357 N
ATOM      2  H1  UNL     1     -15.985  36.566  96.494  1.00  0.00     0.162 HD
HETATM    3  C4  UNL     1     -13.911  36.860  96.723  1.00  0.00     0.225 C
HETATM    4  O1  UNL     1     -12.785  36.303  96.684  1.00  0.00    -0.273 OA
ENDROOT
BRANCH   3   5
HETATM    5  C5  UNL     1     -13.973  38.295  97.045  1.00  0.00     0.129 C
HETATM    6  C6  UNL     1     -14.271  39.204  95.850  1.00  0.00     0.248 C
HETATM    7  N2  UNL     1     -12.856  39.031  95.485  1.00  0.00    -0.073 N
HETATM    8  C7  UNL     1     -12.597  38.966  96.932  1.00  0.00     0.248 C
ATOM      9  H22 UNL     1     -12.552  38.292  94.851  1.00  0.00     0.277 HD
ATOM     10  H21 UNL     1     -12.372  39.696  94.882  1.00  0.00     0.277 HD
ENDBRANCH   3   5
BRANCH   1  11
HETATM   11  C2  UNL     1     -15.036  34.707  96.143  1.00  0.00     0.076 C
HETATM   12  C1  UNL     1     -14.952  33.827  97.369  1.00  0.00     0.032 C
HETATM   13  C3  UNL     1     -16.324  34.311  95.412  1.00  0.00     0.032 C
ENDBRANCH   1  11
TORSDOF 2
ENDMDL