MODEL 2
REMARK VINA RESULT: -4.351805771      2.427      4.583
REMARK  3 active torsions:
REMARK  status: ('A' for Active; 'I' for Inactive)
REMARK    1  A    between atoms: C2_2  and  N1_3
REMARK    2  A    between atoms: C2_2  and  C3_7
REMARK       I    between atoms: C3_7  and  N2_9
REMARK    3  A    between atoms: N2_9  and  C4_11
ROOT
HETATM    1  C3  UNL     1     -14.530  34.248  95.978  1.00  0.00     0.248 C
HETATM    2  O1  UNL     1     -13.496  33.660  95.570  1.00  0.00    -0.271 OA
HETATM    3  N2  UNL     1     -14.411  35.294  96.923  1.00  0.00    -0.355 N
ATOM      4  H2  UNL     1     -15.253  35.767  97.252  1.00  0.00     0.162 HD
ENDROOT
BRANCH   1   5
HETATM    5  C2  UNL     1     -15.843  33.808  95.442  1.00  0.00     0.270 C
HETATM    6  C1  UNL     1     -16.864  34.920  95.467  1.00  0.00     0.050 C
BRANCH   5   7
HETATM    7  N1  UNL     1     -15.638  33.447  94.052  1.00  0.00    -0.067 N
ATOM      8  H13 UNL     1     -16.447  32.987  93.635  1.00  0.00     0.275 HD
ATOM      9  H12 UNL     1     -15.611  34.254  93.429  1.00  0.00     0.275 HD
ATOM     10  H11 UNL     1     -14.790  32.882  94.010  1.00  0.00     0.275 HD
ENDBRANCH   5   7
ENDBRANCH   1   5
BRANCH   3  11
HETATM   11  C4  UNL     1     -13.124  35.709  97.435  1.00  0.00     0.084 C
HETATM   12  C5  UNL     1     -13.197  36.695  98.583  1.00  0.00     0.025 C
HETATM   13  C6  UNL     1     -13.210  37.806  97.540  1.00  0.00     0.004 C
HETATM   14  C7  UNL     1     -12.503  36.825  96.604  1.00  0.00     0.025 C
ENDBRANCH   3  11
TORSDOF 3
ENDMDL