MODEL 1
REMARK VINA RESULT: -4.983834037      0.000      0.000
REMARK  2 active torsions:
REMARK  status: ('A' for Active; 'I' for Inactive)
REMARK    1  A    between atoms: C2_3  and  C4_5
REMARK    2  A    between atoms: C6_7  and  C7_8
ROOT
HETATM    1  C1  UNL     1     -13.915  38.020  96.932  1.00  0.00     0.221 C
HETATM    2  N1  UNL     1     -13.461  36.960  97.035  1.00  0.00    -0.466 NA
HETATM    3  C2  UNL     1     -12.890  35.679  97.173  1.00  0.00     0.162 C
HETATM    4  C3  UNL     1     -11.578  35.691  96.421  1.00  0.00     0.048 C
ENDROOT
BRANCH   3   5
HETATM    5  C4  UNL     1     -13.837  34.633  96.647  1.00  0.00     0.033 A
HETATM    6  C5  UNL     1     -14.623  33.763  97.515  1.00  0.00     0.020 A
HETATM    7  C6  UNL     1     -15.309  34.852  96.689  1.00  0.00     0.057 A
BRANCH   7   8
HETATM    8  C7  UNL     1     -16.153  34.388  95.548  1.00  0.00     0.091 C
HETATM    9  N2  UNL     1     -15.706  33.666  94.598  1.00  0.00    -0.391 N
ATOM     10  H22 UNL     1     -14.727  33.383  94.603  1.00  0.00     0.157 HD
ATOM     11  H21 UNL     1     -16.282  33.349  93.818  1.00  0.00     0.157 HD
HETATM   12  N3  UNL     1     -17.513  34.781  95.541  1.00  0.00    -0.088 NA
ENDBRANCH   7   8
ENDBRANCH   3   5
TORSDOF 2
ENDMDL