MODEL 5
REMARK VINA RESULT: -4.197160933      8.070      9.061
REMARK  2 active torsions:
REMARK  status: ('A' for Active; 'I' for Inactive)
REMARK    1  A    between atoms: C2_2  and  C3_4
REMARK    2  A    between atoms: N1_8  and  C7_9
ROOT
HETATM    1  C3  UNL     1     -21.030  40.070  95.980  1.00  0.00     0.154 C
HETATM    2  C4  UNL     1     -19.869  39.709  95.091  1.00  0.00     0.035 C
HETATM    3  C5  UNL     1     -20.537  39.194  93.816  1.00  0.00     0.022 C
HETATM    4  C6  UNL     1     -22.033  39.304  94.097  1.00  0.00     0.124 C
HETATM    5  N1  UNL     1     -22.043  40.444  95.017  1.00  0.00    -0.366 N
ENDROOT
BRANCH   5   6
HETATM    6  C7  UNL     1     -22.859  41.586  94.926  1.00  0.00     0.171 C
HETATM    7  N2  UNL     1     -24.104  41.615  95.268  1.00  0.00    -0.395 N
ATOM      8  H22 UNL     1     -24.505  40.746  95.623  1.00  0.00     0.156 HD
ATOM      9  H21 UNL     1     -24.696  42.443  95.202  1.00  0.00     0.156 HD
ENDBRANCH   5   6
BRANCH   1  10
HETATM   10  C2  UNL     1     -20.741  41.073  96.984  1.00  0.00     0.145 C
HETATM   11  C1  UNL     1     -19.678  42.076  96.732  1.00  0.00     0.093 C
HETATM   12  O1  UNL     1     -21.332  41.139  98.035  1.00  0.00    -0.296 OA
ENDBRANCH   1  10
TORSDOF 2
ENDMDL