MODEL 3
REMARK VINA RESULT: -3.889595179      2.043      2.749
REMARK  2 active torsions:
REMARK  status: ('A' for Active; 'I' for Inactive)
REMARK    1  A    between atoms: C2_2  and  C4_4
REMARK    2  A    between atoms: C2_2  and  C5_7
ROOT
HETATM    1  C5  UNL     1     -22.242  40.640  94.728  1.00  0.00     0.204 A
HETATM    2  C6  UNL     1     -22.543  41.615  93.637  1.00  0.00     0.062 A
HETATM    3  C7  UNL     1     -23.743  42.075  94.437  1.00  0.00     0.235 A
HETATM    4  N2  UNL     1     -23.370  41.146  95.489  1.00  0.00    -0.070 N
ATOM      5  H21 UNL     1     -23.211  41.504  96.430  1.00  0.00     0.277 HD
ATOM      6  H22 UNL     1     -24.068  40.486  95.835  1.00  0.00     0.277 HD
ENDROOT
BRANCH   1   7
HETATM    7  C2  UNL     1     -20.966  40.852  95.491  1.00  0.00     0.059 C
HETATM    8  C1  UNL     1     -20.150  42.001  94.927  1.00  0.00     0.027 C
HETATM    9  C3  UNL     1     -20.130  39.586  95.233  1.00  0.00     0.027 C
BRANCH   7  10
HETATM   10  C4  UNL     1     -21.153  41.084  96.923  1.00  0.00     0.241 C
HETATM   11  N1  UNL     1     -20.861  42.331  97.528  1.00  0.00    -0.061 NA
HETATM   12  O1  UNL     1     -21.587  40.177  97.708  1.00  0.00    -0.276 OA
ENDBRANCH   7  10
ENDBRANCH   1   7
TORSDOF 2
ENDMDL