MODEL 3
REMARK VINA RESULT: -4.511124420      1.396      1.638
REMARK  1 active torsions:
REMARK  status: ('A' for Active; 'I' for Inactive)
REMARK    1  A    between atoms: C6_6  and  N1_7
ROOT
HETATM    1  C1  UNL     1     -13.578  38.242  98.747  1.00  0.00     0.011 C
HETATM    2  C2  UNL     1     -14.161  37.207  97.822  1.00  0.00    -0.006 C
HETATM    3  C3  UNL     1     -13.651  35.809  97.981  1.00  0.00     0.013 C
HETATM    4  C4  UNL     1     -12.350  36.316  97.437  1.00  0.00     0.014 C
HETATM    5  C5  UNL     1     -13.395  36.960  96.552  1.00  0.00     0.013 C
HETATM    6  C6  UNL     1     -14.047  35.615  96.537  1.00  0.00     0.092 C
ENDROOT
BRANCH   6   7
HETATM    7  N1  UNL     1     -15.466  35.591  96.376  1.00  0.00    -0.361 N
HETATM    8  C7  UNL     1     -16.130  34.805  95.624  1.00  0.00     0.197 C
HETATM    9  N2  UNL     1     -15.503  33.799  94.808  1.00  0.00    -0.067 NA
HETATM   10  N3  UNL     1     -17.534  34.920  95.584  1.00  0.00    -0.067 NA
ATOM     11  H1  UNL     1     -16.002  36.270  96.917  1.00  0.00     0.162 HD
ENDBRANCH   6   7
TORSDOF 1
ENDMDL