MODEL 3
REMARK VINA RESULT: -7.120373653      2.547      3.608
REMARK  2 active torsions:
REMARK  status: ('A' for Active; 'I' for Inactive)
REMARK    1  A    between atoms: C2_2  and  N1_3
REMARK    2  A    between atoms: C2_2  and  C4_10
REMARK       I    between atoms: N1_3  and  C3_5
ROOT
HETATM    1  C1  UNL     1      -9.678  36.831 -12.134  1.00  0.00     0.032 C
HETATM    2  C2  UNL     1      -9.450  35.532 -11.363  1.00  0.00     0.084 C
ENDROOT
BRANCH   2   3
HETATM    3  N1  UNL     1     -10.689  34.876 -11.082  1.00  0.00    -0.360 N
HETATM    4  C3  UNL     1     -11.709  34.643 -12.023  1.00  0.00     0.182 C
HETATM    5  N2  UNL     1     -12.779  35.360 -11.964  1.00  0.00    -0.374 N
HETATM    6  N3  UNL     1     -11.647  33.661 -13.049  1.00  0.00    -0.064 NA
ATOM      7  H22 UNL     1     -12.824  36.064 -11.228  1.00  0.00     0.158 HD
ATOM      8  H21 UNL     1     -13.518  35.191 -12.646  1.00  0.00     0.158 HD
ATOM      9  H1  UNL     1     -10.845  34.553 -10.127  1.00  0.00     0.162 HD
ENDBRANCH   2   3
BRANCH   2  10
HETATM   10  C4  UNL     1      -8.814  35.910 -10.046  1.00  0.00     0.012 C
HETATM   11  C5  UNL     1      -8.386  37.393 -10.056  1.00  0.00     0.011 C
HETATM   12  C6  UNL     1      -6.946  37.215  -9.686  1.00  0.00    -0.013 C
HETATM   13  C7  UNL     1      -6.951  36.095  -8.642  1.00  0.00     0.010 C
HETATM   14  C9  UNL     1      -6.519  36.115 -10.656  1.00  0.00     0.010 C
HETATM   15  C8  UNL     1      -7.489  35.273  -9.822  1.00  0.00    -0.008 C
ENDBRANCH   2  10
TORSDOF 2
ENDMDL