MODEL 5
REMARK VINA RESULT: -5.590454986      1.733      5.484
REMARK  2 active torsions:
REMARK  status: ('A' for Active; 'I' for Inactive)
REMARK    1  A    between atoms: C2_2  and  N1_4
REMARK       I    between atoms: C4_6  and  N3_8
REMARK    2  A    between atoms: N3_8  and  C5_10
ROOT
HETATM    1  N1  UNL     1      -9.110  33.139 -11.441  1.00  0.00    -0.361 N
ATOM      2  H1  UNL     1      -9.987  33.635 -11.603  1.00  0.00     0.162 HD
HETATM    3  C4  UNL     1      -8.307  33.665 -10.612  1.00  0.00     0.184 C
HETATM    4  N2  UNL     1      -7.040  33.061 -10.296  1.00  0.00    -0.064 NA
HETATM    5  N3  UNL     1      -8.590  34.882  -9.934  1.00  0.00    -0.360 N
ATOM      6  H3  UNL     1      -9.397  34.908  -9.310  1.00  0.00     0.162 HD
ENDROOT
BRANCH   1   7
HETATM    7  C2  UNL     1      -8.919  31.932 -12.166  1.00  0.00     0.076 C
HETATM    8  C1  UNL     1     -10.018  31.698 -13.167  1.00  0.00     0.032 C
HETATM    9  C3  UNL     1      -8.767  30.708 -11.324  1.00  0.00     0.032 C
ENDBRANCH   1   7
BRANCH   5  10
HETATM   10  C5  UNL     1      -7.812  36.071 -10.074  1.00  0.00     0.084 C
HETATM   11  C6  UNL     1      -8.663  37.293  -9.964  1.00  0.00     0.025 C
HETATM   12  C7  UNL     1      -7.730  38.403  -9.503  1.00  0.00     0.002 C
HETATM   13  C8  UNL     1      -6.417  37.727  -9.158  1.00  0.00     0.002 C
HETATM   14  C9  UNL     1      -6.827  36.269  -8.925  1.00  0.00     0.025 C
ENDBRANCH   5  10
TORSDOF 2
ENDMDL