MODEL 1
REMARK VINA RESULT: -7.352081231      0.000      0.000
REMARK  1 active torsions:
REMARK  status: ('A' for Active; 'I' for Inactive)
REMARK       I    between atoms: C1_2  and  N2_4
REMARK       I    between atoms: C2_6  and  N4_8
REMARK    1  A    between atoms: N4_8  and  C3_10
ROOT
HETATM    1  N1  UNL     1      -7.651  38.545  -9.411  1.00  0.00    -0.040 NA
HETATM    2  C1  UNL     1      -7.530  37.133  -9.397  1.00  0.00     0.335 C
HETATM    3  O1  UNL     1      -6.383  36.617  -9.233  1.00  0.00    -0.251 OA
HETATM    4  N2  UNL     1      -8.616  36.240  -9.557  1.00  0.00    -0.285 N
ATOM      5  H2  UNL     1      -9.082  35.856  -8.735  1.00  0.00     0.172 HD
HETATM    6  C2  UNL     1      -9.015  35.914 -10.720  1.00  0.00     0.192 C
HETATM    7  N3  UNL     1      -8.351  36.464 -11.862  1.00  0.00    -0.063 NA
HETATM    8  N4  UNL     1     -10.104  35.018 -10.913  1.00  0.00    -0.360 N
ATOM      9  H4  UNL     1     -11.045  35.409 -10.935  1.00  0.00     0.162 HD
ENDROOT
BRANCH   8  10
HETATM   10  C3  UNL     1      -9.958  33.591 -11.077  1.00  0.00     0.084 C
HETATM   11  C4  UNL     1     -10.046  33.220 -12.526  1.00  0.00     0.025 C
HETATM   12  C5  UNL     1      -9.981  31.715 -12.600  1.00  0.00     0.002 C
HETATM   13  C6  UNL     1      -8.712  31.172 -12.056  1.00  0.00     0.000 C
HETATM   14  C7  UNL     1      -8.212  31.799 -10.814  1.00  0.00     0.002 C
HETATM   15  C8  UNL     1      -8.612  33.197 -10.560  1.00  0.00     0.025 C
ENDBRANCH   8  10
TORSDOF 1
ENDMDL