MODEL 1
REMARK VINA RESULT: -5.074920978      0.000      0.000
REMARK  2 active torsions:
REMARK  status: ('A' for Active; 'I' for Inactive)
REMARK    1  A    between atoms: C2_2  and  N1_5
REMARK       I    between atoms: C5_7  and  N3_9
REMARK    2  A    between atoms: N3_9  and  C6_11
ROOT
HETATM    1  N1  UNL     1      -8.100  35.662 -10.949  1.00  0.00    -0.357 N
ATOM      2  H1  UNL     1      -8.175  36.326 -11.719  1.00  0.00     0.163 HD
HETATM    3  C5  UNL     1      -8.715  34.530 -11.058  1.00  0.00     0.185 C
HETATM    4  N2  UNL     1      -8.599  33.617  -9.975  1.00  0.00    -0.064 NA
HETATM    5  N3  UNL     1      -9.475  34.213 -12.211  1.00  0.00    -0.360 N
ATOM      6  H3  UNL     1      -9.302  34.690 -13.097  1.00  0.00     0.162 HD
ENDROOT
BRANCH   1   7
HETATM    7  C2  UNL     1      -7.320  36.035  -9.812  1.00  0.00     0.021 C
HETATM    8  C1  UNL     1      -6.199  35.077  -9.499  1.00  0.00     0.037 C
HETATM    9  C3  UNL     1      -8.169  36.163  -8.550  1.00  0.00     0.037 C
HETATM   10  C4  UNL     1      -6.699  37.408 -10.098  1.00  0.00     0.037 C
ENDBRANCH   1   7
BRANCH   5  11
HETATM   11  C6  UNL     1     -10.505  33.197 -12.107  1.00  0.00     0.084 C
HETATM   12  C7  UNL     1     -11.627  33.501 -13.080  1.00  0.00     0.025 C
HETATM   13  C8  UNL     1     -10.891  32.638 -14.087  1.00  0.00     0.004 C
HETATM   14  C9  UNL     1     -10.222  31.953 -12.913  1.00  0.00     0.025 C
ENDBRANCH   5  11
TORSDOF 2
ENDMDL