MODEL 4
REMARK VINA RESULT: -5.604546549      2.651      4.042
REMARK  4 active torsions:
REMARK  status: ('A' for Active; 'I' for Inactive)
REMARK    1  A    between atoms: N1_2  and  C2_4
REMARK    2  A    between atoms: C2_4  and  N2_6
REMARK    3  A    between atoms: N2_6  and  C3_8
REMARK    4  A    between atoms: C5_10  and  C6_11
ROOT
HETATM    1  N2  UNL     1     -10.052  32.953 -11.426  1.00  0.00    -0.362 N
ATOM      2  H2  UNL     1     -10.532  32.537 -10.628  1.00  0.00     0.162 HD
ENDROOT
BRANCH   1   3
HETATM    3  C2  UNL     1     -10.824  33.347 -12.548  1.00  0.00     0.167 C
HETATM    4  S1  UNL     1     -10.764  32.496 -13.952  1.00  0.00    -0.041 SA
BRANCH   3   5
HETATM    5  N1  UNL     1     -11.674  34.485 -12.501  1.00  0.00    -0.372 N
HETATM    6  C1  UNL     1     -11.841  35.271 -11.296  1.00  0.00     0.148 C
ATOM      7  H1  UNL     1     -12.182  34.758 -13.342  1.00  0.00     0.161 HD
ENDBRANCH   3   5
ENDBRANCH   1   3
BRANCH   1   8
HETATM    8  C3  UNL     1      -8.623  33.112 -11.359  1.00  0.00     0.088 A
HETATM    9  C4  UNL     1      -7.807  32.490 -10.305  1.00  0.00     0.032 A
HETATM   10  C5  UNL     1      -8.142  33.911 -10.155  1.00  0.00     0.013 A
BRANCH  10  11
HETATM   11  C6  UNL     1      -7.193  35.016 -10.506  1.00  0.00    -0.017 C
HETATM   12  C7  UNL     1      -6.259  35.384  -9.383  1.00  0.00     0.010 C
HETATM   13  C8  UNL     1      -7.862  36.243 -11.035  1.00  0.00     0.010 C
ENDBRANCH  10  11
ENDBRANCH   1   8
TORSDOF 4
ENDMDL