MODEL 3
REMARK VINA RESULT: -5.948576486      1.471      4.484
REMARK  4 active torsions:
REMARK  status: ('A' for Active; 'I' for Inactive)
REMARK    1  A    between atoms: C2_2  and  N1_4
REMARK       I    between atoms: N1_4  and  C4_6
REMARK    2  A    between atoms: N3_8  and  C5_10
REMARK    3  A    between atoms: C5_10  and  N4_11
REMARK    4  A    between atoms: C5_10  and  C6_15
ROOT
HETATM    1  N1  UNL     1      -9.122  35.228 -11.039  1.00  0.00    -0.361 N
ATOM      2  H1  UNL     1      -8.353  35.002 -11.669  1.00  0.00     0.162 HD
HETATM    3  C4  UNL     1     -10.350  34.553 -11.258  1.00  0.00     0.185 C
HETATM    4  N2  UNL     1     -11.619  35.161 -11.110  1.00  0.00    -0.064 NA
HETATM    5  N3  UNL     1     -10.339  33.309 -11.614  1.00  0.00    -0.337 N
ATOM      6  H3  UNL     1     -11.232  32.839 -11.768  1.00  0.00     0.164 HD
ENDROOT
BRANCH   5   7
HETATM    7  C5  UNL     1      -9.130  32.558 -11.804  1.00  0.00     0.287 C
BRANCH   7   8
HETATM    8  N4  UNL     1      -9.265  31.616 -12.911  1.00  0.00    -0.058 N
ATOM      9  H43 UNL     1      -8.385  31.142 -13.111  1.00  0.00     0.276 HD
ATOM     10  H42 UNL     1      -9.824  30.804 -12.648  1.00  0.00     0.276 HD
ATOM     11  H41 UNL     1      -9.640  32.078 -13.740  1.00  0.00     0.276 HD
ENDBRANCH   7   8
BRANCH   7  12
HETATM   12  C6  UNL     1      -8.694  31.852 -10.539  1.00  0.00     0.027 C
HETATM   13  C7  UNL     1      -8.516  30.386 -10.880  1.00  0.00     0.013 C
HETATM   14  C8  UNL     1      -7.369  32.363 -10.035  1.00  0.00     0.013 C
ENDBRANCH   7  12
ENDBRANCH   5   7
BRANCH   1  15
HETATM   15  C2  UNL     1      -8.863  36.183 -10.030  1.00  0.00     0.076 C
HETATM   16  C1  UNL     1      -8.800  37.613 -10.486  1.00  0.00     0.032 C
HETATM   17  C3  UNL     1      -7.565  35.827  -9.333  1.00  0.00     0.032 C
ENDBRANCH   1  15
TORSDOF 4
ENDMDL