MODEL 2
REMARK VINA RESULT: -6.336651613      1.668      1.860
REMARK  3 active torsions:
REMARK  status: ('A' for Active; 'I' for Inactive)
REMARK    1  A    between atoms: C2_2  and  C3_4
REMARK    2  A    between atoms: C6_7  and  N2_8
REMARK       I    between atoms: N2_8  and  C7_10
REMARK    3  A    between atoms: C7_10  and  C8_12
ROOT
HETATM    1  C3  UNL     1      -6.940  36.327  -9.809  1.00  0.00     0.018 A
HETATM    2  C4  UNL     1      -6.259  35.595  -8.674  1.00  0.00     0.023 C
HETATM    3  C5  UNL     1      -6.548  36.070 -11.225  1.00  0.00     0.043 A
HETATM    4  C6  UNL     1      -7.929  35.663 -10.668  1.00  0.00     0.099 A
ENDROOT
BRANCH   4   5
HETATM    5  N2  UNL     1      -8.143  34.253 -10.689  1.00  0.00    -0.355 N
HETATM    6  C7  UNL     1      -9.276  33.618 -11.239  1.00  0.00     0.222 C
HETATM    7  O1  UNL     1     -10.189  34.306 -11.758  1.00  0.00    -0.273 OA
ATOM      8  H2  UNL     1      -7.423  33.660 -10.276  1.00  0.00     0.162 HD
BRANCH   6   9
HETATM    9  C8  UNL     1      -9.424  32.149 -11.223  1.00  0.00     0.078 A
HETATM   10  C9  UNL     1      -8.279  31.306 -10.762  1.00  0.00     0.015 A
HETATM   11  C10 UNL     1      -8.541  31.408 -12.223  1.00  0.00     0.015 A
ENDBRANCH   6   9
ENDBRANCH   4   5
BRANCH   1  12
HETATM   12  C2  UNL     1      -7.224  37.750  -9.489  1.00  0.00     0.025 C
HETATM   13  C1  UNL     1      -8.425  38.287  -9.618  1.00  0.00     0.035 C
HETATM   14  N1  UNL     1      -6.185  38.625  -9.014  1.00  0.00    -0.107 NA
ENDBRANCH   1  12
TORSDOF 3
ENDMDL