MODEL 5
REMARK VINA RESULT: -6.699171803      4.002      5.474
REMARK  2 active torsions:
REMARK  status: ('A' for Active; 'I' for Inactive)
REMARK       I    between atoms: C1_4  and  N3_6
REMARK    1  A    between atoms: N3_6  and  C2_8
REMARK    2  A    between atoms: C5_11  and  C6_12
ROOT
HETATM    1  C2  UNL     1      -8.553  36.152 -10.718  1.00  0.00     0.084 C
HETATM    2  C3  UNL     1      -8.988  34.764 -10.380  1.00  0.00     0.026 C
HETATM    3  C4  UNL     1     -10.175  34.306 -11.186  1.00  0.00     0.013 C
HETATM    4  C5  UNL     1     -11.114  35.390 -11.564  1.00  0.00     0.047 C
HETATM    5  C7  UNL     1     -10.479  36.617 -12.118  1.00  0.00     0.013 C
HETATM    6  C8  UNL     1      -8.970  36.404 -12.172  1.00  0.00     0.026 C
ENDROOT
BRANCH   1   7
HETATM    7  N3  UNL     1      -7.164  36.401 -10.502  1.00  0.00    -0.360 N
HETATM    8  C1  UNL     1      -6.663  36.966  -9.302  1.00  0.00     0.182 C
HETATM    9  N1  UNL     1      -6.249  36.243  -8.299  1.00  0.00    -0.374 N
HETATM   10  N2  UNL     1      -6.596  38.381  -9.152  1.00  0.00    -0.064 NA
ATOM     11  H12 UNL     1      -5.889  36.649  -7.436  1.00  0.00     0.158 HD
ATOM     12  H11 UNL     1      -6.298  35.230  -8.407  1.00  0.00     0.158 HD
ATOM     13  H3  UNL     1      -6.503  36.161 -11.242  1.00  0.00     0.162 HD
ENDBRANCH   1   7
BRANCH   4  14
HETATM   14  C6  UNL     1     -12.034  34.845 -12.625  1.00  0.00     0.235 C
HETATM   15  O1  UNL     1     -11.811  33.707 -13.017  1.00  0.00    -0.306 OA
ENDBRANCH   4  14
TORSDOF 2
ENDMDL