MODEL 5
REMARK VINA RESULT: -6.950099603      2.285      4.322
REMARK  2 active torsions:
REMARK  status: ('A' for Active; 'I' for Inactive)
REMARK    1  A    between atoms: C2_2  and  C4_4
REMARK    2  A    between atoms: C8_8  and  N1_9
REMARK       I    between atoms: N1_9  and  C9_11
ROOT
HETATM    1  C4  UNL     1      -9.874  33.696 -11.138  1.00  0.00     0.012 C
HETATM    2  C5  UNL     1      -9.656  32.588 -12.147  1.00  0.00     0.007 C
HETATM    3  C6  UNL     1      -8.605  31.783 -11.406  1.00  0.00     0.002 C
HETATM    4  C7  UNL     1      -7.702  32.853 -10.864  1.00  0.00     0.025 C
HETATM    5  C8  UNL     1      -8.476  34.151 -10.887  1.00  0.00     0.088 C
ENDROOT
BRANCH   5   6
HETATM    6  N1  UNL     1      -8.321  34.932  -9.701  1.00  0.00    -0.360 N
HETATM    7  C9  UNL     1      -7.291  35.913  -9.648  1.00  0.00     0.182 C
HETATM    8  N2  UNL     1      -6.846  36.363  -8.507  1.00  0.00    -0.374 N
HETATM    9  N3  UNL     1      -6.694  36.453 -10.821  1.00  0.00    -0.064 NA
ATOM     10  H22 UNL     1      -7.274  35.975  -7.666  1.00  0.00     0.158 HD
ATOM     11  H21 UNL     1      -6.107  37.066  -8.469  1.00  0.00     0.158 HD
ATOM     12  H1  UNL     1      -8.940  34.789  -8.903  1.00  0.00     0.162 HD
ENDBRANCH   5   6
BRANCH   1  13
HETATM   13  C2  UNL     1     -10.810  34.749 -11.609  1.00  0.00    -0.017 C
HETATM   14  C1  UNL     1     -10.161  35.985 -12.125  1.00  0.00     0.010 C
HETATM   15  C3  UNL     1     -11.701  34.133 -12.681  1.00  0.00     0.010 C
ENDBRANCH   1  13
TORSDOF 2
ENDMDL