MODEL 3
REMARK VINA RESULT: -4.138098653      1.064      1.091
REMARK  2 active torsions:
REMARK  status: ('A' for Active; 'I' for Inactive)
REMARK    1  A    between atoms: C1_2  and  N1_3
REMARK    2  A    between atoms: C3_5  and  C4_6
ROOT
HETATM    1  N1  UNL     1      16.055  23.696   8.937  1.00  0.00    -0.340 N
HETATM    2  C2  UNL     1      15.526  22.509   9.654  1.00  0.00     0.162 A
HETATM    3  C3  UNL     1      14.656  23.703   9.319  1.00  0.00     0.205 A
ENDROOT
BRANCH   3   4
HETATM    4  C4  UNL     1      14.246  24.484  10.506  1.00  0.00     0.198 C
HETATM    5  O2  UNL     1      13.158  24.330  11.097  1.00  0.00    -0.646 OA
HETATM    6  O3  UNL     1      15.106  25.451  11.004  1.00  0.00    -0.646 OA
ENDBRANCH   3   4
BRANCH   1   7
HETATM    7  C1  UNL     1      17.191  24.301   8.332  1.00  0.00     0.351 C
HETATM    8  O1  UNL     1      18.355  24.017   8.687  1.00  0.00    -0.284 OA
ENDBRANCH   1   7
TORSDOF 2
ENDMDL