MODEL 4
REMARK VINA RESULT: -4.907684368      3.776      4.500
REMARK  1 active torsions:
REMARK  status: ('A' for Active; 'I' for Inactive)
REMARK    1  A    between atoms: C4_4  and  C5_5
ROOT
HETATM    1  C1  UNL     1      15.305  24.510   8.756  1.00  0.00     0.011 C
HETATM    2  C2  UNL     1      14.600  24.375  10.069  1.00  0.00    -0.005 A
HETATM    3  C3  UNL     1      15.466  24.656  11.281  1.00  0.00     0.019 A
HETATM    4  C4  UNL     1      14.298  25.518  10.939  1.00  0.00     0.079 A
ENDROOT
BRANCH   4   5
HETATM    5  C5  UNL     1      13.137  25.386  11.863  1.00  0.00     0.235 C
HETATM    6  N1  UNL     1      12.948  26.226  12.994  1.00  0.00    -0.062 NA
HETATM    7  O1  UNL     1      12.284  24.495  11.636  1.00  0.00    -0.276 OA
ENDBRANCH   4   5
TORSDOF 1
ENDMDL