MODEL 4
REMARK VINA RESULT: -4.459121324      1.151      1.778
REMARK  1 active torsions:
REMARK  status: ('A' for Active; 'I' for Inactive)
REMARK    1  A    between atoms: C4_5  and  C5_6
ROOT
HETATM    1  C1  UNL     1      14.066  23.440  11.699  1.00  0.00     0.310 C
HETATM    2  N1  UNL     1      15.211  24.278  11.645  1.00  0.00     0.095 N
HETATM    3  C2  UNL     1      14.739  25.667  11.869  1.00  0.00     0.275 C
HETATM    4  C3  UNL     1      14.444  25.638  10.357  1.00  0.00     0.073 C
HETATM    5  C4  UNL     1      15.715  24.776  10.423  1.00  0.00     0.287 C
ENDROOT
BRANCH   5   6
HETATM    6  C5  UNL     1      16.035  23.958   9.293  1.00  0.00     0.120 C
HETATM    7  N2  UNL     1      15.191  23.367   8.531  1.00  0.00    -0.389 N
ATOM      8  H22 UNL     1      14.207  23.507   8.760  1.00  0.00     0.157 HD
ATOM      9  H21 UNL     1      15.419  22.784   7.726  1.00  0.00     0.157 HD
HETATM   10  N3  UNL     1      17.419  23.761   8.972  1.00  0.00    -0.086 NA
ENDBRANCH   5   6
TORSDOF 1
ENDMDL