MODEL 2
REMARK VINA RESULT: -3.634896163      0.179      1.583
REMARK  1 active torsions:
REMARK  status: ('A' for Active; 'I' for Inactive)
REMARK    1  A    between atoms: S1_2  and  N1_4
REMARK       I    between atoms: N1_4  and  C3_6
ROOT
HETATM    1  N1  UNL     1      16.259  24.359  10.227  1.00  0.00    -0.295 N
ATOM      2  H1  UNL     1      17.053  24.206  10.849  1.00  0.00     0.177 HD
HETATM    3  C3  UNL     1      16.486  24.284   8.809  1.00  0.00     0.338 C
HETATM    4  N2  UNL     1      17.799  24.009   8.295  1.00  0.00    -0.039 NA
HETATM    5  O1  UNL     1      15.533  24.463   8.021  1.00  0.00    -0.250 OA
ENDROOT
BRANCH   1   6
HETATM    6  S1  UNL     1      14.781  24.682  10.912  1.00  0.00    -0.132 SA
HETATM    7  C1  UNL     1      13.565  23.500  11.020  1.00  0.00     0.101 C
HETATM    8  C2  UNL     1      14.349  26.336  11.177  1.00  0.00     0.101 C
ENDBRANCH   1   6
TORSDOF 1
ENDMDL