MODEL 2
REMARK VINA RESULT: -4.809239629      1.732      1.858
REMARK  2 active torsions:
REMARK  status: ('A' for Active; 'I' for Inactive)
REMARK    1  A    between atoms: N1_2  and  C2_4
REMARK       I    between atoms: N2_5  and  C3_7
REMARK    2  A    between atoms: N4_9  and  C4_11
ROOT
HETATM    1  C2  UNL     1      16.312  22.983   9.602  1.00  0.00     0.178 C
HETATM    2  N2  UNL     1      16.166  24.164  10.067  1.00  0.00    -0.327 N
ATOM      3  H2  UNL     1      16.869  24.864   9.829  1.00  0.00     0.169 HD
HETATM    4  C3  UNL     1      15.081  24.562  10.897  1.00  0.00     0.195 C
HETATM    5  N3  UNL     1      13.782  24.197  10.498  1.00  0.00    -0.063 NA
HETATM    6  N4  UNL     1      15.363  25.227  11.957  1.00  0.00    -0.308 N
ATOM      7  H4  UNL     1      16.347  25.428  12.133  1.00  0.00     0.170 HD
ENDROOT
BRANCH   1   8
HETATM    8  N1  UNL     1      17.444  22.723   8.784  1.00  0.00    -0.390 N
HETATM    9  C1  UNL     1      18.252  23.781   8.225  1.00  0.00     0.147 C
ATOM     10  H1  UNL     1      17.694  21.755   8.584  1.00  0.00     0.159 HD
ENDBRANCH   1   8
BRANCH   6  11
HETATM   11  C4  UNL     1      14.435  25.703  12.892  1.00  0.00     0.355 C
HETATM   12  O1  UNL     1      14.425  25.399  14.118  1.00  0.00    -0.283 OA
ENDBRANCH   6  11
TORSDOF 2
ENDMDL