MODEL 5
REMARK VINA RESULT: -4.838366164      5.057      5.997
REMARK  2 active torsions:
REMARK  status: ('A' for Active; 'I' for Inactive)
REMARK    1  A    between atoms: O1_1  and  N1_3
REMARK       I    between atoms: N1_3  and  C1_5
REMARK       I    between atoms: C1_5  and  N2_7
REMARK    2  A    between atoms: N2_7  and  C2_9
ROOT
HETATM    1  N1  UNL     1      13.607  26.394  15.166  1.00  0.00    -0.219 N
ATOM      2  H1  UNL     1      13.080  27.214  15.468  1.00  0.00     0.199 HD
HETATM    3  C1  UNL     1      14.119  26.330  13.846  1.00  0.00     0.340 C
HETATM    4  O2  UNL     1      14.234  27.391  13.194  1.00  0.00    -0.245 OA
HETATM    5  N2  UNL     1      14.504  25.114  13.238  1.00  0.00    -0.337 N
ATOM      6  H2  UNL     1      14.412  24.246  13.765  1.00  0.00     0.164 HD
ENDROOT
BRANCH   1   7
HETATM    7  O1  UNL     1      13.797  25.450  15.960  1.00  0.00    -0.286 OA
ATOM      8  H1  UNL     1      13.119  25.199  16.576  1.00  0.00     0.244 HD
ENDBRANCH   1   7
BRANCH   5   9
HETATM    9  C2  UNL     1      15.023  25.064  11.894  1.00  0.00     0.086 A
HETATM   10  C3  UNL     1      14.845  23.812  11.095  1.00  0.00     0.027 A
HETATM   11  C4  UNL     1      14.028  25.035  10.789  1.00  0.00     0.027 A
ENDBRANCH   5   9
TORSDOF 2
ENDMDL