MODEL 5
REMARK VINA RESULT: -4.573914466      3.335      4.182
REMARK  1 active torsions:
REMARK  status: ('A' for Active; 'I' for Inactive)
REMARK    1  A    between atoms: C4_4  and  N1_5
REMARK       I    between atoms: N1_5  and  C5_7
ROOT
HETATM    1  N1  UNL     1      14.778  25.757  11.758  1.00  0.00    -0.340 N
ATOM      2  H1  UNL     1      14.884  26.372  10.950  1.00  0.00     0.164 HD
HETATM    3  C5  UNL     1      14.453  26.310  13.024  1.00  0.00     0.329 C
HETATM    4  N2  UNL     1      14.267  27.700  13.214  1.00  0.00    -0.040 NA
HETATM    5  O1  UNL     1      14.326  25.525  14.028  1.00  0.00    -0.251 OA
ENDROOT
BRANCH   1   6
HETATM    6  C4  UNL     1      14.958  24.346  11.601  1.00  0.00     0.089 A
HETATM    7  C2  UNL     1      15.062  23.717  10.262  1.00  0.00     0.006 A
HETATM    8  C1  UNL     1      15.268  24.634   9.093  1.00  0.00     0.012 C
HETATM    9  C3  UNL     1      13.761  23.630  10.956  1.00  0.00     0.032 A
ENDBRANCH   1   6
TORSDOF 1
ENDMDL