MODEL 4
REMARK VINA RESULT: -4.722774439      1.200      4.272
REMARK  1 active torsions:
REMARK  status: ('A' for Active; 'I' for Inactive)
REMARK    1  A    between atoms: N1_2  and  C2_4
REMARK       I    between atoms: N2_6  and  C4_7
ROOT
HETATM    1  C2  UNL     1      14.070  24.646  11.845  1.00  0.00     0.116 C
HETATM    2  C3  UNL     1      14.237  23.455  10.956  1.00  0.00     0.152 C
HETATM    3  N2  UNL     1      15.307  24.118  10.223  1.00  0.00    -0.352 N
HETATM    4  C4  UNL     1      16.292  23.633   9.313  1.00  0.00     0.184 C
HETATM    5  N3  UNL     1      16.542  22.390   9.187  1.00  0.00    -0.374 N
ATOM      6  H31 UNL     1      17.246  22.043   8.536  1.00  0.00     0.158 HD
ATOM      7  H32 UNL     1      16.009  21.739   9.764  1.00  0.00     0.158 HD
HETATM    8  N4  UNL     1      17.040  24.548   8.503  1.00  0.00    -0.064 NA
HETATM    9  C5  UNL     1      14.909  25.362  10.817  1.00  0.00     0.152 C
ENDROOT
BRANCH   1  10
HETATM   10  N1  UNL     1      12.717  25.051  11.927  1.00  0.00    -0.400 N
HETATM   11  C1  UNL     1      12.430  26.199  12.408  1.00  0.00     0.112 C
ATOM     12  H1  UNL     1      11.975  24.430  11.605  1.00  0.00     0.158 HD
ENDBRANCH   1  10
TORSDOF 1
ENDMDL