MODEL 3
REMARK VINA RESULT: -4.369622366      8.127      9.120
REMARK  2 active torsions:
REMARK  status: ('A' for Active; 'I' for Inactive)
REMARK    1  A    between atoms: C1_2  and  C2_4
REMARK    2  A    between atoms: C2_4  and  C3_5
ROOT
HETATM    1  C2  UNL     1     -20.926  40.082  93.586  1.00  0.00     0.206 C
HETATM    2  C6  UNL     1     -22.424  39.950  93.264  1.00  0.00     0.050 C
HETATM    3  C7  UNL     1     -22.412  40.607  91.875  1.00  0.00     0.030 C
HETATM    4  C8  UNL     1     -21.590  41.835  92.203  1.00  0.00     0.234 C
HETATM    5  N2  UNL     1     -20.575  41.384  93.138  1.00  0.00    -0.057 N
ATOM      6  H21 UNL     1     -19.635  41.425  92.746  1.00  0.00     0.278 HD
ATOM      7  H22 UNL     1     -20.433  42.039  93.908  1.00  0.00     0.278 HD
ENDROOT
BRANCH   1   8
HETATM    8  C1  UNL     1     -20.277  39.006  92.748  1.00  0.00     0.268 C
HETATM    9  N1  UNL     1     -19.014  39.351  92.189  1.00  0.00    -0.060 NA
HETATM   10  O1  UNL     1     -20.815  37.894  92.564  1.00  0.00    -0.274 OA
ENDBRANCH   1   8
BRANCH   1  11
HETATM   11  C3  UNL     1     -20.634  39.754  95.004  1.00  0.00     0.031 A
HETATM   12  C4  UNL     1     -20.303  40.987  95.873  1.00  0.00     0.008 A
HETATM   13  C5  UNL     1     -21.443  40.110  96.161  1.00  0.00     0.008 A
ENDBRANCH   1  11
TORSDOF 2
ENDMDL