MODEL 1
REMARK VINA RESULT: -5.443420120      0.000      0.000
REMARK  1 active torsions:
REMARK  status: ('A' for Active; 'I' for Inactive)
REMARK    1  A    between atoms: C1_2  and  C2_4
ROOT
HETATM    1  C2  UNL     1     -15.501  35.148  96.208  1.00  0.00     0.110 C
HETATM    2  C3  UNL     1     -14.922  36.525  95.998  1.00  0.00     0.051 C
HETATM    3  C4  UNL     1     -13.715  36.489  96.903  1.00  0.00     0.227 C
HETATM    4  C5  UNL     1     -12.431  36.425  96.135  1.00  0.00     0.071 C
HETATM    5  C6  UNL     1     -12.442  34.975  96.536  1.00  0.00     0.228 A
HETATM    6  C7  UNL     1     -13.237  34.129  95.571  1.00  0.00     0.072 A
HETATM    7  C8  UNL     1     -14.329  34.264  96.573  1.00  0.00     0.238 A
HETATM    8  N2  UNL     1     -13.555  35.160  97.406  1.00  0.00     0.103 N
ENDROOT
BRANCH   1   9
HETATM    9  C1  UNL     1     -16.300  34.649  95.093  1.00  0.00     0.237 C
HETATM   10  N1  UNL     1     -15.799  33.714  94.143  1.00  0.00    -0.062 NA
HETATM   11  O1  UNL     1     -17.499  35.086  94.984  1.00  0.00    -0.276 OA
ENDBRANCH   1   9
TORSDOF 1
ENDMDL