MODEL 3
REMARK VINA RESULT: -4.618487154      2.869      4.434
REMARK  1 active torsions:
REMARK  status: ('A' for Active; 'I' for Inactive)
REMARK       I    between atoms: C1_2  and  N2_4
REMARK    1  A    between atoms: N2_4  and  C2_6
ROOT
HETATM    1  C2  UNL     1     -13.660  35.955  96.739  1.00  0.00     0.090 C
HETATM    2  C3  UNL     1     -15.050  36.002  96.105  1.00  0.00     0.030 C
HETATM    3  C4  UNL     1     -15.555  34.599  96.155  1.00  0.00    -0.012 C
HETATM    4  C5  UNL     1     -14.972  33.866  94.948  1.00  0.00     0.005 C
HETATM    5  C6  UNL     1     -13.484  34.013  95.222  1.00  0.00     0.007 C
HETATM    6  C7  UNL     1     -13.355  34.497  96.649  1.00  0.00     0.009 C
HETATM    7  C8  UNL     1     -14.673  33.945  97.233  1.00  0.00     0.011 C
ENDROOT
BRANCH   1   8
HETATM    8  N2  UNL     1     -12.755  36.812  96.054  1.00  0.00    -0.340 N
HETATM    9  C1  UNL     1     -11.784  37.587  96.713  1.00  0.00     0.329 C
HETATM   10  N1  UNL     1     -10.885  38.439  96.014  1.00  0.00    -0.040 NA
HETATM   11  O1  UNL     1     -11.683  37.545  97.971  1.00  0.00    -0.251 OA
ATOM     12  H2  UNL     1     -12.813  36.867  95.037  1.00  0.00     0.164 HD
ENDBRANCH   1   8
TORSDOF 1
ENDMDL