MODEL 1
REMARK VINA RESULT: -4.755094260      0.000      0.000
REMARK  1 active torsions:
REMARK  status: ('A' for Active; 'I' for Inactive)
REMARK       I    between atoms: C1_2  and  N2_4
REMARK    1  A    between atoms: N2_4  and  C2_6
ROOT
HETATM    1  C2  UNL     1     -13.656  36.385  97.079  1.00  0.00     0.094 C
HETATM    2  C3  UNL     1     -13.574  37.757  97.777  1.00  0.00     0.013 A
HETATM    3  C4  UNL     1     -12.471  37.822  98.755  1.00  0.00     0.012 A
HETATM    4  C5  UNL     1     -12.115  38.257  97.439  1.00  0.00    -0.004 A
HETATM    5  C6  UNL     1     -12.050  37.599  96.139  1.00  0.00    -0.004 A
HETATM    6  C7  UNL     1     -11.452  36.448  95.589  1.00  0.00     0.012 A
HETATM    7  C8  UNL     1     -12.268  36.143  96.703  1.00  0.00     0.013 A
ENDROOT
BRANCH   1   8
HETATM    8  N2  UNL     1     -14.653  36.330  96.064  1.00  0.00    -0.340 N
HETATM    9  C1  UNL     1     -15.556  35.244  95.947  1.00  0.00     0.329 C
HETATM   10  N1  UNL     1     -16.549  35.183  94.939  1.00  0.00    -0.040 NA
HETATM   11  O1  UNL     1     -15.485  34.292  96.761  1.00  0.00    -0.251 OA
ATOM     12  H2  UNL     1     -14.719  37.099  95.397  1.00  0.00     0.164 HD
ENDBRANCH   1   8
TORSDOF 1
ENDMDL