MODEL 1
REMARK VINA RESULT: -4.260962197      0.000      0.000
REMARK  2 active torsions:
REMARK  status: ('A' for Active; 'I' for Inactive)
REMARK       I    between atoms: C1_2  and  N3_8
REMARK    1  A    between atoms: N2_3  and  C2_5
REMARK    2  A    between atoms: N3_8  and  C5_10
ROOT
HETATM    1  N1  UNL     1     -21.426  39.320  92.413  1.00  0.00    -0.064 NA
HETATM    2  C1  UNL     1     -21.531  40.715  92.658  1.00  0.00     0.184 C
HETATM    3  N2  UNL     1     -21.959  41.450  91.674  1.00  0.00    -0.360 N
ATOM      4  H2  UNL     1     -22.045  42.457  91.816  1.00  0.00     0.162 HD
HETATM    5  N3  UNL     1     -21.189  41.290  93.904  1.00  0.00    -0.360 N
ATOM      6  H3  UNL     1     -21.289  42.295  94.050  1.00  0.00     0.162 HD
ENDROOT
BRANCH   3   7
HETATM    7  C2  UNL     1     -22.312  40.907  90.405  1.00  0.00     0.084 A
HETATM    8  C3  UNL     1     -21.486  41.216  89.212  1.00  0.00     0.027 A
HETATM    9  C4  UNL     1     -22.866  41.803  89.315  1.00  0.00     0.027 A
ENDBRANCH   3   7
BRANCH   5  10
HETATM   10  C5  UNL     1     -20.699  40.451  94.966  1.00  0.00     0.084 C
HETATM   11  C6  UNL     1     -21.655  40.021  96.005  1.00  0.00     0.025 C
HETATM   12  C7  UNL     1     -21.174  41.127  96.921  1.00  0.00     0.004 C
HETATM   13  C8  UNL     1     -19.991  41.321  96.003  1.00  0.00     0.025 C
ENDBRANCH   5  10
TORSDOF 2
ENDMDL