MODEL 3
REMARK VINA RESULT: -4.246977003      9.142     10.046
REMARK  2 active torsions:
REMARK  status: ('A' for Active; 'I' for Inactive)
REMARK    1  A    between atoms: C1_2  and  N1_3
REMARK    2  A    between atoms: N1_3  and  C2_5
ROOT
HETATM    1  C2  UNL     1     -21.659  39.743  95.076  1.00  0.00     0.088 C
HETATM    2  C3  UNL     1     -20.162  39.657  94.881  1.00  0.00     0.030 C
HETATM    3  C4  UNL     1     -19.966  39.717  93.383  1.00  0.00    -0.012 C
HETATM    4  C5  UNL     1     -20.552  38.512  92.691  1.00  0.00     0.005 C
HETATM    5  C6  UNL     1     -22.056  38.636  92.975  1.00  0.00     0.007 C
HETATM    6  C7  UNL     1     -22.207  39.945  93.667  1.00  0.00     0.009 C
HETATM    7  C8  UNL     1     -21.058  40.753  93.052  1.00  0.00     0.011 C
ENDROOT
BRANCH   1   8
HETATM    8  N1  UNL     1     -22.073  40.745  95.982  1.00  0.00    -0.363 N
ATOM      9  H1  UNL     1     -23.023  41.113  95.935  1.00  0.00     0.162 HD
BRANCH   8  10
HETATM   10  C1  UNL     1     -21.168  41.240  96.959  1.00  0.00     0.348 C
HETATM   11  O1  UNL     1     -21.564  41.712  98.063  1.00  0.00    -0.284 OA
ENDBRANCH   8  10
ENDBRANCH   1   8
TORSDOF 2
ENDMDL