MODEL 1
REMARK VINA RESULT: -4.746700101      0.000      0.000
REMARK  1 active torsions:
REMARK  status: ('A' for Active; 'I' for Inactive)
REMARK       I    between atoms: C1_2  and  N2_4
REMARK    1  A    between atoms: N2_4  and  C2_6
ROOT
HETATM    1  C2  UNL     1     -14.729  35.774  96.499  1.00  0.00     0.085 C
HETATM    2  C3  UNL     1     -13.413  35.482  97.161  1.00  0.00     0.025 C
HETATM    3  C4  UNL     1     -13.023  36.587  98.097  1.00  0.00     0.002 C
HETATM    4  C5  UNL     1     -12.778  37.785  97.179  1.00  0.00     0.000 C
HETATM    5  C6  UNL     1     -14.049  38.214  96.500  1.00  0.00     0.002 C
HETATM    6  C7  UNL     1     -14.893  37.138  95.970  1.00  0.00     0.025 C
ENDROOT
BRANCH   1   7
HETATM    7  N2  UNL     1     -14.856  34.794  95.413  1.00  0.00    -0.341 N
HETATM    8  C1  UNL     1     -16.105  34.447  94.854  1.00  0.00     0.329 C
HETATM    9  N1  UNL     1     -16.124  33.490  93.807  1.00  0.00    -0.040 NA
HETATM   10  O1  UNL     1     -17.156  34.957  95.255  1.00  0.00    -0.251 OA
ATOM     11  H2  UNL     1     -14.013  34.349  95.050  1.00  0.00     0.164 HD
ENDBRANCH   1   7
TORSDOF 1
ENDMDL