MODEL 1
REMARK VINA RESULT: -5.375155188      0.000      0.000
REMARK  2 active torsions:
REMARK  status: ('A' for Active; 'I' for Inactive)
REMARK    1  A    between atoms: C2_2  and  C3_3
REMARK    2  A    between atoms: C5_5  and  C6_6
REMARK       I    between atoms: C6_6  and  N1_8
REMARK       I    between atoms: N1_8  and  C7_10
ROOT
HETATM    1  C6  UNL     1     -13.341  36.360  97.205  1.00  0.00     0.228 C
HETATM    2  O1  UNL     1     -12.127  36.075  97.474  1.00  0.00    -0.273 OA
HETATM    3  N1  UNL     1     -13.963  37.444  97.881  1.00  0.00    -0.301 N
ATOM      4  H1  UNL     1     -14.933  37.674  97.666  1.00  0.00     0.171 HD
HETATM    5  C7  UNL     1     -13.264  38.215  98.847  1.00  0.00     0.188 C
HETATM    6  N2  UNL     1     -13.847  39.184  99.441  1.00  0.00    -0.373 N
ATOM      7  H21 UNL     1     -13.346  39.738 100.135  1.00  0.00     0.158 HD
ATOM      8  H22 UNL     1     -14.817  39.400  99.215  1.00  0.00     0.158 HD
HETATM    9  N3  UNL     1     -11.911  37.914  99.162  1.00  0.00    -0.064 NA
ENDROOT
BRANCH   1  10
HETATM   10  C5  UNL     1     -14.010  35.531  96.199  1.00  0.00     0.086 A
HETATM   11  C3  UNL     1     -15.440  35.214  96.233  1.00  0.00     0.021 A
HETATM   12  C4  UNL     1     -14.476  34.176  96.731  1.00  0.00     0.024 A
BRANCH  11  13
HETATM   13  C2  UNL     1     -16.110  34.881  94.943  1.00  0.00    -0.031 C
HETATM   14  C1  UNL     1     -16.219  33.655  94.483  1.00  0.00     0.007 C
ENDBRANCH  11  13
ENDBRANCH   1  10
TORSDOF 2
ENDMDL