MODEL 2
REMARK VINA RESULT: -4.105977303      1.470      1.932
REMARK  2 active torsions:
REMARK  status: ('A' for Active; 'I' for Inactive)
REMARK       I    between atoms: C1_2  and  N1_3
REMARK       I    between atoms: C1_2  and  N2_8
REMARK    1  A    between atoms: N1_3  and  C2_5
REMARK    2  A    between atoms: N2_8  and  C5_10
ROOT
HETATM    1  O1  UNL     1     -14.638  38.077  95.810  1.00  0.00    -0.247 OA
HETATM    2  C1  UNL     1     -15.530  37.373  95.227  1.00  0.00     0.317 C
HETATM    3  N1  UNL     1     -15.615  35.981  95.455  1.00  0.00    -0.339 N
ATOM      4  H1  UNL     1     -16.327  35.420  94.989  1.00  0.00     0.164 HD
HETATM    5  N2  UNL     1     -16.449  37.979  94.339  1.00  0.00    -0.334 N
ATOM      6  H2  UNL     1     -17.144  37.375  93.899  1.00  0.00     0.165 HD
ENDROOT
BRANCH   3   7
HETATM    7  C2  UNL     1     -14.670  35.370  96.363  1.00  0.00     0.086 A
HETATM    8  C3  UNL     1     -14.840  33.918  96.685  1.00  0.00     0.027 A
HETATM    9  C4  UNL     1     -13.733  34.300  95.792  1.00  0.00     0.027 A
ENDBRANCH   3   7
BRANCH   5  10
HETATM   10  C5  UNL     1     -16.482  39.357  94.014  1.00  0.00     0.039 A
HETATM   11  C6  UNL     1     -15.479  39.944  93.076  1.00  0.00     0.038 A
HETATM   12  C7  UNL     1     -16.976  39.970  92.789  1.00  0.00     0.018 A
HETATM   13  C8  UNL     1     -17.835  40.041  94.021  1.00  0.00     0.038 A
ENDBRANCH   5  10
TORSDOF 2
ENDMDL