MODEL 2
REMARK VINA RESULT: -4.942858448      1.890      2.353
REMARK  2 active torsions:
REMARK  status: ('A' for Active; 'I' for Inactive)
REMARK    1  A    between atoms: C1_2  and  C2_4
REMARK    2  A    between atoms: C8_10  and  N2_11
ROOT
HETATM    1  C2  UNL     1     -14.029  35.737  96.441  1.00  0.00     0.049 A
HETATM    2  C3  UNL     1     -14.163  37.206  96.010  1.00  0.00     0.026 C
HETATM    3  C4  UNL     1     -12.770  37.677  96.344  1.00  0.00     0.018 C
HETATM    4  C5  UNL     1     -12.633  37.212  97.775  1.00  0.00     0.013 C
HETATM    5  C6  UNL     1     -13.121  35.769  97.578  1.00  0.00     0.011 A
HETATM    6  C7  UNL     1     -12.626  35.382  96.203  1.00  0.00     0.039 A
HETATM    7  C8  UNL     1     -11.941  36.615  95.628  1.00  0.00     0.193 C
ENDROOT
BRANCH   7   8
HETATM    8  N2  UNL     1     -10.556  36.683  95.992  1.00  0.00    -0.074 N
ATOM      9  H23 UNL     1     -10.219  37.647  95.993  1.00  0.00     0.274 HD
ATOM     10  H22 UNL     1     -10.421  36.466  96.980  1.00  0.00     0.274 HD
ATOM     11  H21 UNL     1      -9.977  36.089  95.399  1.00  0.00     0.274 HD
ENDBRANCH   7   8
BRANCH   1  12
HETATM   12  C1  UNL     1     -15.144  34.830  96.275  1.00  0.00     0.240 C
HETATM   13  N1  UNL     1     -16.385  35.289  95.771  1.00  0.00    -0.061 NA
HETATM   14  O1  UNL     1     -15.054  33.610  96.569  1.00  0.00    -0.276 OA
ENDBRANCH   1  12
TORSDOF 2
ENDMDL