MODEL 1
REMARK VINA RESULT: -4.792148511      0.000      0.000
REMARK  2 active torsions:
REMARK  status: ('A' for Active; 'I' for Inactive)
REMARK    1  A    between atoms: C2_2  and  C3_3
REMARK       I    between atoms: C3_3  and  N1_5
REMARK    2  A    between atoms: N1_5  and  C4_7
ROOT
HETATM    1  C4  UNL     1     -12.878  37.943  95.816  1.00  0.00     0.084 C
HETATM    2  C5  UNL     1     -13.012  39.009  94.801  1.00  0.00     0.025 C
HETATM    3  C6  UNL     1     -12.265  40.275  95.091  1.00  0.00     0.002 C
HETATM    4  C7  UNL     1     -12.411  40.714  96.546  1.00  0.00     0.000 C
HETATM    5  C8  UNL     1     -11.848  39.575  97.366  1.00  0.00     0.002 C
HETATM    6  C9  UNL     1     -12.868  38.462  97.245  1.00  0.00     0.025 C
ENDROOT
BRANCH   1   7
HETATM    7  N1  UNL     1     -13.931  36.974  95.616  1.00  0.00    -0.353 N
HETATM    8  C3  UNL     1     -13.619  35.592  95.654  1.00  0.00     0.240 C
HETATM    9  O1  UNL     1     -12.447  35.171  95.857  1.00  0.00    -0.269 OA
ATOM     10  H1  UNL     1     -14.888  37.281  95.449  1.00  0.00     0.163 HD
BRANCH   8  11
HETATM   11  C2  UNL     1     -14.675  34.618  95.454  1.00  0.00     0.064 C
HETATM   12  C1  UNL     1     -15.492  34.696  94.415  1.00  0.00     0.017 C
ENDBRANCH   8  11
ENDBRANCH   1   7
TORSDOF 2
ENDMDL