MODEL 4
REMARK VINA RESULT: -4.296144687      6.106      6.599
REMARK  3 active torsions:
REMARK  status: ('A' for Active; 'I' for Inactive)
REMARK       I    between atoms: C1_2  and  N1_3
REMARK       I    between atoms: C1_2  and  N2_9
REMARK    1  A    between atoms: N1_3  and  C2_5
REMARK    2  A    between atoms: C2_5  and  C3_6
REMARK    3  A    between atoms: N2_9  and  C6_11
ROOT
HETATM    1  O1  UNL     1     -12.704  35.409  96.459  1.00  0.00    -0.247 OA
HETATM    2  C1  UNL     1     -13.363  36.367  96.004  1.00  0.00     0.316 C
HETATM    3  N1  UNL     1     -12.881  37.684  96.208  1.00  0.00    -0.343 N
ATOM      4  H1  UNL     1     -13.412  38.473  95.841  1.00  0.00     0.164 HD
HETATM    5  N2  UNL     1     -14.563  36.156  95.302  1.00  0.00    -0.339 N
ATOM      6  H2  UNL     1     -15.088  36.950  94.937  1.00  0.00     0.164 HD
ENDROOT
BRANCH   3   7
HETATM    7  C2  UNL     1     -11.654  37.926  96.924  1.00  0.00     0.129 C
BRANCH   7   8
HETATM    8  C3  UNL     1     -10.732  38.812  96.142  1.00  0.00     0.003 A
HETATM    9  C4  UNL     1     -10.907  38.926  94.685  1.00  0.00     0.007 A
HETATM   10  C5  UNL     1      -9.742  38.181  95.220  1.00  0.00     0.007 A
ENDBRANCH   7   8
ENDBRANCH   3   7
BRANCH   5  11
HETATM   11  C6  UNL     1     -15.043  34.823  95.100  1.00  0.00     0.086 A
HETATM   12  C7  UNL     1     -14.961  34.147  93.788  1.00  0.00     0.027 A
HETATM   13  C8  UNL     1     -16.245  34.762  94.141  1.00  0.00     0.027 A
ENDBRANCH   5  11
TORSDOF 3
ENDMDL