MODEL 3
REMARK VINA RESULT: -4.702365576      5.862      7.295
REMARK  4 active torsions:
REMARK  status: ('A' for Active; 'I' for Inactive)
REMARK    1  A    between atoms: C2_2  and  C3_3
REMARK    2  A    between atoms: C3_3  and  N1_4
REMARK    3  A    between atoms: C3_3  and  C4_8
REMARK       I    between atoms: C4_8  and  N2_10
REMARK    4  A    between atoms: N2_10  and  C5_12
ROOT
HETATM    1  C4  UNL     1     -14.895  39.943  92.673  1.00  0.00     0.252 C
HETATM    2  O1  UNL     1     -14.897  38.947  93.439  1.00  0.00    -0.271 OA
HETATM    3  N2  UNL     1     -16.075  40.645  92.304  1.00  0.00    -0.354 N
ATOM      4  H2  UNL     1     -16.045  41.452  91.679  1.00  0.00     0.162 HD
ENDROOT
BRANCH   1   5
HETATM    5  C3  UNL     1     -13.575  40.393  92.133  1.00  0.00     0.296 C
BRANCH   5   6
HETATM    6  C2  UNL     1     -12.996  41.479  92.965  1.00  0.00     0.005 C
HETATM    7  C1  UNL     1     -11.941  42.136  92.523  1.00  0.00     0.009 C
ENDBRANCH   5   6
BRANCH   5   8
HETATM    8  N1  UNL     1     -13.680  40.801  90.753  1.00  0.00    -0.063 N
ATOM      9  H13 UNL     1     -14.296  40.184  90.224  1.00  0.00     0.275 HD
ATOM     10  H12 UNL     1     -14.208  41.668  90.655  1.00  0.00     0.275 HD
ATOM     11  H11 UNL     1     -12.757  40.871  90.322  1.00  0.00     0.275 HD
ENDBRANCH   5   8
ENDBRANCH   1   5
BRANCH   3  12
HETATM   12  C5  UNL     1     -17.318  40.162  92.857  1.00  0.00     0.084 C
HETATM   13  C6  UNL     1     -18.058  41.207  93.648  1.00  0.00     0.025 C
HETATM   14  C7  UNL     1     -19.386  40.474  93.859  1.00  0.00     0.002 C
HETATM   15  C8  UNL     1     -19.645  39.924  92.484  1.00  0.00     0.002 C
HETATM   16  C9  UNL     1     -18.330  39.872  91.760  1.00  0.00     0.025 C
ENDBRANCH   3  12
TORSDOF 4
ENDMDL