MODEL 5
REMARK VINA RESULT: -5.053061333      7.361      8.657
REMARK  3 active torsions:
REMARK  status: ('A' for Active; 'I' for Inactive)
REMARK    1  A    between atoms: C1_2  and  C2_4
REMARK    2  A    between atoms: C2_4  and  N2_5
REMARK       I    between atoms: N2_5  and  C3_7
REMARK    3  A    between atoms: C3_7  and  C4_9
ROOT
HETATM    1  N2  UNL     1     -17.791  40.819  91.439  1.00  0.00    -0.352 N
ATOM      2  H2  UNL     1     -18.517  41.498  91.211  1.00  0.00     0.162 HD
HETATM    3  C3  UNL     1     -17.942  40.045  92.600  1.00  0.00     0.222 C
HETATM    4  O2  UNL     1     -17.054  39.203  92.892  1.00  0.00    -0.273 OA
ENDROOT
BRANCH   3   5
HETATM    5  C4  UNL     1     -19.095  40.150  93.521  1.00  0.00     0.078 C
HETATM    6  C5  UNL     1     -20.398  40.406  92.803  1.00  0.00     0.014 C
HETATM    7  C6  UNL     1     -21.305  40.761  93.981  1.00  0.00     0.001 C
HETATM    8  C7  UNL     1     -20.422  41.734  94.742  1.00  0.00     0.001 C
HETATM    9  C8  UNL     1     -18.996  41.356  94.423  1.00  0.00     0.014 C
ENDBRANCH   3   5
BRANCH   1  10
HETATM   10  C2  UNL     1     -16.668  40.705  90.560  1.00  0.00     0.222 C
BRANCH  10  11
HETATM   11  C1  UNL     1     -15.578  41.673  90.828  1.00  0.00     0.248 C
HETATM   12  N1  UNL     1     -14.327  41.113  91.239  1.00  0.00    -0.061 NA
HETATM   13  O1  UNL     1     -15.656  42.908  90.727  1.00  0.00    -0.275 OA
ENDBRANCH  10  11
ENDBRANCH   1  10
TORSDOF 3
ENDMDL