MODEL 1
REMARK VINA RESULT: -4.587313016      0.000      0.000
REMARK  3 active torsions:
REMARK  status: ('A' for Active; 'I' for Inactive)
REMARK    1  A    between atoms: C1_2  and  C2_3
REMARK       I    between atoms: C1_2  and  N2_11
REMARK    2  A    between atoms: C2_3  and  C3_4
REMARK    3  A    between atoms: N2_11  and  C7_13
ROOT
HETATM    1  C2  UNL     1     -13.445  41.144  91.563  1.00  0.00     0.135 C
ENDROOT
BRANCH   1   2
HETATM    2  C1  UNL     1     -14.839  41.368  91.119  1.00  0.00     0.219 C
HETATM    3  O1  UNL     1     -15.075  42.348  90.374  1.00  0.00    -0.274 OA
HETATM    4  N2  UNL     1     -15.866  40.498  91.525  1.00  0.00    -0.356 N
ATOM      5  H2  UNL     1     -15.658  39.705  92.132  1.00  0.00     0.162 HD
BRANCH   4   6
HETATM    6  C7  UNL     1     -17.220  40.740  91.076  1.00  0.00     0.084 A
HETATM    7  C8  UNL     1     -17.806  39.874  90.021  1.00  0.00     0.027 A
HETATM    8  C9  UNL     1     -18.186  39.670  91.468  1.00  0.00     0.027 A
ENDBRANCH   4   6
ENDBRANCH   1   2
BRANCH   1   9
HETATM    9  C3  UNL     1     -13.052  42.220  92.544  1.00  0.00     0.194 C
HETATM   10  C4  UNL     1     -11.655  41.883  93.035  1.00  0.00     0.035 C
HETATM   11  C5  UNL     1     -10.807  42.773  92.149  1.00  0.00     0.029 C
HETATM   12  C6  UNL     1     -11.664  44.045  92.132  1.00  0.00     0.233 C
HETATM   13  N1  UNL     1     -12.970  43.490  91.873  1.00  0.00    -0.070 N
ATOM     14  H12 UNL     1     -13.181  43.425  90.878  1.00  0.00     0.277 HD
ATOM     15  H11 UNL     1     -13.726  44.123  92.132  1.00  0.00     0.277 HD
ENDBRANCH   1   9
TORSDOF 3
ENDMDL