MODEL 3
REMARK VINA RESULT: -4.574620973      8.631     10.827
REMARK  3 active torsions:
REMARK  status: ('A' for Active; 'I' for Inactive)
REMARK       I    between atoms: C1_2  and  N1_3
REMARK    1  A    between atoms: C1_2  and  C7_13
REMARK    2  A    between atoms: N1_3  and  C2_5
REMARK    3  A    between atoms: C2_5  and  C3_6
ROOT
HETATM    1  C2  UNL     1     -13.379  40.783  91.811  1.00  0.00     0.155 C
ENDROOT
BRANCH   1   2
HETATM    2  N1  UNL     1     -12.607  41.988  91.629  1.00  0.00    -0.359 N
HETATM    3  C1  UNL     1     -11.580  42.286  92.544  1.00  0.00     0.221 C
HETATM    4  O1  UNL     1     -11.348  41.515  93.495  1.00  0.00    -0.273 OA
ATOM      5  H1  UNL     1     -12.803  42.615  90.848  1.00  0.00     0.162 HD
BRANCH   3   6
HETATM    6  C7  UNL     1     -10.768  43.509  92.391  1.00  0.00     0.078 A
HETATM    7  C8  UNL     1     -11.318  44.724  91.746  1.00  0.00     0.015 A
HETATM    8  C9  UNL     1     -11.304  44.708  93.214  1.00  0.00     0.015 A
ENDBRANCH   3   6
ENDBRANCH   1   2
BRANCH   1   9
HETATM    9  C3  UNL     1     -14.862  41.050  91.847  1.00  0.00     0.203 C
HETATM   10  C4  UNL     1     -15.602  40.086  92.737  1.00  0.00     0.036 C
HETATM   11  C5  UNL     1     -17.005  40.161  92.231  1.00  0.00     0.029 C
HETATM   12  C6  UNL     1     -16.891  40.766  90.863  1.00  0.00     0.233 C
HETATM   13  N2  UNL     1     -15.486  40.907  90.574  1.00  0.00    -0.069 N
ATOM     14  H22 UNL     1     -15.272  41.661  89.922  1.00  0.00     0.277 HD
ATOM     15  H21 UNL     1     -15.103  40.151  90.008  1.00  0.00     0.277 HD
ENDBRANCH   1   9
TORSDOF 3
ENDMDL