MODEL 4
REMARK VINA RESULT: -4.546838967      6.192      6.991
REMARK  4 active torsions:
REMARK  status: ('A' for Active; 'I' for Inactive)
REMARK    1  A    between atoms: N1_1  and  C1_5
REMARK    2  A    between atoms: C1_5  and  C2_6
REMARK    3  A    between atoms: C1_5  and  C6_13
REMARK       I    between atoms: C2_6  and  N2_8
REMARK    4  A    between atoms: N2_8  and  C3_10
ROOT
HETATM    1  C1  UNL     1     -20.450  40.375  92.560  1.00  0.00     0.278 C
ENDROOT
BRANCH   1   2
HETATM    2  N1  UNL     1     -21.812  39.819  92.527  1.00  0.00    -0.066 N
ATOM      3  H13 UNL     1     -22.538  40.534  92.480  1.00  0.00     0.275 HD
ATOM      4  H12 UNL     1     -22.036  39.352  91.649  1.00  0.00     0.275 HD
ATOM      5  H11 UNL     1     -21.897  39.211  93.341  1.00  0.00     0.275 HD
ENDBRANCH   1   2
BRANCH   1   6
HETATM    6  C2  UNL     1     -20.169  40.881  91.198  1.00  0.00     0.248 C
HETATM    7  O1  UNL     1     -19.078  40.660  90.596  1.00  0.00    -0.271 OA
HETATM    8  N2  UNL     1     -21.138  41.648  90.510  1.00  0.00    -0.355 N
ATOM      9  H2  UNL     1     -22.025  41.840  90.973  1.00  0.00     0.162 HD
BRANCH   8  10
HETATM   10  C3  UNL     1     -20.927  42.174  89.174  1.00  0.00     0.084 A
HETATM   11  C4  UNL     1     -22.036  42.801  88.421  1.00  0.00     0.027 A
HETATM   12  C5  UNL     1     -21.671  41.412  88.066  1.00  0.00     0.027 A
ENDBRANCH   8  10
ENDBRANCH   1   6
BRANCH   1  13
HETATM   13  C6  UNL     1     -20.484  41.475  93.594  1.00  0.00     0.025 C
HETATM   14  C7  UNL     1     -21.633  41.235  94.557  1.00  0.00     0.007 C
HETATM   15  C8  UNL     1     -20.717  41.545  95.726  1.00  0.00     0.001 C
HETATM   16  C9  UNL     1     -19.545  41.298  94.764  1.00  0.00     0.007 C
ENDBRANCH   1  13
TORSDOF 4
ENDMDL