MODEL 2
REMARK VINA RESULT: -5.998224610      1.370      2.385
REMARK  3 active torsions:
REMARK  status: ('A' for Active; 'I' for Inactive)
REMARK    1  A    between atoms: N2_4  and  N3_6
REMARK    2  A    between atoms: C1_8  and  N4_9
REMARK    3  A    between atoms: N4_9  and  C2_11
ROOT
HETATM    1  N4  UNL     1     -18.200  40.526  91.140  1.00  0.00    -0.380 N
ATOM      2  H4  UNL     1     -18.220  39.562  91.474  1.00  0.00     0.160 HD
ENDROOT
BRANCH   1   3
HETATM    3  C1  UNL     1     -16.971  41.209  91.095  1.00  0.00     0.194 C
HETATM    4  N3  UNL     1     -16.022  40.742  90.381  1.00  0.00    -0.283 N
ATOM      5  H3  UNL     1     -16.172  39.880  89.856  1.00  0.00     0.189 HD
BRANCH   4   6
HETATM    6  N2  UNL     1     -14.794  41.376  90.303  1.00  0.00    -0.248 N
HETATM    7  N1  UNL     1     -13.708  40.871  90.717  1.00  0.00    -0.331 N
ATOM      8  H12 UNL     1     -13.760  39.940  91.131  1.00  0.00     0.178 HD
ATOM      9  H11 UNL     1     -12.804  41.339  90.660  1.00  0.00     0.178 HD
ATOM     10  H2  UNL     1     -14.762  42.307  89.887  1.00  0.00     0.207 HD
ENDBRANCH   4   6
ENDBRANCH   1   3
BRANCH   1  11
HETATM   11  C2  UNL     1     -19.413  41.137  90.733  1.00  0.00     0.090 C
HETATM   12  C3  UNL     1     -19.486  42.638  91.044  1.00  0.00     0.026 C
HETATM   13  C4  UNL     1     -20.564  43.186  90.147  1.00  0.00     0.002 C
HETATM   14  C5  UNL     1     -21.872  42.508  90.251  1.00  0.00     0.001 C
HETATM   15  C6  UNL     1     -21.833  41.024  90.426  1.00  0.00     0.011 C
HETATM   16  C7  UNL     1     -20.676  40.545  91.267  1.00  0.00    -0.020 A
HETATM   17  C8  UNL     1     -20.913  40.214  92.677  1.00  0.00     0.012 A
HETATM   18  C9  UNL     1     -20.706  39.126  91.669  1.00  0.00     0.012 A
ENDBRANCH   1  11
TORSDOF 3
ENDMDL