MODEL 3
REMARK VINA RESULT: -5.241871593      4.311      5.439
REMARK  4 active torsions:
REMARK  status: ('A' for Active; 'I' for Inactive)
REMARK    1  A    between atoms: C2_2  and  C4_4
REMARK    2  A    between atoms: C4_4  and  N1_5
REMARK    3  A    between atoms: C4_4  and  C6_10
REMARK       I    between atoms: N1_5  and  C5_7
REMARK    4  A    between atoms: C6_10  and  N3_12
ROOT
HETATM    1  C4  UNL     1     -20.845  40.316  92.066  1.00  0.00     0.017 C
ENDROOT
BRANCH   1   2
HETATM    2  C2  UNL     1     -19.610  39.652  92.494  1.00  0.00     0.025 C
HETATM    3  C1  UNL     1     -18.687  39.465  91.266  1.00  0.00     0.016 C
HETATM    4  C3  UNL     1     -19.808  38.250  93.023  1.00  0.00     0.016 C
ENDBRANCH   1   2
BRANCH   1   5
HETATM    5  N1  UNL     1     -20.810  41.025  90.790  1.00  0.00    -0.316 N
HETATM    6  C5  UNL     1     -21.671  41.018  89.710  1.00  0.00     0.332 C
HETATM    7  N2  UNL     1     -21.318  41.892  88.584  1.00  0.00    -0.040 NA
HETATM    8  O1  UNL     1     -22.721  40.395  89.497  1.00  0.00    -0.251 OA
ATOM      9  H1  UNL     1     -20.002  41.637  90.675  1.00  0.00     0.169 HD
ENDBRANCH   1   5
BRANCH   1  10
HETATM   10  C6  UNL     1     -21.720  41.050  92.994  1.00  0.00     0.130 C
HETATM   11  C7  UNL     1     -23.186  40.774  92.961  1.00  0.00     0.039 C
BRANCH  10  12
HETATM   12  N3  UNL     1     -21.253  41.115  94.365  1.00  0.00    -0.357 N
HETATM   13  C8  UNL     1     -20.267  41.936  94.757  1.00  0.00     0.091 A
HETATM   14  C9  UNL     1     -19.827  41.988  96.070  1.00  0.00     0.017 A
HETATM   15  C10 UNL     1     -20.400  41.180  97.026  1.00  0.00     0.003 A
HETATM   16  C11 UNL     1     -21.403  40.343  96.630  1.00  0.00     0.017 A
HETATM   17  C12 UNL     1     -21.792  40.341  95.312  1.00  0.00     0.091 A
ENDBRANCH  10  12
ENDBRANCH   1  10
TORSDOF 4
ENDMDL