MODEL 3
REMARK VINA RESULT: -5.576052801      2.926      4.049
REMARK  3 active torsions:
REMARK  status: ('A' for Active; 'I' for Inactive)
REMARK    1  A    between atoms: N1_7  and  C7_8
REMARK    2  A    between atoms: C7_8  and  C8_9
REMARK    3  A    between atoms: C8_9  and  C9_10
ROOT
HETATM    1  C1  UNL     1     -14.156  40.242  93.101  1.00  0.00     0.069 C
HETATM    2  C2  UNL     1     -15.544  40.669  92.758  1.00  0.00     0.020 C
HETATM    3  C3  UNL     1     -16.540  39.882  93.042  1.00  0.00     0.029 C
HETATM    4  C4  UNL     1     -17.998  39.946  92.869  1.00  0.00     0.049 C
HETATM    5  C5  UNL     1     -18.644  38.997  93.887  1.00  0.00     0.043 C
HETATM    6  C6  UNL     1     -18.302  39.366  91.466  1.00  0.00     0.043 C
HETATM    7  N1  UNL     1     -18.586  41.242  92.874  1.00  0.00    -0.321 N
HETATM    8  C12 UNL     1     -18.015  42.529  92.599  1.00  0.00     0.337 C
HETATM    9  O1  UNL     1     -18.750  43.545  92.703  1.00  0.00    -0.245 OA
HETATM   10  N2  UNL     1     -16.678  42.872  92.204  1.00  0.00    -0.251 N
ATOM     11  H2  UNL     1     -16.486  43.843  91.962  1.00  0.00     0.191 HD
HETATM   12  N3  UNL     1     -15.619  41.956  92.129  1.00  0.00    -0.302 N
ATOM     13  H3  UNL     1     -14.815  42.234  91.566  1.00  0.00     0.186 HD
ENDROOT
BRANCH   7  14
HETATM   14  C7  UNL     1     -19.988  41.337  93.166  1.00  0.00     0.129 C
BRANCH  14  15
HETATM   15  C8  UNL     1     -20.884  41.670  92.029  1.00  0.00     0.024 C
BRANCH  15  16
HETATM   16  C9  UNL     1     -21.822  40.483  91.781  1.00  0.00    -0.021 C
HETATM   17  C10 UNL     1     -22.380  40.535  90.373  1.00  0.00     0.009 C
HETATM   18  C11 UNL     1     -22.999  40.522  92.725  1.00  0.00     0.009 C
ENDBRANCH  15  16
ENDBRANCH  14  15
ENDBRANCH   7  14
TORSDOF 3
ENDMDL