MODEL 3
REMARK VINA RESULT: -5.325148140      7.089      8.689
REMARK  4 active torsions:
REMARK  status: ('A' for Active; 'I' for Inactive)
REMARK    1  A    between atoms: C2_2  and  O1_3
REMARK    2  A    between atoms: C2_2  and  C3_5
REMARK    3  A    between atoms: C8_10  and  C9_11
REMARK    4  A    between atoms: C9_11  and  C10_12
ROOT
HETATM    1  C3  UNL     1     -19.045  39.239  94.057  1.00  0.00     0.019 C
HETATM    2  C4  UNL     1     -19.942  38.750  92.967  1.00  0.00     0.013 C
HETATM    3  C5  UNL     1     -20.257  39.754  91.915  1.00  0.00    -0.001 A
HETATM    4  C6  UNL     1     -20.443  41.129  92.359  1.00  0.00    -0.001 A
HETATM    5  C7  UNL     1     -20.216  41.471  93.774  1.00  0.00     0.011 C
HETATM    6  C8  UNL     1     -19.387  40.584  94.607  1.00  0.00     0.001 C
HETATM    7  C11 UNL     1     -21.643  40.336  91.922  1.00  0.00    -0.040 A
HETATM    8  C12 UNL     1     -22.240  40.655  90.540  1.00  0.00     0.015 C
HETATM    9  C13 UNL     1     -22.667  39.874  92.892  1.00  0.00     0.015 C
ENDROOT
BRANCH   1  10
HETATM   10  C2  UNL     1     -17.620  39.296  93.522  1.00  0.00     0.118 C
HETATM   11  C1  UNL     1     -16.739  38.282  94.224  1.00  0.00     0.040 C
BRANCH  10  12
HETATM   12  O1  UNL     1     -17.047  40.543  93.716  1.00  0.00    -0.396 OA
ATOM     13  H1  UNL     1     -16.892  40.919  92.857  1.00  0.00     0.210 HD
ENDBRANCH  10  12
ENDBRANCH   1  10
BRANCH   6  14
HETATM   14  C9  UNL     1     -20.074  40.368  95.942  1.00  0.00     0.104 C
BRANCH  14  15
HETATM   15  C10 UNL     1     -19.946  41.499  96.877  1.00  0.00     0.231 C
HETATM   16  N1  UNL     1     -18.755  42.282  96.741  1.00  0.00    -0.062 NA
HETATM   17  O2  UNL     1     -20.755  41.835  97.758  1.00  0.00    -0.277 OA
ENDBRANCH  14  15
ENDBRANCH   6  14
TORSDOF 4
ENDMDL