MODEL 3
REMARK VINA RESULT: -5.873217351      2.149      3.763
REMARK  3 active torsions:
REMARK  status: ('A' for Active; 'I' for Inactive)
REMARK    1  A    between atoms: C2_2  and  N1_3
REMARK    2  A    between atoms: C2_2  and  C4_8
REMARK       I    between atoms: N1_3  and  C3_5
REMARK    3  A    between atoms: C4_8  and  C6_10
ROOT
HETATM    1  C4  UNL     1     -19.744  41.398  95.289  1.00  0.00     0.013 C
HETATM    2  C5  UNL     1     -20.114  41.367  96.778  1.00  0.00     0.012 C
ENDROOT
BRANCH   1   3
HETATM    3  C2  UNL     1     -18.262  41.484  95.264  1.00  0.00     0.086 C
HETATM    4  C1  UNL     1     -17.838  42.427  96.435  1.00  0.00     0.032 C
BRANCH   3   5
HETATM    5  N1  UNL     1     -17.722  42.209  94.105  1.00  0.00    -0.341 N
HETATM    6  C3  UNL     1     -16.745  41.584  93.288  1.00  0.00     0.329 C
HETATM    7  N2  UNL     1     -16.236  42.294  92.177  1.00  0.00    -0.040 NA
HETATM    8  O1  UNL     1     -16.313  40.427  93.509  1.00  0.00    -0.251 OA
ATOM      9  H1  UNL     1     -18.048  43.152  93.891  1.00  0.00     0.164 HD
ENDBRANCH   3   5
ENDBRANCH   1   3
BRANCH   1  10
HETATM   10  C6  UNL     1     -20.391  40.278  94.592  1.00  0.00    -0.030 C
HETATM   11  C7  UNL     1     -19.496  39.038  94.523  1.00  0.00     0.015 C
HETATM   12  C8  UNL     1     -19.767  38.519  93.154  1.00  0.00    -0.013 C
HETATM   13  C9  UNL     1     -21.228  38.113  93.118  1.00  0.00     0.010 C
HETATM   14  C13 UNL     1     -19.841  39.824  92.346  1.00  0.00     0.010 C
HETATM   15  C10 UNL     1     -21.888  39.441  93.419  1.00  0.00    -0.009 C
HETATM   16  C11 UNL     1     -21.765  39.830  94.910  1.00  0.00     0.015 C
HETATM   17  C12 UNL     1     -20.859  40.522  93.181  1.00  0.00    -0.001 C
ENDBRANCH   1  10
TORSDOF 3
ENDMDL