MODEL 1
REMARK VINA RESULT: -5.309002473      0.000      0.000
REMARK  4 active torsions:
REMARK  status: ('A' for Active; 'I' for Inactive)
REMARK    1  A    between atoms: C2_2  and  C3_3
REMARK    2  A    between atoms: C3_3  and  N1_4
REMARK    3  A    between atoms: N1_4  and  C4_6
REMARK    4  A    between atoms: C4_6  and  C5_10
ROOT
HETATM    1  C5  UNL     1     -12.362  36.623  96.802  1.00  0.00     0.087 C
HETATM    2  C6  UNL     1     -13.056  37.350  95.676  1.00  0.00     0.023 C
HETATM    3  C7  UNL     1     -13.040  38.790  96.205  1.00  0.00    -0.040 C
HETATM    4  C8  UNL     1     -14.262  39.457  95.577  1.00  0.00     0.015 C
HETATM    5  C9  UNL     1     -11.791  39.513  95.810  1.00  0.00     0.015 C
HETATM    6  C10 UNL     1     -13.188  38.692  97.692  1.00  0.00     0.056 C
HETATM    7  C11 UNL     1     -11.922  38.734  98.502  1.00  0.00     0.280 C
HETATM    8  N3  UNL     1     -12.187  37.419  99.068  1.00  0.00     0.090 N
HETATM    9  C12 UNL     1     -12.724  37.433 100.403  1.00  0.00     0.310 C
HETATM   10  C13 UNL     1     -13.119  37.208  98.003  1.00  0.00     0.240 C
ENDROOT
BRANCH   1  11
HETATM   11  C4  UNL     1     -12.580  35.179  96.810  1.00  0.00     0.076 C
HETATM   12  N2  UNL     1     -11.821  34.306  96.257  1.00  0.00    -0.389 N
ATOM     13  H22 UNL     1     -11.974  33.298  96.262  1.00  0.00     0.157 HD
ATOM     14  H21 UNL     1     -10.992  34.644  95.768  1.00  0.00     0.157 HD
BRANCH  11  15
HETATM   15  N1  UNL     1     -13.745  34.704  97.496  1.00  0.00    -0.380 N
ATOM     16  H1  UNL     1     -13.969  35.006  98.444  1.00  0.00     0.160 HD
BRANCH  15  17
HETATM   17  C3  UNL     1     -14.583  33.779  96.777  1.00  0.00     0.120 C
BRANCH  17  18
HETATM   18  C2  UNL     1     -15.571  34.467  95.875  1.00  0.00     0.015 C
HETATM   19  C1  UNL     1     -16.324  33.491  95.002  1.00  0.00     0.006 C
ENDBRANCH  17  18
ENDBRANCH  15  17
ENDBRANCH  11  15
ENDBRANCH   1  11
TORSDOF 4
ENDMDL