MODEL 5
REMARK VINA RESULT: -5.558265505      5.409      6.948
REMARK  3 active torsions:
REMARK  status: ('A' for Active; 'I' for Inactive)
REMARK    1  A    between atoms: C2_2  and  C4_4
REMARK    2  A    between atoms: C4_4  and  N1_5
REMARK       I    between atoms: N1_5  and  C5_7
REMARK       I    between atoms: C5_7  and  N2_9
REMARK    3  A    between atoms: N2_9  and  C6_11
ROOT
HETATM    1  N1  UNL     1     -14.735  38.695  95.217  1.00  0.00    -0.343 N
ATOM      2  H1  UNL     1     -14.624  39.707  95.285  1.00  0.00     0.164 HD
HETATM    3  C5  UNL     1     -15.920  38.202  94.666  1.00  0.00     0.316 C
HETATM    4  O1  UNL     1     -16.098  36.967  94.578  1.00  0.00    -0.247 OA
HETATM    5  N2  UNL     1     -16.925  39.079  94.206  1.00  0.00    -0.338 N
ATOM      6  H2  UNL     1     -16.750  40.080  94.291  1.00  0.00     0.164 HD
ENDROOT
BRANCH   5   7
HETATM    7  C6  UNL     1     -18.170  38.673  93.628  1.00  0.00     0.091 C
HETATM    8  C7  UNL     1     -18.505  39.429  92.331  1.00  0.00     0.031 C
HETATM    9  C8  UNL     1     -19.834  40.016  92.750  1.00  0.00    -0.004 C
HETATM   10  C9  UNL     1     -19.435  40.581  94.126  1.00  0.00     0.012 C
HETATM   11  C11 UNL     1     -20.532  38.944  93.565  1.00  0.00    -0.038 C
HETATM   12  C10 UNL     1     -19.323  39.098  94.468  1.00  0.00     0.017 C
HETATM   13  C12 UNL     1     -21.774  39.476  94.229  1.00  0.00     0.015 C
HETATM   14  C13 UNL     1     -20.761  37.638  92.917  1.00  0.00     0.015 C
ENDBRANCH   5   7
BRANCH   1  15
HETATM   15  C4  UNL     1     -13.668  37.869  95.693  1.00  0.00     0.128 C
BRANCH  15  16
HETATM   16  C2  UNL     1     -13.950  37.361  97.072  1.00  0.00    -0.005 C
HETATM   17  C1  UNL     1     -13.135  38.156  98.102  1.00  0.00     0.011 C
HETATM   18  C3  UNL     1     -13.592  35.894  97.140  1.00  0.00     0.011 C
ENDBRANCH  15  16
ENDBRANCH   1  15
TORSDOF 3
ENDMDL