MODEL 3
REMARK VINA RESULT: -4.861870782      5.860      7.992
REMARK  4 active torsions:
REMARK  status: ('A' for Active; 'I' for Inactive)
REMARK    1  A    between atoms: C5_7  and  C6_8
REMARK    2  A    between atoms: C6_8  and  C8_10
REMARK    3  A    between atoms: C8_10  and  N2_11
REMARK    4  A    between atoms: C8_10  and  N3_15
ROOT
HETATM    1  C6  UNL     1     -14.708  40.899  94.859  1.00  0.00    -0.014 C
HETATM    2  C7  UNL     1     -15.172  41.916  95.879  1.00  0.00     0.048 C
ENDROOT
BRANCH   1   3
HETATM    3  C5  UNL     1     -15.746  39.999  94.367  1.00  0.00    -0.000 A
HETATM    4  C3  UNL     1     -15.711  38.629  94.670  1.00  0.00     0.016 A
HETATM    5  N1  UNL     1     -16.789  38.106  94.076  1.00  0.00    -0.362 N
HETATM    6  C4  UNL     1     -14.764  37.836  95.465  1.00  0.00     0.069 C
HETATM    7  C2  UNL     1     -17.483  39.052  93.432  1.00  0.00     0.012 A
ATOM      8  H1  UNL     1     -17.048  37.120  94.109  1.00  0.00     0.165 HD
HETATM    9  C1  UNL     1     -18.754  38.869  92.645  1.00  0.00     0.068 C
HETATM   10  C12 UNL     1     -16.866  40.278  93.582  1.00  0.00    -0.027 A
HETATM   11  C13 UNL     1     -17.302  41.578  93.032  1.00  0.00     0.051 C
ENDBRANCH   1   3
BRANCH   1  12
HETATM   12  C8  UNL     1     -13.770  41.486  93.859  1.00  0.00     0.413 C
BRANCH  12  13
HETATM   13  N2  UNL     1     -13.586  40.465  92.762  1.00  0.00    -0.046 N
ATOM     14  H23 UNL     1     -12.606  40.298  92.533  1.00  0.00     0.277 HD
ATOM     15  H22 UNL     1     -13.816  39.516  93.057  1.00  0.00     0.277 HD
ATOM     16  H21 UNL     1     -14.134  40.778  91.960  1.00  0.00     0.277 HD
ENDBRANCH  12  13
BRANCH  12  17
HETATM   17  N3  UNL     1     -12.477  41.894  94.159  1.00  0.00    -0.046 N
HETATM   18  C9  UNL     1     -11.621  41.632  92.970  1.00  0.00     0.274 C
HETATM   19  C10 UNL     1     -11.812  41.041  95.178  1.00  0.00     0.274 C
HETATM   20  C11 UNL     1     -12.196  43.268  94.460  1.00  0.00     0.274 C
ENDBRANCH  12  17
ENDBRANCH   1  12
TORSDOF 4
ENDMDL