MODEL 4
REMARK VINA RESULT: -5.177541792      2.751      4.035
REMARK  4 active torsions:
REMARK  status: ('A' for Active; 'I' for Inactive)
REMARK    1  A    between atoms: C2_2  and  C3_3
REMARK    2  A    between atoms: C3_3  and  C5_5
REMARK       I    between atoms: C5_5  and  N1_7
REMARK    3  A    between atoms: N1_7  and  C6_9
REMARK    4  A    between atoms: C9_16  and  C10_17
ROOT
HETATM    1  C6  UNL     1     -18.988  40.778  92.194  1.00  0.00     0.135 A
HETATM    2  N2  UNL     1     -18.529  39.866  91.333  1.00  0.00    -0.284 N
ATOM      3  H2  UNL     1     -18.735  39.851  90.334  1.00  0.00     0.188 HD
HETATM    4  N3  UNL     1     -17.768  38.983  91.963  1.00  0.00    -0.303 N
ATOM      5  H3  UNL     1     -17.307  38.193  91.512  1.00  0.00     0.186 HD
HETATM    6  C7  UNL     1     -17.681  39.262  93.271  1.00  0.00     0.036 A
HETATM    7  C8  UNL     1     -16.861  38.465  94.239  1.00  0.00     0.070 C
HETATM    8  C9  UNL     1     -18.444  40.396  93.460  1.00  0.00     0.035 A
ENDROOT
BRANCH   1   9
HETATM    9  N1  UNL     1     -19.798  41.720  92.119  1.00  0.00    -0.311 N
HETATM   10  C5  UNL     1     -21.158  41.771  91.905  1.00  0.00     0.227 C
HETATM   11  O1  UNL     1     -21.614  42.044  90.767  1.00  0.00    -0.273 OA
ATOM     12  H1  UNL     1     -19.370  42.638  92.240  1.00  0.00     0.170 HD
BRANCH  10  13
HETATM   13  C3  UNL     1     -22.168  41.511  92.987  1.00  0.00     0.074 C
HETATM   14  C4  UNL     1     -23.175  42.593  93.082  1.00  0.00     0.020 C
BRANCH  13  15
HETATM   15  C2  UNL     1     -22.815  40.173  92.865  1.00  0.00     0.009 C
HETATM   16  C1  UNL     1     -21.978  39.061  93.430  1.00  0.00     0.006 C
ENDBRANCH  13  15
ENDBRANCH  10  13
ENDBRANCH   1   9
BRANCH   8  17
HETATM   17  C10 UNL     1     -18.573  41.137  94.697  1.00  0.00    -0.072 C
HETATM   18  C11 UNL     1     -17.368  41.744  95.293  1.00  0.00     0.044 C
HETATM   19  C12 UNL     1     -19.540  40.563  95.658  1.00  0.00     0.044 C
ENDBRANCH   8  17
TORSDOF 4
ENDMDL