MODEL 3
REMARK VINA RESULT: -7.675339523      2.491      9.165
REMARK  12 active torsions:
REMARK  status: ('A' for Active; 'I' for Inactive)
REMARK    1  A    between atoms: C2_2  and  C3_3
REMARK    2  A    between atoms: C3_3  and  N1_4
REMARK       I    between atoms: N1_4  and  C4_5
REMARK    3  A    between atoms: N1_4  and  C17_25
REMARK    4  A    between atoms: C4_5  and  C5_7
REMARK    5  A    between atoms: C5_7  and  C6_8
REMARK    6  A    between atoms: C6_8  and  C9_11
REMARK    7  A    between atoms: C10_14  and  C11_15
REMARK       I    between atoms: C11_15  and  N3_17
REMARK    8  A    between atoms: N3_17  and  C12_19
REMARK    9  A    between atoms: C19_27  and  C20_28
REMARK       I    between atoms: N4_33  and  C23_34
REMARK   10  A    between atoms: C23_34  and  C24_36
REMARK   11  A    between atoms: C24_36  and  C25_37
REMARK   12  A    between atoms: C25_37  and  C26_38
ROOT
HETATM    1  N1  UNL     1      11.454  61.627  16.400  1.00  0.00    -0.307 N
HETATM    2  C4  UNL     1      10.334  61.639  17.322  1.00  0.00     0.226 C
HETATM    3  O1  UNL     1       9.714  60.600  17.631  1.00  0.00    -0.273 OA
ENDROOT
BRANCH   1   4
HETATM    4  C3  UNL     1      11.787  60.332  15.916  1.00  0.00     0.133 C
BRANCH   4   5
HETATM    5  C2  UNL     1      11.082  59.756  14.763  1.00  0.00     0.016 C
HETATM    6  C1  UNL     1      10.048  60.472  14.020  1.00  0.00     0.006 C
ENDBRANCH   4   5
ENDBRANCH   1   4
BRANCH   1   7
HETATM    7  C17 UNL     1      12.109  62.809  16.050  1.00  0.00     0.091 C
HETATM    8  C18 UNL     1      12.669  63.013  14.710  1.00  0.00     0.092 C
HETATM    9  C19 UNL     1      13.237  64.409  14.524  1.00  0.00     0.095 C
HETATM   10  C21 UNL     1      14.186  64.789  15.630  1.00  0.00     0.036 C
HETATM   11  C22 UNL     1      13.360  64.727  16.900  1.00  0.00     0.134 C
HETATM   12  N4  UNL     1      13.071  63.288  17.044  1.00  0.00    -0.307 N
HETATM   13  C23 UNL     1      13.705  62.665  18.095  1.00  0.00     0.225 C
HETATM   14  O5  UNL     1      13.585  61.486  18.518  1.00  0.00    -0.273 OA
BRANCH   9  15
HETATM   15  C20 UNL     1      13.867  64.544  13.190  1.00  0.00     0.177 C
HETATM   16  O3  UNL     1      13.462  63.853  12.199  1.00  0.00    -0.648 OA
HETATM   17  O4  UNL     1      14.907  65.428  13.005  1.00  0.00    -0.648 OA
ENDBRANCH   9  15
BRANCH  13  18
HETATM   18  C24 UNL     1      14.704  63.469  18.887  1.00  0.00     0.114 C
BRANCH  18  19
HETATM   19  C25 UNL     1      13.969  64.358  19.895  1.00  0.00     0.122 C
BRANCH  19  20
HETATM   20  C26 UNL     1      14.726  65.585  20.145  1.00  0.00     0.172 C
HETATM   21  O6  UNL     1      15.441  66.082  19.240  1.00  0.00    -0.648 OA
HETATM   22  O7  UNL     1      14.668  66.216  21.370  1.00  0.00    -0.648 OA
ENDBRANCH  19  20
ENDBRANCH  18  19
ENDBRANCH  13  18
ENDBRANCH   1   7
BRANCH   2  23
HETATM   23  C5  UNL     1       9.861  62.892  17.947  1.00  0.00     0.118 C
BRANCH  23  24
HETATM   24  C6  UNL     1       9.927  62.854  19.459  1.00  0.00     0.010 C
HETATM   25  C7  UNL     1       9.876  64.329  19.902  1.00  0.00     0.022 C
HETATM   26  C8  UNL     1      11.084  62.141  20.031  1.00  0.00     0.022 C
BRANCH  24  27
HETATM   27  C9  UNL     1       8.592  62.318  19.918  1.00  0.00     0.059 A
HETATM   28  N2  UNL     1       7.606  61.793  19.250  1.00  0.00    -0.348 N
HETATM   29  C10 UNL     1       6.535  61.380  19.866  1.00  0.00     0.107 A
ATOM     30  H2  UNL     1       7.673  61.703  18.236  1.00  0.00     0.166 HD
HETATM   31  C16 UNL     1       6.511  61.528  21.235  1.00  0.00     0.086 A
HETATM   32  S1  UNL     1       8.032  62.252  21.533  1.00  0.00    -0.085 SA
BRANCH  29  33
HETATM   33  C11 UNL     1       5.371  60.761  19.172  1.00  0.00     0.269 C
HETATM   34  O2  UNL     1       4.249  60.669  19.716  1.00  0.00    -0.266 OA
HETATM   35  N3  UNL     1       5.495  60.247  17.851  1.00  0.00    -0.348 N
ATOM     36  H3  UNL     1       6.396  60.312  17.378  1.00  0.00     0.163 HD
BRANCH  35  37
HETATM   37  C12 UNL     1       4.382  59.635  17.157  1.00  0.00     0.022 C
HETATM   38  C13 UNL     1       4.841  59.198  15.784  1.00  0.00     0.037 C
HETATM   39  C14 UNL     1       3.932  58.361  17.864  1.00  0.00     0.037 C
HETATM   40  C15 UNL     1       3.177  60.540  17.081  1.00  0.00     0.037 C
ENDBRANCH  35  37
ENDBRANCH  29  33
ENDBRANCH  24  27
ENDBRANCH  23  24
ENDBRANCH   2  23
TORSDOF 12
ENDMDL