MODEL 5
REMARK VINA RESULT: -9.210401236      1.830      2.403
REMARK  13 active torsions:
REMARK  status: ('A' for Active; 'I' for Inactive)
REMARK    1  A    between atoms: C2_2  and  N1_3
REMARK    2  A    between atoms: N2_6  and  C5_7
REMARK    3  A    between atoms: C5_7  and  C6_8
REMARK    4  A    between atoms: C6_8  and  C7_9
REMARK    5  A    between atoms: C7_9  and  N3_10
REMARK    6  A    between atoms: N3_10  and  C8_11
REMARK    7  A    between atoms: N3_10  and  C22_28
REMARK    8  A    between atoms: C8_11  and  C9_12
REMARK    9  A    between atoms: C9_12  and  C10_13
REMARK   10  A    between atoms: C10_13  and  C11_14
REMARK   11  A    between atoms: C22_28  and  O2_29
REMARK   12  A    between atoms: C22_28  and  C23_31
REMARK   13  A    between atoms: C24_35  and  C25_36
ROOT
HETATM    1  N3  UNL     1      11.285  63.542  17.907  1.00  0.00    -0.361 N
ENDROOT
BRANCH   1   2
HETATM    2  C7  UNL     1      11.227  63.672  19.408  1.00  0.00     0.127 C
BRANCH   2   3
HETATM    3  C6  UNL     1       9.811  63.996  19.802  1.00  0.00     0.050 C
BRANCH   3   4
HETATM    4  C5  UNL     1       9.369  63.021  20.867  1.00  0.00     0.274 C
BRANCH   4   5
HETATM    5  N2  UNL     1       8.007  62.627  20.721  1.00  0.00     0.091 N
HETATM    6  C4  UNL     1       7.503  61.734  21.722  1.00  0.00     0.302 C
HETATM    7  C3  UNL     1       7.816  60.300  21.447  1.00  0.00     0.302 C
HETATM    8  N1  UNL     1       7.104  59.935  20.227  1.00  0.00     0.091 N
HETATM    9  C28 UNL     1       7.722  60.723  19.173  1.00  0.00     0.302 C
HETATM   10  C27 UNL     1       7.608  62.193  19.421  1.00  0.00     0.302 C
BRANCH   8  11
HETATM   11  C2  UNL     1       7.327  58.546  19.958  1.00  0.00     0.268 C
HETATM   12  C1  UNL     1       7.934  58.299  18.604  1.00  0.00     0.037 C
ENDBRANCH   8  11
ENDBRANCH   4   5
ENDBRANCH   3   4
ENDBRANCH   2   3
ENDBRANCH   1   2
BRANCH   1  13
HETATM   13  C8  UNL     1      10.771  62.347  17.341  1.00  0.00     0.125 C
BRANCH  13  14
HETATM   14  C9  UNL     1      11.321  61.994  15.971  1.00  0.00     0.021 C
BRANCH  14  15
HETATM   15  C10 UNL     1      10.310  61.513  14.992  1.00  0.00     0.016 C
BRANCH  15  16
HETATM   16  C11 UNL     1       9.606  60.245  15.322  1.00  0.00     0.082 C
HETATM   17  C12 UNL     1       8.106  60.543  15.159  1.00  0.00     0.055 C
HETATM   18  C13 UNL     1       7.291  59.331  15.198  1.00  0.00    -0.030 A
HETATM   19  C14 UNL     1       5.961  59.484  15.567  1.00  0.00     0.016 A
HETATM   20  C20 UNL     1       7.722  58.056  14.905  1.00  0.00     0.041 A
HETATM   21  C15 UNL     1       5.123  58.391  15.631  1.00  0.00    -0.055 A
HETATM   22  C16 UNL     1       3.708  58.609  16.030  1.00  0.00     0.049 C
HETATM   23  C17 UNL     1       5.564  57.111  15.335  1.00  0.00    -0.054 A
HETATM   24  C18 UNL     1       4.621  55.964  15.418  1.00  0.00     0.049 C
HETATM   25  C19 UNL     1       6.881  56.960  14.970  1.00  0.00     0.037 A
HETATM   26  N4  UNL     1       9.099  57.907  14.522  1.00  0.00    -0.326 N
HETATM   27  C21 UNL     1       9.936  59.089  14.467  1.00  0.00     0.226 C
ATOM     28  H4  UNL     1       9.479  56.989  14.294  1.00  0.00     0.169 HD
HETATM   29  O1  UNL     1      10.899  59.061  13.692  1.00  0.00    -0.273 OA
ENDBRANCH  15  16
ENDBRANCH  14  15
ENDBRANCH  13  14
ENDBRANCH   1  13
BRANCH   1  30
HETATM   30  C22 UNL     1      11.916  64.558  17.207  1.00  0.00     0.159 C
BRANCH  30  31
HETATM   31  O2  UNL     1      11.116  65.418  16.649  1.00  0.00    -0.345 OA
ATOM     32  H2  UNL     1      10.504  65.839  17.242  1.00  0.00     0.219 HD
ENDBRANCH  30  31
BRANCH  30  33
HETATM   33  C23 UNL     1      13.355  64.780  17.011  1.00  0.00     0.099 A
HETATM   34  S1  UNL     1      14.627  65.091  18.094  1.00  0.00    -0.008 SA
HETATM   35  N5  UNL     1      15.905  65.110  17.034  1.00  0.00    -0.320 N
HETATM   36  C24 UNL     1      15.359  64.877  15.837  1.00  0.00     0.130 A
ATOM     37  H5  UNL     1      16.889  65.264  17.251  1.00  0.00     0.174 HD
HETATM   38  C26 UNL     1      14.018  64.700  15.797  1.00  0.00     0.101 A
HETATM   39  N7  UNL     1      13.304  64.450  14.555  1.00  0.00    -0.098 NA
BRANCH  36  40
HETATM   40  C25 UNL     1      16.243  64.824  14.647  1.00  0.00     0.283 C
HETATM   41  N6  UNL     1      16.464  65.987  13.902  1.00  0.00    -0.056 NA
HETATM   42  O3  UNL     1      16.770  63.755  14.334  1.00  0.00    -0.269 OA
ENDBRANCH  36  40
ENDBRANCH  30  33
ENDBRANCH   1  30
TORSDOF 13
ENDMDL