MODEL 2
REMARK VINA RESULT: -8.584253804      2.785      9.020
REMARK  13 active torsions:
REMARK  status: ('A' for Active; 'I' for Inactive)
REMARK    1  A    between atoms: S1_2  and  C2_3
REMARK    2  A    between atoms: C2_3  and  C3_4
REMARK    3  A    between atoms: C3_4  and  C4_5
REMARK    4  A    between atoms: C4_5  and  N1_6
REMARK    5  A    between atoms: C4_5  and  C5_10
REMARK    6  A    between atoms: C5_10  and  O1_11
REMARK    7  A    between atoms: C5_10  and  C24_39
REMARK    8  A    between atoms: O1_11  and  C6_12
REMARK       I    between atoms: C6_12  and  N2_14
REMARK    9  A    between atoms: N2_14  and  C7_15
REMARK   10  A    between atoms: C7_15  and  C10_19
REMARK       I    between atoms: C10_19  and  N4_21
REMARK   11  A    between atoms: N4_21  and  C11_23
REMARK   12  A    between atoms: C11_23  and  C12_24
REMARK       I    between atoms: C12_24  and  N5_26
REMARK   13  A    between atoms: N6_29  and  C15_30
ROOT
HETATM    1  C7  UNL     1      12.930  63.729  16.371  1.00  0.00     0.262 C
HETATM    2  C8  UNL     1      13.574  63.923  14.967  1.00  0.00     0.082 C
HETATM    3  C9  UNL     1      11.740  64.766  16.597  1.00  0.00     0.115 C
HETATM    4  N3  UNL     1      10.882  65.511  16.770  1.00  0.00    -0.193 NA
ENDROOT
BRANCH   1   5
HETATM    5  N2  UNL     1      13.864  64.126  17.293  1.00  0.00    -0.353 NA
HETATM    6  C6  UNL     1      14.820  64.526  18.242  1.00  0.00     0.437 C
HETATM    7  O2  UNL     1      15.477  64.292  19.124  1.00  0.00    -0.221 OA
BRANCH   6   8
HETATM    8  O1  UNL     1      14.931  65.956  17.534  1.00  0.00    -0.284 OA
BRANCH   8   9
HETATM    9  C5  UNL     1      16.032  66.564  17.772  1.00  0.00     0.172 C
BRANCH   9  10
HETATM   10  C4  UNL     1      17.208  66.416  16.648  1.00  0.00     0.214 C
BRANCH  10  11
HETATM   11  C3  UNL     1      16.707  65.659  15.519  1.00  0.00     0.045 C
BRANCH  11  12
HETATM   12  C2  UNL     1      17.586  65.940  14.298  1.00  0.00     0.075 C
BRANCH  12  13
HETATM   13  S1  UNL     1      16.258  66.598  13.135  1.00  0.00    -0.173 SA
HETATM   14  C1  UNL     1      16.858  68.156  12.372  1.00  0.00     0.089 C
ENDBRANCH  12  13
ENDBRANCH  11  12
ENDBRANCH  10  11
BRANCH  10  15
HETATM   15  N1  UNL     1      18.174  65.608  17.472  1.00  0.00    -0.072 N
ATOM     16  H13 UNL     1      17.880  65.558  18.448  1.00  0.00     0.274 HD
ATOM     17  H12 UNL     1      18.123  64.616  17.240  1.00  0.00     0.274 HD
ATOM     18  H11 UNL     1      19.128  65.962  17.389  1.00  0.00     0.274 HD
ENDBRANCH  10  15
ENDBRANCH   9  10
BRANCH   9  19
HETATM   19  C24 UNL     1      15.951  67.922  18.406  1.00  0.00    -0.022 C
HETATM   20  C25 UNL     1      14.551  68.434  18.757  1.00  0.00     0.017 C
HETATM   21  C26 UNL     1      16.178  67.400  20.002  1.00  0.00     0.017 C
HETATM   22  C27 UNL     1      16.985  68.916  18.321  1.00  0.00     0.017 C
ENDBRANCH   9  19
ENDBRANCH   8   9
ENDBRANCH   6   8
ENDBRANCH   1   5
BRANCH   1  23
HETATM   23  C10 UNL     1      12.168  62.502  16.300  1.00  0.00     0.275 C
HETATM   24  O3  UNL     1      12.704  61.439  16.679  1.00  0.00    -0.268 OA
HETATM   25  N4  UNL     1      10.833  62.539  15.859  1.00  0.00    -0.339 N
ATOM     26  H4  UNL     1      10.489  63.434  15.513  1.00  0.00     0.163 HD
BRANCH  25  27
HETATM   27  C11 UNL     1       9.924  61.467  15.849  1.00  0.00     0.114 C
HETATM   28  C20 UNL     1      10.555  60.468  14.765  1.00  0.00     0.041 C
HETATM   29  C21 UNL     1       9.449  60.166  13.829  1.00  0.00     0.003 C
HETATM   30  C22 UNL     1       8.248  61.016  14.132  1.00  0.00     0.003 C
HETATM   31  C23 UNL     1       8.643  61.993  15.169  1.00  0.00     0.041 C
BRANCH  27  32
HETATM   32  C12 UNL     1       9.785  60.606  16.994  1.00  0.00     0.248 C
HETATM   33  O4  UNL     1      10.189  59.570  17.044  1.00  0.00    -0.271 OA
HETATM   34  N5  UNL     1       9.070  61.136  18.160  1.00  0.00    -0.347 N
HETATM   35  C13 UNL     1       8.150  59.972  18.591  1.00  0.00     0.156 C
HETATM   36  C19 UNL     1       9.001  62.255  18.989  1.00  0.00     0.156 C
HETATM   37  C14 UNL     1       7.069  60.521  19.492  1.00  0.00     0.292 C
HETATM   38  N6  UNL     1       7.700  60.995  20.690  1.00  0.00     0.096 N
HETATM   39  C18 UNL     1       8.835  61.799  20.489  1.00  0.00     0.292 C
BRANCH  38  40
HETATM   40  C15 UNL     1       7.933  59.983  21.661  1.00  0.00     0.223 A
HETATM   41  C16 UNL     1       7.690  58.534  21.419  1.00  0.00     0.038 A
HETATM   42  C17 UNL     1       6.815  59.303  22.352  1.00  0.00     0.038 A
ENDBRANCH  38  40
ENDBRANCH  27  32
ENDBRANCH  25  27
ENDBRANCH   1  23
TORSDOF 13
ENDMDL