MODEL 4
REMARK VINA RESULT: -8.833916817      0.666      1.828
REMARK  12 active torsions:
REMARK  status: ('A' for Active; 'I' for Inactive)
REMARK    1  A    between atoms: C2_2  and  N1_3
REMARK    2  A    between atoms: N1_3  and  C3_4
REMARK    3  A    between atoms: N1_3  and  C5_6
REMARK    4  A    between atoms: C6_9  and  N3_10
REMARK    5  A    between atoms: C10_14  and  C11_15
REMARK       I    between atoms: C11_15  and  N4_17
REMARK    6  A    between atoms: N4_17  and  C12_19
REMARK    7  A    between atoms: C12_19  and  C14_21
REMARK    8  A    between atoms: C12_19  and  C15_24
REMARK    9  A    between atoms: C14_21  and  O2_22
REMARK       I    between atoms: C15_24  and  N5_26
REMARK   10  A    between atoms: N5_26  and  C16_28
REMARK   11  A    between atoms: C16_28  and  C17_29
REMARK   12  A    between atoms: C23_36  and  N7_37
ROOT
HETATM    1  C17 UNL     1       5.423  58.474  17.241  1.00  0.00     0.154 C
HETATM    2  C18 UNL     1       4.499  59.333  16.462  1.00  0.00     0.061 C
HETATM    3  N6  UNL     1       3.778  60.017  15.869  1.00  0.00    -0.197 NA
ENDROOT
BRANCH   1   4
HETATM    4  C16 UNL     1       6.111  59.391  18.214  1.00  0.00     0.045 C
HETATM    5  C19 UNL     1       5.206  60.073  19.231  1.00  0.00     0.032 C
HETATM    6  C20 UNL     1       6.320  59.804  20.258  1.00  0.00     0.005 C
HETATM    7  C21 UNL     1       6.671  58.596  19.412  1.00  0.00     0.032 C
BRANCH   4   8
HETATM    8  N5  UNL     1       7.119  60.203  17.634  1.00  0.00    -0.349 N
HETATM    9  C15 UNL     1       8.177  59.714  16.826  1.00  0.00     0.248 C
HETATM   10  O3  UNL     1       8.253  58.502  16.587  1.00  0.00    -0.271 OA
ATOM     11  H5  UNL     1       7.082  61.206  17.812  1.00  0.00     0.163 HD
BRANCH   9  12
HETATM   12  C12 UNL     1       9.204  60.625  16.252  1.00  0.00     0.131 C
HETATM   13  C13 UNL     1      10.041  59.739  15.315  1.00  0.00     0.051 C
BRANCH  12  14
HETATM   14  N4  UNL     1      10.070  61.073  17.318  1.00  0.00    -0.340 N
HETATM   15  C11 UNL     1      11.182  61.896  17.048  1.00  0.00     0.241 C
HETATM   16  O1  UNL     1      11.435  62.243  15.882  1.00  0.00    -0.271 OA
ATOM     17  H4  UNL     1       9.875  60.789  18.278  1.00  0.00     0.163 HD
BRANCH  15  18
HETATM   18  C10 UNL     1      12.062  62.358  18.147  1.00  0.00     0.178 C
HETATM   19  N3  UNL     1      12.244  63.782  18.071  1.00  0.00    -0.354 N
HETATM   20  C7  UNL     1      11.056  64.401  18.592  1.00  0.00     0.125 C
HETATM   21  C8  UNL     1      10.516  63.487  19.647  1.00  0.00     0.022 C
HETATM   22  C9  UNL     1      11.243  62.179  19.427  1.00  0.00     0.037 C
BRANCH  19  23
HETATM   23  C6  UNL     1      13.388  64.438  17.534  1.00  0.00     0.107 A
HETATM   24  N2  UNL     1      13.834  64.197  16.303  1.00  0.00    -0.328 N
HETATM   25  C5  UNL     1      14.920  64.824  15.720  1.00  0.00     0.113 A
ATOM     26  H2  UNL     1      13.338  63.499  15.749  1.00  0.00     0.169 HD
HETATM   27  C29 UNL     1      15.621  65.768  16.416  1.00  0.00     0.009 A
HETATM   28  C23 UNL     1      15.175  66.042  17.716  1.00  0.00     0.043 A
HETATM   29  C30 UNL     1      16.777  66.504  15.899  1.00  0.00     0.054 C
HETATM   30  C22 UNL     1      14.072  65.382  18.261  1.00  0.00     0.078 A
BRANCH  25  31
HETATM   31  N1  UNL     1      15.248  64.442  14.400  1.00  0.00    -0.367 N
BRANCH  31  32
HETATM   32  C2  UNL     1      16.184  63.304  14.281  1.00  0.00     0.120 C
HETATM   33  C1  UNL     1      17.599  63.711  14.063  1.00  0.00     0.026 C
ENDBRANCH  31  32
BRANCH  31  34
HETATM   34  C3  UNL     1      14.720  64.978  13.206  1.00  0.00     0.120 C
HETATM   35  C4  UNL     1      14.539  64.035  12.047  1.00  0.00     0.026 C
ENDBRANCH  31  34
ENDBRANCH  25  31
BRANCH  28  36
HETATM   36  N7  UNL     1      15.876  66.985  18.503  1.00  0.00    -0.380 N
HETATM   37  C24 UNL     1      17.258  66.777  18.827  1.00  0.00     0.123 C
HETATM   38  C25 UNL     1      17.798  67.951  19.627  1.00  0.00     0.020 C
HETATM   39  C26 UNL     1      16.902  68.099  20.839  1.00  0.00     0.003 C
HETATM   40  C27 UNL     1      15.477  68.366  20.462  1.00  0.00     0.020 C
HETATM   41  C28 UNL     1      15.200  68.162  18.987  1.00  0.00     0.123 C
ENDBRANCH  28  36
ENDBRANCH  19  23
ENDBRANCH  15  18
ENDBRANCH  12  14
BRANCH  12  42
HETATM   42  C14 UNL     1       8.624  61.772  15.515  1.00  0.00     0.204 C
BRANCH  42  43
HETATM   43  O2  UNL     1       7.481  61.478  14.798  1.00  0.00    -0.398 OA
ATOM     44  H2  UNL     1       7.593  61.481  13.855  1.00  0.00     0.209 HD
ENDBRANCH  42  43
ENDBRANCH  12  42
ENDBRANCH   9  12
ENDBRANCH   4   8
ENDBRANCH   1   4
TORSDOF 12
ENDMDL