MODEL 3
REMARK VINA RESULT: -8.934901212      1.363      3.706
REMARK  14 active torsions:
REMARK  status: ('A' for Active; 'I' for Inactive)
REMARK    1  A    between atoms: C2_2  and  N1_3
REMARK    2  A    between atoms: C2_2  and  C27_40
REMARK    3  A    between atoms: N1_3  and  O1_4
REMARK    4  A    between atoms: O1_4  and  C3_5
REMARK    5  A    between atoms: C3_5  and  C4_6
REMARK    6  A    between atoms: C4_6  and  N2_7
REMARK       I    between atoms: N2_7  and  C5_9
REMARK    7  A    between atoms: C5_9  and  C6_11
REMARK    8  A    between atoms: C8_13  and  N3_14
REMARK       I    between atoms: N3_14  and  C9_16
REMARK    9  A    between atoms: C9_16  and  C10_18
REMARK   10  A    between atoms: C12_20  and  O4_21
REMARK   11  A    between atoms: O4_21  and  C13_22
REMARK   12  A    between atoms: C13_22  and  C14_23
REMARK   13  A    between atoms: C14_23  and  N4_24
REMARK   14  A    between atoms: C20_30  and  C21_31
ROOT
HETATM    1  N3  UNL     1      13.881  62.652  16.632  1.00  0.00    -0.308 N
ATOM      2  H3  UNL     1      14.316  62.162  15.851  1.00  0.00     0.170 HD
HETATM    3  C9  UNL     1      13.104  61.854  17.465  1.00  0.00     0.257 C
HETATM    4  O3  UNL     1      13.643  61.142  18.399  1.00  0.00    -0.267 OA
ENDROOT
BRANCH   1   5
HETATM    5  C8  UNL     1      14.134  63.890  16.690  1.00  0.00     0.126 A
HETATM    6  C7  UNL     1      14.175  64.578  17.906  1.00  0.00     0.086 A
HETATM    7  C6  UNL     1      14.491  65.885  17.626  1.00  0.00     0.119 A
HETATM    8  N6  UNL     1      14.626  65.929  16.290  1.00  0.00    -0.292 N
HETATM    9  N5  UNL     1      14.420  64.758  15.717  1.00  0.00    -0.280 N
ATOM     10  H6  UNL     1      14.863  66.776  15.773  1.00  0.00     0.187 HD
HETATM   11  C26 UNL     1      14.487  64.542  14.257  1.00  0.00     0.179 C
BRANCH   7  12
HETATM   12  C5  UNL     1      14.632  67.000  18.566  1.00  0.00     0.269 C
HETATM   13  N2  UNL     1      15.339  66.809  19.760  1.00  0.00    -0.353 N
ATOM     14  H2  UNL     1      15.739  65.893  19.961  1.00  0.00     0.162 HD
HETATM   15  O2  UNL     1      14.122  68.090  18.286  1.00  0.00    -0.266 OA
BRANCH  13  16
HETATM   16  C4  UNL     1      15.510  67.867  20.700  1.00  0.00     0.153 C
BRANCH  16  17
HETATM   17  C3  UNL     1      16.912  67.974  21.223  1.00  0.00     0.237 C
BRANCH  17  18
HETATM   18  O1  UNL     1      17.848  67.532  20.281  1.00  0.00    -0.207 OA
BRANCH  18  19
HETATM   19  N1  UNL     1      18.122  67.649  19.080  1.00  0.00    -0.279 NA
BRANCH  19  20
HETATM   20  C2  UNL     1      18.325  67.779  17.903  1.00  0.00     0.189 C
HETATM   21  C1  UNL     1      18.652  69.116  17.311  1.00  0.00     0.095 C
BRANCH  20  22
HETATM   22  C27 UNL     1      18.263  66.666  16.982  1.00  0.00     0.239 C
HETATM   23  O5  UNL     1      17.529  66.676  15.972  1.00  0.00    -0.642 OA
HETATM   24  O6  UNL     1      19.022  65.507  17.172  1.00  0.00    -0.642 OA
ENDBRANCH  20  22
ENDBRANCH  19  20
ENDBRANCH  18  19
ENDBRANCH  17  18
ENDBRANCH  16  17
ENDBRANCH  13  16
ENDBRANCH   7  12
ENDBRANCH   1   5
BRANCH   3  25
HETATM   25  C10 UNL     1      11.656  61.749  17.369  1.00  0.00     0.035 A
HETATM   26  C11 UNL     1      10.837  62.195  18.405  1.00  0.00     0.053 A
HETATM   27  C12 UNL     1       9.464  62.114  18.263  1.00  0.00     0.070 A
HETATM   28  C19 UNL     1       8.885  61.601  17.128  1.00  0.00     0.044 A
HETATM   29  C20 UNL     1       9.672  61.148  16.081  1.00  0.00    -0.047 A
HETATM   30  C25 UNL     1      11.029  61.238  16.241  1.00  0.00     0.025 A
BRANCH  27  31
HETATM   31  O4  UNL     1       8.672  62.582  19.330  1.00  0.00    -0.349 OA
BRANCH  31  32
HETATM   32  C13 UNL     1       9.163  62.467  20.662  1.00  0.00     0.206 C
BRANCH  32  33
HETATM   33  C14 UNL     1       8.911  61.032  21.085  1.00  0.00     0.299 C
BRANCH  33  34
HETATM   34  N4  UNL     1       7.573  60.676  20.618  1.00  0.00     0.090 N
HETATM   35  C15 UNL     1       7.550  59.347  20.015  1.00  0.00     0.272 C
HETATM   36  C16 UNL     1       7.804  58.387  21.140  1.00  0.00     0.032 C
HETATM   37  C17 UNL     1       7.209  59.103  22.328  1.00  0.00     0.032 C
HETATM   38  C18 UNL     1       6.712  60.432  21.793  1.00  0.00     0.272 C
ENDBRANCH  33  34
ENDBRANCH  32  33
ENDBRANCH  31  32
ENDBRANCH  27  31
BRANCH  29  39
HETATM   39  C21 UNL     1       9.099  60.605  14.835  1.00  0.00    -0.024 C
HETATM   40  C22 UNL     1       7.995  61.529  14.345  1.00  0.00     0.019 C
HETATM   41  C23 UNL     1      10.172  60.433  13.776  1.00  0.00     0.019 C
HETATM   42  C24 UNL     1       8.513  59.208  15.060  1.00  0.00     0.019 C
ENDBRANCH  29  39
ENDBRANCH   3  25
TORSDOF 14
ENDMDL