MODEL 5
REMARK VINA RESULT: -8.141909786      3.741      5.331
REMARK  12 active torsions:
REMARK  status: ('A' for Active; 'I' for Inactive)
REMARK    1  A    between atoms: O1_2  and  C2_3
REMARK    2  A    between atoms: C2_3  and  C3_4
REMARK    3  A    between atoms: C3_4  and  C4_5
REMARK    4  A    between atoms: C4_5  and  N1_6
REMARK    5  A    between atoms: N1_6  and  C5_8
REMARK    6  A    between atoms: C5_8  and  C7_10
REMARK    7  A    between atoms: C10_14  and  N2_15
REMARK       I    between atoms: N2_15  and  C11_17
REMARK    8  A    between atoms: C11_17  and  C12_19
REMARK    9  A    between atoms: C12_19  and  N3_20
REMARK   10  A    between atoms: N4_32  and  C22_33
REMARK   11  A    between atoms: C22_33  and  C23_34
REMARK       I    between atoms: C23_34  and  N5_36
REMARK   12  A    between atoms: N5_36  and  C24_38
ROOT
HETATM    1  C7  UNL     1      10.833  61.570  15.663  1.00  0.00     0.061 A
HETATM    2  C8  UNL     1      11.592  62.477  14.875  1.00  0.00     0.052 A
HETATM    3  C9  UNL     1      12.634  63.201  15.377  1.00  0.00     0.029 A
HETATM    4  S1  UNL     1      13.565  64.286  14.465  1.00  0.00    -0.071 SA
HETATM    5  C10 UNL     1      14.805  65.040  15.366  1.00  0.00     0.081 A
HETATM    6  C18 UNL     1      14.837  64.636  16.687  1.00  0.00     0.093 A
HETATM    7  C19 UNL     1      14.006  63.742  17.274  1.00  0.00     0.191 A
HETATM    8  O3  UNL     1      14.217  63.513  18.520  1.00  0.00    -0.287 OA
HETATM    9  C20 UNL     1      12.965  63.051  16.695  1.00  0.00     0.099 A
HETATM   10  C21 UNL     1      12.218  62.165  17.444  1.00  0.00     0.264 A
HETATM   11  O4  UNL     1      12.519  62.024  18.664  1.00  0.00    -0.267 OA
HETATM   12  N4  UNL     1      11.164  61.430  16.932  1.00  0.00    -0.303 N
ENDROOT
BRANCH   5  13
HETATM   13  N2  UNL     1      15.714  65.972  14.812  1.00  0.00    -0.320 N
HETATM   14  C11 UNL     1      16.900  65.566  14.163  1.00  0.00     0.251 C
HETATM   15  O2  UNL     1      17.148  64.334  14.074  1.00  0.00    -0.271 OA
ATOM     16  H2  UNL     1      15.505  66.968  14.884  1.00  0.00     0.169 HD
BRANCH  14  17
HETATM   17  C12 UNL     1      17.844  66.570  13.589  1.00  0.00     0.374 C
BRANCH  17  18
HETATM   18  N3  UNL     1      17.263  67.891  13.537  1.00  0.00     0.097 N
HETATM   19  C13 UNL     1      18.206  68.836  14.054  1.00  0.00     0.273 C
HETATM   20  C14 UNL     1      18.240  70.092  13.165  1.00  0.00     0.030 C
HETATM   21  C15 UNL     1      18.810  69.637  11.842  1.00  0.00     0.003 C
HETATM   22  C16 UNL     1      17.917  68.595  11.258  1.00  0.00     0.030 C
HETATM   23  C17 UNL     1      16.845  68.169  12.201  1.00  0.00     0.273 C
ENDBRANCH  17  18
ENDBRANCH  14  17
ENDBRANCH   5  13
BRANCH   1  24
HETATM   24  C5  UNL     1       9.702  60.884  15.024  1.00  0.00     0.032 C
HETATM   25  C6  UNL     1       8.505  61.754  14.810  1.00  0.00     0.070 C
BRANCH  24  26
HETATM   26  N1  UNL     1      10.006  59.906  14.042  1.00  0.00    -0.371 N
ATOM     27  H1  UNL     1      10.481  60.174  13.180  1.00  0.00     0.164 HD
BRANCH  26  28
HETATM   28  C4  UNL     1       9.647  58.564  14.263  1.00  0.00     0.063 C
BRANCH  28  29
HETATM   29  C3  UNL     1       8.269  58.115  13.946  1.00  0.00     0.070 C
BRANCH  29  30
HETATM   30  C2  UNL     1       7.540  57.546  15.145  1.00  0.00     0.172 C
BRANCH  30  31
HETATM   31  O1  UNL     1       8.224  57.635  16.327  1.00  0.00    -0.396 OA
HETATM   32  C1  UNL     1       7.525  58.229  17.337  1.00  0.00     0.201 C
ENDBRANCH  30  31
ENDBRANCH  29  30
ENDBRANCH  28  29
ENDBRANCH  26  28
ENDBRANCH  24  26
ENDBRANCH   1  24
BRANCH  12  33
HETATM   33  C22 UNL     1      10.578  60.529  17.851  1.00  0.00     0.235 C
BRANCH  33  34
HETATM   34  C23 UNL     1       9.595  61.136  18.782  1.00  0.00     0.236 C
HETATM   35  O5  UNL     1       8.499  61.550  18.378  1.00  0.00    -0.272 OA
HETATM   36  N5  UNL     1       9.840  61.286  20.182  1.00  0.00    -0.352 N
ATOM     37  H5  UNL     1      10.727  60.968  20.572  1.00  0.00     0.163 HD
BRANCH  36  38
HETATM   38  C24 UNL     1       8.846  61.885  21.063  1.00  0.00     0.022 C
HETATM   39  C25 UNL     1       8.476  63.274  20.563  1.00  0.00     0.037 C
HETATM   40  C26 UNL     1       9.393  61.970  22.459  1.00  0.00     0.037 C
HETATM   41  C27 UNL     1       7.570  61.070  21.081  1.00  0.00     0.037 C
ENDBRANCH  36  38
ENDBRANCH  33  34
ENDBRANCH  12  33
TORSDOF 12
ENDMDL