MODEL 2
REMARK VINA RESULT: -8.902615903      0.842      1.031
REMARK  14 active torsions:
REMARK  status: ('A' for Active; 'I' for Inactive)
REMARK    1  A    between atoms: N1_2  and  C2_4
REMARK    2  A    between atoms: N3_8  and  C4_10
REMARK    3  A    between atoms: C4_10  and  C5_11
REMARK    4  A    between atoms: C5_11  and  O1_12
REMARK    5  A    between atoms: C8_16  and  C9_17
REMARK    6  A    between atoms: C10_18  and  C11_19
REMARK    7  A    between atoms: C11_19  and  C13_21
REMARK    8  A    between atoms: C11_19  and  C24_35
REMARK    9  A    between atoms: C13_21  and  C14_22
REMARK   10  A    between atoms: C17_25  and  N4_26
REMARK   11  A    between atoms: N4_26  and  C19_28
REMARK   12  A    between atoms: C19_28  and  C20_29
REMARK   13  A    between atoms: C20_29  and  C21_30
REMARK   14  A    between atoms: C21_30  and  N5_31
ROOT
HETATM    1  C9  UNL     1      13.497  64.804  19.525  1.00  0.00    -0.066 C
HETATM    2  C10 UNL     1      12.582  64.025  19.381  1.00  0.00    -0.084 C
ENDROOT
BRANCH   2   3
HETATM    3  C11 UNL     1      11.443  63.098  19.143  1.00  0.00     0.070 C
HETATM    4  C12 UNL     1      11.611  62.012  20.281  1.00  0.00     0.036 C
BRANCH   3   5
HETATM    5  C13 UNL     1      10.202  63.764  19.495  1.00  0.00     0.093 C
BRANCH   5   6
HETATM    6  C14 UNL     1       9.044  62.947  19.894  1.00  0.00     0.057 A
HETATM    7  C15 UNL     1       8.336  62.858  21.060  1.00  0.00     0.037 A
HETATM    8  C16 UNL     1       7.353  61.910  20.838  1.00  0.00     0.059 A
HETATM    9  C17 UNL     1       7.509  61.455  19.520  1.00  0.00     0.145 A
HETATM   10  O2  UNL     1       8.494  62.088  19.034  1.00  0.00    -0.298 OA
BRANCH   9  11
HETATM   11  N4  UNL     1       6.663  60.442  18.898  1.00  0.00    -0.366 N
HETATM   12  C18 UNL     1       5.309  60.433  19.348  1.00  0.00     0.151 C
BRANCH  11  13
HETATM   13  C19 UNL     1       7.175  59.571  17.902  1.00  0.00     0.126 C
BRANCH  13  14
HETATM   14  C20 UNL     1       6.264  59.300  16.759  1.00  0.00     0.050 C
BRANCH  14  15
HETATM   15  C21 UNL     1       6.672  59.821  15.423  1.00  0.00     0.273 C
BRANCH  15  16
HETATM   16  N5  UNL     1       8.094  60.164  15.357  1.00  0.00     0.080 N
HETATM   17  C22 UNL     1       8.231  61.463  14.715  1.00  0.00     0.309 C
HETATM   18  C23 UNL     1       8.877  59.190  14.631  1.00  0.00     0.309 C
ENDBRANCH  15  16
ENDBRANCH  14  15
ENDBRANCH  13  14
ENDBRANCH  11  13
ENDBRANCH   9  11
ENDBRANCH   5   6
ENDBRANCH   3   5
BRANCH   3  19
HETATM   19  C24 UNL     1      11.580  62.345  17.913  1.00  0.00     0.048 A
HETATM   20  C25 UNL     1      11.576  60.970  17.788  1.00  0.00     0.116 A
HETATM   21  N6  UNL     1      11.703  60.615  16.515  1.00  0.00    -0.360 N
HETATM   22  C26 UNL     1      11.786  61.721  15.795  1.00  0.00     0.182 A
ATOM     23  H6  UNL     1      11.730  59.660  16.156  1.00  0.00     0.166 HD
HETATM   24  N7  UNL     1      11.714  62.773  16.628  1.00  0.00    -0.348 N
HETATM   25  C27 UNL     1      11.761  64.126  16.166  1.00  0.00     0.157 C
ENDBRANCH   3  19
ENDBRANCH   2   3
BRANCH   1  26
HETATM   26  C8  UNL     1      14.562  65.761  19.636  1.00  0.00     0.018 A
HETATM   27  C7  UNL     1      15.394  65.994  18.538  1.00  0.00     0.038 A
HETATM   28  C6  UNL     1      16.445  66.872  18.569  1.00  0.00     0.037 A
HETATM   29  C3  UNL     1      17.230  67.035  17.415  1.00  0.00     0.129 A
HETATM   30  C30 UNL     1      16.733  67.567  19.684  1.00  0.00     0.063 A
HETATM   31  N2  UNL     1      18.255  67.878  17.447  1.00  0.00    -0.176 N
HETATM   32  N3  UNL     1      16.887  66.394  16.408  1.00  0.00    -0.373 N
HETATM   33  C2  UNL     1      18.549  68.576  18.555  1.00  0.00     0.679 A
ATOM     34  H2  UNL     1      18.830  67.998  16.612  1.00  0.00     0.186 HD
HETATM   35  N8  UNL     1      17.785  68.420  19.680  1.00  0.00    -0.191 N
ATOM     36  H8  UNL     1      18.010  68.950  20.522  1.00  0.00     0.184 HD
ATOM     37  H3  UNL     1      16.077  65.802  16.591  1.00  0.00     0.161 HD
HETATM   38  C29 UNL     1      15.930  67.366  20.800  1.00  0.00     0.032 A
HETATM   39  C28 UNL     1      14.854  66.464  20.753  1.00  0.00     0.023 A
BRANCH  33  40
HETATM   40  N1  UNL     1      19.541  69.400  18.651  1.00  0.00    -0.230 N
HETATM   41  C1  UNL     1      19.726  70.556  17.823  1.00  0.00     0.165 C
ATOM     42  H1  UNL     1      20.243  69.214  19.367  1.00  0.00     0.177 HD
ENDBRANCH  33  40
BRANCH  32  43
HETATM   43  C4  UNL     1      17.335  66.278  15.078  1.00  0.00     0.147 C
BRANCH  43  44
HETATM   44  C5  UNL     1      17.747  64.838  14.748  1.00  0.00     0.183 C
BRANCH  44  45
HETATM   45  O1  UNL     1      16.851  63.993  15.385  1.00  0.00    -0.399 OA
ATOM     46  H1  UNL     1      17.224  63.766  16.229  1.00  0.00     0.209 HD
ENDBRANCH  44  45
ENDBRANCH  43  44
ENDBRANCH  32  43
ENDBRANCH   1  26
TORSDOF 14
ENDMDL