MODEL 4
REMARK VINA RESULT: -8.965324762      1.166      3.128
REMARK  16 active torsions:
REMARK  status: ('A' for Active; 'I' for Inactive)
REMARK    1  A    between atoms: C3_3  and  C4_4
REMARK    2  A    between atoms: C4_4  and  O1_5
REMARK    3  A    between atoms: O1_5  and  C5_6
REMARK    4  A    between atoms: C7_10  and  C8_11
REMARK    5  A    between atoms: C8_11  and  N1_14
REMARK    6  A    between atoms: N1_14  and  C11_16
REMARK    7  A    between atoms: C11_16  and  C12_17
REMARK    8  A    between atoms: C11_16  and  C19_24
REMARK    9  A    between atoms: C12_17  and  C13_18
REMARK   10  A    between atoms: C22_30  and  O4_31
REMARK   11  A    between atoms: N3_33  and  C23_34
REMARK   12  A    between atoms: C23_34  and  O5_35
REMARK   13  A    between atoms: C23_34  and  C24_37
REMARK   14  A    between atoms: C24_37  and  O6_38
REMARK   15  A    between atoms: C24_37  and  C27_42
REMARK   16  A    between atoms: O6_38  and  C25_39
ROOT
HETATM    1  C1  UNL     1       9.097  61.819  18.203  1.00  0.00     0.041 C
HETATM    2  C2  UNL     1      10.341  61.621  17.970  1.00  0.00     0.038 C
HETATM    3  C3  UNL     1      11.399  61.739  19.076  1.00  0.00     0.197 C
HETATM    4  O3  UNL     1      12.314  62.417  18.338  1.00  0.00    -0.350 OA
HETATM    5  C7  UNL     1      12.258  62.169  16.974  1.00  0.00     0.258 C
HETATM    6  N3  UNL     1      11.122  61.287  16.831  1.00  0.00    -0.301 N
ENDROOT
BRANCH   5   7
HETATM    7  C8  UNL     1      12.309  63.461  16.294  1.00  0.00     0.067 C
HETATM    8  C9  UNL     1      11.900  63.207  14.792  1.00  0.00     0.042 C
HETATM    9  C10 UNL     1      11.117  64.319  16.778  1.00  0.00     0.042 C
BRANCH   7  10
HETATM   10  N1  UNL     1      13.368  64.264  16.208  1.00  0.00    -0.379 N
ATOM     11  H1  UNL     1      13.130  65.114  15.696  1.00  0.00     0.160 HD
BRANCH  10  12
HETATM   12  C11 UNL     1      14.722  64.294  16.612  1.00  0.00     0.035 C
BRANCH  12  13
HETATM   13  C12 UNL     1      15.627  63.549  15.707  1.00  0.00     0.005 C
BRANCH  13  14
HETATM   14  C13 UNL     1      15.709  63.815  14.246  1.00  0.00     0.010 C
HETATM   15  C14 UNL     1      14.833  64.920  13.813  1.00  0.00     0.008 C
HETATM   16  C15 UNL     1      15.403  66.271  13.611  1.00  0.00     0.001 C
HETATM   17  C16 UNL     1      16.855  66.362  13.303  1.00  0.00     0.000 C
HETATM   18  C17 UNL     1      17.575  65.477  14.335  1.00  0.00     0.001 C
HETATM   19  C18 UNL     1      17.200  64.074  13.964  1.00  0.00     0.008 C
ENDBRANCH  13  14
ENDBRANCH  12  13
BRANCH  12  20
HETATM   20  C19 UNL     1      15.139  65.621  17.138  1.00  0.00     0.263 C
HETATM   21  N2  UNL     1      16.310  65.617  17.981  1.00  0.00    -0.063 N
HETATM   22  C20 UNL     1      16.336  67.058  18.401  1.00  0.00     0.236 C
ATOM     23  H22 UNL     1      16.309  64.933  18.739  1.00  0.00     0.278 HD
ATOM     24  H21 UNL     1      17.165  65.264  17.552  1.00  0.00     0.278 HD
HETATM   25  C21 UNL     1      14.912  67.205  18.914  1.00  0.00     0.061 C
HETATM   26  C22 UNL     1      14.128  66.162  18.145  1.00  0.00     0.156 C
BRANCH  26  27
HETATM   27  O4  UNL     1      13.828  65.119  19.018  1.00  0.00    -0.393 OA
ATOM     28  H4  UNL     1      13.369  65.501  19.757  1.00  0.00     0.210 HD
ENDBRANCH  26  27
ENDBRANCH  12  20
ENDBRANCH  10  12
ENDBRANCH   7  10
ENDBRANCH   5   7
BRANCH   6  29
HETATM   29  C23 UNL     1      10.807  60.262  15.929  1.00  0.00     0.151 C
BRANCH  29  30
HETATM   30  O5  UNL     1      11.881  59.640  15.450  1.00  0.00    -0.347 OA
ATOM     31  H5  UNL     1      12.314  59.093  16.095  1.00  0.00     0.219 HD
ENDBRANCH  29  30
BRANCH  29  32
HETATM   32  C24 UNL     1       9.630  59.664  15.364  1.00  0.00     0.210 C
BRANCH  32  33
HETATM   33  O6  UNL     1       9.610  58.395  14.819  1.00  0.00    -0.308 OA
BRANCH  33  34
HETATM   34  C25 UNL     1       8.478  57.584  14.766  1.00  0.00     0.255 C
HETATM   35  C26 UNL     1       7.788  57.407  13.483  1.00  0.00     0.126 C
HETATM   36  O7  UNL     1       8.115  57.054  15.821  1.00  0.00    -0.266 OA
ENDBRANCH  33  34
ENDBRANCH  32  33
BRANCH  32  37
HETATM   37  C27 UNL     1       8.896  60.616  14.402  1.00  0.00     0.023 A
HETATM   38  C28 UNL     1       8.444  61.963  14.826  1.00  0.00     0.008 A
HETATM   39  C29 UNL     1       7.441  60.853  14.720  1.00  0.00     0.008 A
ENDBRANCH  32  37
ENDBRANCH  29  32
ENDBRANCH   6  29
BRANCH   3  40
HETATM   40  C4  UNL     1      10.923  62.511  20.251  1.00  0.00     0.217 C
BRANCH  40  41
HETATM   41  O1  UNL     1      10.522  61.653  21.291  1.00  0.00    -0.319 OA
BRANCH  41  42
HETATM   42  C5  UNL     1       9.252  61.864  21.852  1.00  0.00     0.254 C
HETATM   43  C6  UNL     1       8.780  63.270  22.060  1.00  0.00     0.126 C
HETATM   44  O2  UNL     1       8.516  60.904  22.178  1.00  0.00    -0.266 OA
ENDBRANCH  41  42
ENDBRANCH  40  41
ENDBRANCH   3  40
TORSDOF 16
ENDMDL