MODEL 5
REMARK VINA RESULT: -9.092149064      2.250      9.025
REMARK  13 active torsions:
REMARK  status: ('A' for Active; 'I' for Inactive)
REMARK    1  A    between atoms: C2_2  and  C3_3
REMARK    2  A    between atoms: C4_6  and  N2_7
REMARK    3  A    between atoms: N2_7  and  C5_9
REMARK    4  A    between atoms: C5_9  and  C6_10
REMARK    5  A    between atoms: C6_10  and  N3_11
REMARK    6  A    between atoms: C11_19  and  N5_20
REMARK    7  A    between atoms: N5_20  and  C12_22
REMARK    8  A    between atoms: C20_31  and  N7_32
REMARK    9  A    between atoms: N7_32  and  C21_34
REMARK   10  A    between atoms: C21_34  and  C22_35
REMARK   11  A    between atoms: C22_35  and  C23_36
REMARK   12  A    between atoms: C26_39  and  O2_40
REMARK   13  A    between atoms: C28_42  and  O3_43
ROOT
HETATM    1  C3  UNL     1      12.863  62.943  18.821  1.00  0.00     0.056 A
HETATM    2  N1  UNL     1      12.065  62.897  19.926  1.00  0.00    -0.193 N
ATOM      3  H1  UNL     1      12.268  63.485  20.734  1.00  0.00     0.184 HD
HETATM    4  C4  UNL     1      11.011  62.071  19.936  1.00  0.00     0.680 A
HETATM    5  N4  UNL     1      10.758  61.298  18.853  1.00  0.00    -0.175 N
ATOM      6  H4  UNL     1       9.951  60.675  18.881  1.00  0.00     0.186 HD
HETATM    7  C11 UNL     1      11.508  61.310  17.759  1.00  0.00     0.146 A
HETATM    8  C20 UNL     1      12.622  62.169  17.721  1.00  0.00     0.096 A
ENDROOT
BRANCH   8   9
HETATM    9  N7  UNL     1      13.464  62.211  16.596  1.00  0.00    -0.385 N
ATOM     10  H7  UNL     1      14.285  61.606  16.629  1.00  0.00     0.159 HD
BRANCH   9  11
HETATM   11  C21 UNL     1      13.313  62.992  15.418  1.00  0.00     0.124 C
BRANCH  11  12
HETATM   12  C22 UNL     1      13.467  64.471  15.595  1.00  0.00     0.058 C
BRANCH  12  13
HETATM   13  C23 UNL     1      14.705  65.036  15.012  1.00  0.00    -0.054 A
HETATM   14  C24 UNL     1      14.801  65.511  13.722  1.00  0.00     0.010 A
HETATM   15  C25 UNL     1      15.977  66.026  13.217  1.00  0.00     0.040 A
HETATM   16  C26 UNL     1      17.130  66.098  13.970  1.00  0.00     0.101 A
HETATM   17  C28 UNL     1      17.052  65.625  15.269  1.00  0.00     0.102 A
HETATM   18  C30 UNL     1      15.877  65.110  15.774  1.00  0.00     0.046 A
BRANCH  16  19
HETATM   19  O2  UNL     1      18.317  66.615  13.468  1.00  0.00    -0.353 OA
HETATM   20  C27 UNL     1      18.297  67.850  12.775  1.00  0.00     0.210 C
ENDBRANCH  16  19
BRANCH  17  21
HETATM   21  O3  UNL     1      18.224  65.703  16.015  1.00  0.00    -0.353 OA
HETATM   22  C29 UNL     1      18.245  66.343  17.269  1.00  0.00     0.210 C
ENDBRANCH  17  21
ENDBRANCH  12  13
ENDBRANCH  11  12
ENDBRANCH   9  11
ENDBRANCH   8   9
BRANCH   1  23
HETATM   23  C2  UNL     1      13.984  63.888  18.899  1.00  0.00     0.055 C
HETATM   24  C1  UNL     1      13.626  65.196  19.552  1.00  0.00     0.011 C
ENDBRANCH   1  23
BRANCH   7  25
HETATM   25  N5  UNL     1      11.320  60.608  16.713  1.00  0.00    -0.367 N
ATOM     26  H5  UNL     1      12.033  59.908  16.510  1.00  0.00     0.161 HD
BRANCH  25  27
HETATM   27  C12 UNL     1      10.234  60.679  15.792  1.00  0.00     0.118 C
HETATM   28  C13 UNL     1       8.873  60.479  16.441  1.00  0.00     0.068 C
HETATM   29  C14 UNL     1       8.020  60.244  15.185  1.00  0.00     0.154 C
HETATM   30  C15 UNL     1       7.819  61.569  14.448  1.00  0.00     0.049 C
HETATM   31  C16 UNL     1       6.662  59.718  15.541  1.00  0.00     0.049 C
HETATM   32  N6  UNL     1       8.832  59.344  14.433  1.00  0.00     0.099 N
HETATM   33  C17 UNL     1       8.489  57.962  14.555  1.00  0.00     0.311 C
HETATM   34  C18 UNL     1      10.213  59.545  14.778  1.00  0.00     0.242 C
HETATM   35  C19 UNL     1      11.058  59.897  13.578  1.00  0.00     0.045 C
ENDBRANCH  25  27
ENDBRANCH   7  25
BRANCH   4  36
HETATM   36  N2  UNL     1      10.242  62.013  20.984  1.00  0.00    -0.224 N
ATOM     37  H2  UNL     1      10.508  61.412  21.764  1.00  0.00     0.177 HD
BRANCH  36  38
HETATM   38  C5  UNL     1       9.024  62.779  21.066  1.00  0.00     0.168 C
BRANCH  38  39
HETATM   39  C6  UNL     1       7.853  61.977  21.525  1.00  0.00     0.292 C
BRANCH  39  40
HETATM   40  N3  UNL     1       7.973  60.621  21.093  1.00  0.00     0.094 N
HETATM   41  C7  UNL     1       7.728  59.624  22.081  1.00  0.00     0.298 C
HETATM   42  C8  UNL     1       7.688  58.275  21.370  1.00  0.00     0.198 C
HETATM   43  O1  UNL     1       6.587  58.160  20.542  1.00  0.00    -0.388 OA
HETATM   44  C9  UNL     1       6.103  59.375  20.085  1.00  0.00     0.198 C
HETATM   45  C10 UNL     1       7.223  60.368  19.905  1.00  0.00     0.298 C
ENDBRANCH  39  40
ENDBRANCH  38  39
ENDBRANCH  36  38
ENDBRANCH   4  36
TORSDOF 13
ENDMDL