MODEL 1
REMARK VINA RESULT: -8.504606344      0.000      0.000
REMARK  11 active torsions:
REMARK  status: ('A' for Active; 'I' for Inactive)
REMARK    1  A    between atoms: C2_2  and  N1_3
REMARK    2  A    between atoms: N2_6  and  C5_7
REMARK    3  A    between atoms: C6_8  and  C7_9
REMARK       I    between atoms: C7_9  and  N3_11
REMARK    4  A    between atoms: N3_11  and  C8_13
REMARK    5  A    between atoms: C8_13  and  C9_14
REMARK    6  A    between atoms: C9_14  and  O2_15
REMARK    7  A    between atoms: C16_24  and  N5_25
REMARK       I    between atoms: N5_25  and  C17_27
REMARK    8  A    between atoms: C17_27  and  C18_29
REMARK    9  A    between atoms: C18_29  and  C19_30
REMARK   10  A    between atoms: C19_30  and  N6_31
REMARK   11  A    between atoms: C22_34  and  O4_35
ROOT
HETATM    1  C5  UNL     1       9.706  61.774  18.229  1.00  0.00     0.074 A
HETATM    2  C6  UNL     1       9.100  61.441  19.404  1.00  0.00     0.060 A
HETATM    3  C11 UNL     1       9.567  62.012  20.609  1.00  0.00     0.020 A
HETATM    4  C12 UNL     1      10.613  62.886  20.584  1.00  0.00     0.016 A
HETATM    5  C13 UNL     1      11.235  63.235  19.402  1.00  0.00     0.005 A
HETATM    6  C14 UNL     1      10.789  62.687  18.234  1.00  0.00     0.072 A
HETATM    7  N4  UNL     1      11.557  63.193  17.248  1.00  0.00    -0.351 N
ATOM      8  H4  UNL     1      11.461  62.968  16.258  1.00  0.00     0.166 HD
HETATM    9  C15 UNL     1      12.473  64.038  17.764  1.00  0.00     0.074 A
HETATM   10  C16 UNL     1      13.496  64.810  17.200  1.00  0.00     0.098 A
HETATM   11  C22 UNL     1      14.289  65.585  18.025  1.00  0.00     0.118 A
HETATM   12  C24 UNL     1      14.076  65.603  19.399  1.00  0.00     0.081 A
HETATM   13  C25 UNL     1      14.899  66.404  20.262  1.00  0.00     0.102 C
HETATM   14  N7  UNL     1      15.560  67.074  20.966  1.00  0.00    -0.191 NA
HETATM   15  C26 UNL     1      13.087  64.862  19.967  1.00  0.00     0.040 A
HETATM   16  C27 UNL     1      12.293  64.085  19.126  1.00  0.00     0.007 A
ENDROOT
BRANCH  11  17
HETATM   17  O4  UNL     1      15.300  66.348  17.487  1.00  0.00    -0.352 OA
HETATM   18  C23 UNL     1      16.640  65.943  17.348  1.00  0.00     0.210 C
ENDBRANCH  11  17
BRANCH  10  19
HETATM   19  N5  UNL     1      13.616  64.777  15.806  1.00  0.00    -0.323 N
HETATM   20  C17 UNL     1      14.228  63.813  15.001  1.00  0.00     0.224 C
HETATM   21  O3  UNL     1      14.781  62.773  15.510  1.00  0.00    -0.273 OA
ATOM     22  H5  UNL     1      13.199  65.565  15.310  1.00  0.00     0.169 HD
BRANCH  20  23
HETATM   23  C18 UNL     1      14.276  63.936  13.502  1.00  0.00     0.133 C
BRANCH  23  24
HETATM   24  C19 UNL     1      15.676  64.172  13.033  1.00  0.00     0.280 C
BRANCH  24  25
HETATM   25  N6  UNL     1      16.398  65.088  13.893  1.00  0.00     0.080 N
HETATM   26  C20 UNL     1      17.747  64.626  14.155  1.00  0.00     0.309 C
HETATM   27  C21 UNL     1      16.485  66.406  13.306  1.00  0.00     0.309 C
ENDBRANCH  24  25
ENDBRANCH  23  24
ENDBRANCH  20  23
ENDBRANCH  10  19
BRANCH   1  28
HETATM   28  N2  UNL     1       9.390  61.239  16.944  1.00  0.00    -0.369 N
HETATM   29  C4  UNL     1       9.914  59.908  16.569  1.00  0.00     0.168 C
HETATM   30  C3  UNL     1       8.746  59.104  16.073  1.00  0.00     0.083 C
HETATM   31  N1  UNL     1       8.171  59.719  14.942  1.00  0.00    -0.371 N
HETATM   32  C29 UNL     1       8.368  61.095  14.727  1.00  0.00     0.083 C
HETATM   33  C28 UNL     1       8.679  61.934  15.928  1.00  0.00     0.168 C
BRANCH  31  34
HETATM   34  C2  UNL     1       8.074  58.901  13.779  1.00  0.00     0.122 C
HETATM   35  C1  UNL     1       7.628  57.489  14.075  1.00  0.00     0.027 C
ENDBRANCH  31  34
ENDBRANCH   1  28
BRANCH   2  36
HETATM   36  C7  UNL     1       7.962  60.560  19.563  1.00  0.00     0.254 C
HETATM   37  O1  UNL     1       8.157  59.602  20.387  1.00  0.00    -0.268 OA
HETATM   38  N3  UNL     1       6.736  60.668  18.933  1.00  0.00    -0.355 N
ATOM     39  H3  UNL     1       6.635  61.459  18.298  1.00  0.00     0.162 HD
BRANCH  38  40
HETATM   40  C8  UNL     1       5.581  59.815  19.052  1.00  0.00     0.149 C
BRANCH  40  41
HETATM   41  C9  UNL     1       5.227  58.974  17.885  1.00  0.00     0.186 C
BRANCH  41  42
HETATM   42  O2  UNL     1       5.227  59.564  16.657  1.00  0.00    -0.394 OA
HETATM   43  C10 UNL     1       4.472  58.793  15.767  1.00  0.00     0.201 C
ENDBRANCH  41  42
ENDBRANCH  40  41
ENDBRANCH  38  40
ENDBRANCH   2  36
TORSDOF 11
ENDMDL