MODEL 4
REMARK VINA RESULT: -6.759131958      1.715      2.489
REMARK  2 active torsions:
REMARK  status: ('A' for Active; 'I' for Inactive)
REMARK    1  A    between atoms: C2_3  and  N2_4
REMARK    2  A    between atoms: C3_9  and  N4_10
REMARK       I    between atoms: N6_16  and  C5_18
REMARK       I    between atoms: C5_18  and  N7_19
REMARK       I    between atoms: C5_18  and  N8_23
ROOT
HETATM    1  C1  UNL     1      32.381  21.651  31.345  1.00  0.00     0.195 C
HETATM    2  N1  UNL     1      33.323  21.441  32.433  1.00  0.00    -0.018 N
HETATM    3  C2  UNL     1      33.130  20.369  33.241  1.00  0.00     0.706 A
HETATM    4  N3  UNL     1      33.969  20.133  34.255  1.00  0.00    -0.022 N
ATOM      5  H3  UNL     1      33.822  19.327  34.861  1.00  0.00     0.203 HD
HETATM    6  C3  UNL     1      35.008  20.959  34.476  1.00  0.00     0.705 A
HETATM    7  N5  UNL     1      35.204  22.009  33.691  1.00  0.00    -0.021 N
ATOM      8  H5  UNL     1      35.996  22.625  33.873  1.00  0.00     0.203 HD
HETATM    9  C4  UNL     1      34.350  22.293  32.619  1.00  0.00     0.712 A
HETATM   10  N6  UNL     1      34.626  23.298  31.954  1.00  0.00    -0.172 N
ATOM     11  H6  UNL     1      35.463  23.722  32.355  1.00  0.00     0.181 HD
HETATM   12  C5  UNL     1      34.240  24.050  30.894  1.00  0.00     0.494 C
HETATM   13  N7  UNL     1      35.019  23.765  29.674  1.00  0.00    -0.032 N
ATOM     14  H71 UNL     1      34.729  24.331  28.877  1.00  0.00     0.278 HD
ATOM     15  H72 UNL     1      34.990  22.771  29.446  1.00  0.00     0.278 HD
ATOM     16  H73 UNL     1      36.019  23.866  29.848  1.00  0.00     0.278 HD
HETATM   17  N8  UNL     1      34.591  25.481  31.229  1.00  0.00    -0.032 N
ATOM     18  H81 UNL     1      34.301  26.047  30.431  1.00  0.00     0.278 HD
ATOM     19  H82 UNL     1      35.572  25.608  31.476  1.00  0.00     0.278 HD
ATOM     20  H83 UNL     1      34.194  25.797  32.114  1.00  0.00     0.278 HD
ENDROOT
BRANCH   3  21
HETATM   21  N2  UNL     1      32.109  19.571  33.012  1.00  0.00    -0.233 N
ATOM     22  H22 UNL     1      31.329  19.876  32.431  1.00  0.00     0.174 HD
ATOM     23  H21 UNL     1      32.107  18.638  33.424  1.00  0.00     0.174 HD
ENDBRANCH   3  21
BRANCH   6  24
HETATM   24  N4  UNL     1      35.796  20.679  35.482  1.00  0.00    -0.234 N
ATOM     25  H42 UNL     1      35.783  21.212  36.351  1.00  0.00     0.174 HD
ATOM     26  H41 UNL     1      36.438  19.895  35.370  1.00  0.00     0.174 HD
ENDBRANCH   6  24
TORSDOF 2
ENDMDL