MODEL 1
REMARK VINA RESULT: -7.264246961      0.000      0.000
REMARK  3 active torsions:
REMARK  status: ('A' for Active; 'I' for Inactive)
REMARK       I    between atoms: C1_4  and  N3_6
REMARK    1  A    between atoms: N3_6  and  C2_8
REMARK    2  A    between atoms: C4_15  and  N6_16
REMARK    3  A    between atoms: N7_19  and  N8_20
ROOT
HETATM    1  C2  UNL     1      34.422  22.011  32.253  1.00  0.00     0.724 A
HETATM    2  N4  UNL     1      34.923  23.248  32.117  1.00  0.00    -0.138 N
ATOM      3  H4  UNL     1      35.856  23.464  32.468  1.00  0.00     0.189 HD
HETATM    4  C3  UNL     1      34.191  24.202  31.517  1.00  0.00     0.352 A
HETATM    5  O1  UNL     1      34.611  25.380  31.361  1.00  0.00    -0.246 OA
HETATM    6  N5  UNL     1      32.961  23.923  31.053  1.00  0.00    -0.139 N
ATOM      7  H5  UNL     1      32.406  24.648  30.597  1.00  0.00     0.189 HD
HETATM    8  C4  UNL     1      32.462  22.666  31.194  1.00  0.00     0.715 A
HETATM    9  N7  UNL     1      33.194  21.724  31.793  1.00  0.00     0.083 N
ENDROOT
BRANCH   1  10
HETATM   10  N3  UNL     1      35.084  21.059  32.822  1.00  0.00    -0.161 N
HETATM   11  C1  UNL     1      35.177  20.890  34.217  1.00  0.00     0.200 C
HETATM   12  N1  UNL     1      34.631  19.890  34.814  1.00  0.00    -0.373 N
HETATM   13  N2  UNL     1      35.885  21.836  35.004  1.00  0.00    -0.063 NA
ATOM     14  H12 UNL     1      34.699  19.769  35.824  1.00  0.00     0.158 HD
ATOM     15  H11 UNL     1      34.122  19.210  34.249  1.00  0.00     0.158 HD
ATOM     16  H3  UNL     1      35.568  20.389  32.225  1.00  0.00     0.187 HD
ENDBRANCH   1  10
BRANCH   9  17
HETATM   17  N8  UNL     1      32.682  20.436  31.938  1.00  0.00    -0.309 N
ATOM     18  H82 UNL     1      32.019  20.073  31.254  1.00  0.00     0.178 HD
ATOM     19  H81 UNL     1      32.974  19.860  32.728  1.00  0.00     0.178 HD
ENDBRANCH   9  17
BRANCH   8  20
HETATM   20  N6  UNL     1      31.286  22.422  30.744  1.00  0.00    -0.232 N
ATOM     21  H62 UNL     1      30.567  23.144  30.702  1.00  0.00     0.174 HD
ATOM     22  H61 UNL     1      31.077  21.478  30.421  1.00  0.00     0.174 HD
ENDBRANCH   8  20
TORSDOF 3
ENDMDL