MODEL 4
REMARK VINA RESULT: -7.355562659      2.552      4.361
REMARK  1 active torsions:
REMARK  status: ('A' for Active; 'I' for Inactive)
REMARK    1  A    between atoms: N6_14  and  N7_15
ROOT
HETATM    1  N1  UNL     1      36.034  20.651  35.418  1.00  0.00    -0.062 NA
HETATM    2  C1  UNL     1      35.252  20.886  34.228  1.00  0.00     0.208 C
HETATM    3  N2  UNL     1      35.026  20.020  33.295  1.00  0.00    -0.357 N
ATOM      4  H2  UNL     1      35.374  19.061  33.288  1.00  0.00     0.162 HD
HETATM    5  C2  UNL     1      34.204  20.612  32.263  1.00  0.00     0.199 C
HETATM    6  C3  UNL     1      33.526  21.720  33.031  1.00  0.00     0.240 C
HETATM    7  N3  UNL     1      32.390  21.205  33.780  1.00  0.00    -0.079 NA
HETATM    8  N4  UNL     1      31.249  21.555  33.040  1.00  0.00    -0.251 N
ATOM      9  H4  UNL     1      30.319  21.146  33.137  1.00  0.00     0.187 HD
HETATM   10  C4  UNL     1      31.630  22.596  32.119  1.00  0.00     0.335 C
HETATM   11  O1  UNL     1      30.784  23.179  31.406  1.00  0.00    -0.246 OA
HETATM   12  N5  UNL     1      33.040  22.778  32.208  1.00  0.00    -0.297 N
ATOM     13  H5  UNL     1      33.592  23.517  31.772  1.00  0.00     0.168 HD
HETATM   14  N6  UNL     1      34.606  22.116  33.913  1.00  0.00    -0.222 N
ENDROOT
BRANCH  14  15
HETATM   15  N7  UNL     1      35.007  23.355  34.399  1.00  0.00    -0.337 N
ATOM     16  H72 UNL     1      35.880  23.677  34.817  1.00  0.00     0.177 HD
ATOM     17  H71 UNL     1      34.419  24.188  34.398  1.00  0.00     0.177 HD
ENDBRANCH  14  15
TORSDOF 1
ENDMDL