MODEL 5
REMARK VINA RESULT: -8.214534172      2.803      3.438
REMARK  1 active torsions:
REMARK  status: ('A' for Active; 'I' for Inactive)
REMARK    1  A    between atoms: N8_20  and  N9_21
ROOT
HETATM    1  N1  UNL     1      34.667  19.694  33.508  1.00  0.00    -0.232 N
ATOM      2  H11 UNL     1      34.041  19.513  34.292  1.00  0.00     0.174 HD
ATOM      3  H12 UNL     1      35.572  19.327  33.215  1.00  0.00     0.174 HD
HETATM    4  C1  UNL     1      34.214  20.589  32.707  1.00  0.00     0.711 C
HETATM    5  N2  UNL     1      35.084  20.842  31.615  1.00  0.00    -0.113 N
ATOM      6  H2  UNL     1      35.750  20.084  31.463  1.00  0.00     0.203 HD
HETATM    7  N3  UNL     1      35.243  21.883  30.701  1.00  0.00     0.008 NA
HETATM    8  N4  UNL     1      34.104  22.164  29.970  1.00  0.00    -0.224 N
ATOM      9  H4  UNL     1      34.145  21.831  29.007  1.00  0.00     0.205 HD
HETATM   10  N5  UNL     1      32.911  22.812  30.286  1.00  0.00    -0.269 N
ATOM     11  H5  UNL     1      32.611  23.456  29.554  1.00  0.00     0.190 HD
HETATM   12  C2  UNL     1      32.097  22.788  31.285  1.00  0.00     0.172 A
HETATM   13  N6  UNL     1      30.937  23.613  31.266  1.00  0.00    -0.290 N
ATOM     14  H6  UNL     1      30.664  24.249  30.517  1.00  0.00     0.172 HD
HETATM   15  C3  UNL     1      30.227  23.389  32.478  1.00  0.00     0.327 A
HETATM   16  O1  UNL     1      29.149  23.951  32.804  1.00  0.00    -0.247 OA
HETATM   17  N7  UNL     1      30.983  22.416  33.221  1.00  0.00    -0.289 N
ATOM     18  H7  UNL     1      30.720  22.055  34.138  1.00  0.00     0.172 HD
HETATM   19  C4  UNL     1      32.027  22.068  32.578  1.00  0.00     0.194 A
HETATM   20  N8  UNL     1      32.930  21.111  33.122  1.00  0.00    -0.072 N
ENDROOT
BRANCH  20  21
HETATM   21  N9  UNL     1      32.439  20.582  34.311  1.00  0.00    -0.322 N
ATOM     22  H92 UNL     1      32.857  19.671  34.506  1.00  0.00     0.178 HD
ATOM     23  H91 UNL     1      31.758  21.167  34.792  1.00  0.00     0.178 HD
ENDBRANCH  20  21
TORSDOF 1
ENDMDL