MODEL 5
REMARK VINA RESULT: -7.781962805      1.741      1.891
REMARK  1 active torsions:
REMARK  status: ('A' for Active; 'I' for Inactive)
REMARK    1  A    between atoms: N6_14  and  N7_16
ROOT
HETATM    1  N1  UNL     1      35.106  20.210  30.509  1.00  0.00    -0.382 N
ATOM      2  H11 UNL     1      35.828  19.692  31.007  1.00  0.00     0.157 HD
ATOM      3  H12 UNL     1      34.981  20.329  29.503  1.00  0.00     0.157 HD
HETATM    4  C1  UNL     1      34.232  20.791  31.251  1.00  0.00     0.156 C
HETATM    5  N2  UNL     1      33.282  21.473  30.594  1.00  0.00    -0.312 N
ATOM      6  H2  UNL     1      33.323  21.438  29.576  1.00  0.00     0.170 HD
HETATM    7  C2  UNL     1      32.268  22.206  31.131  1.00  0.00     0.208 C
HETATM    8  N3  UNL     1      31.627  23.112  30.253  1.00  0.00    -0.062 NA
HETATM    9  N4  UNL     1      31.829  22.140  32.410  1.00  0.00    -0.272 N
ATOM     10  H4  UNL     1      30.837  22.341  32.533  1.00  0.00     0.189 HD
HETATM   11  N5  UNL     1      32.491  21.852  33.539  1.00  0.00    -0.279 N
ATOM     12  H5  UNL     1      32.114  22.242  34.403  1.00  0.00     0.189 HD
HETATM   13  C3  UNL     1      33.599  21.102  33.650  1.00  0.00     0.189 C
HETATM   14  N6  UNL     1      33.959  20.786  34.828  1.00  0.00    -0.288 N
ATOM     15  H6  UNL     1      33.377  21.128  35.593  1.00  0.00     0.188 HD
HETATM   16  C4  UNL     1      34.402  20.629  32.618  1.00  0.00     0.261 C
HETATM   17  O1  UNL     1      35.410  19.971  32.939  1.00  0.00    -0.280 OA
ENDROOT
BRANCH  14  18
HETATM   18  N7  UNL     1      35.053  20.031  35.173  1.00  0.00    -0.343 N
ATOM     19  H72 UNL     1      35.960  20.444  34.956  1.00  0.00     0.176 HD
ATOM     20  H71 UNL     1      35.041  19.114  35.618  1.00  0.00     0.176 HD
ENDBRANCH  14  18
TORSDOF 1
ENDMDL