MODEL 2
REMARK VINA RESULT: -8.673518891      2.035      2.886
REMARK  0 active torsions:
REMARK  status: ('A' for Active; 'I' for Inactive)
ROOT
HETATM    1  N1  UNL     1      35.896  20.368  35.693  1.00  0.00    -0.232 N
ATOM      2  H11 UNL     1      35.849  19.349  35.690  1.00  0.00     0.174 HD
ATOM      3  H12 UNL     1      36.272  20.831  36.520  1.00  0.00     0.174 HD
HETATM    4  C1  UNL     1      35.483  21.038  34.664  1.00  0.00     0.706 A
HETATM    5  N2  UNL     1      35.548  22.460  34.668  1.00  0.00    -0.129 N
ATOM      6  H2  UNL     1      35.924  22.929  35.492  1.00  0.00     0.205 HD
HETATM    7  N3  UNL     1      35.119  23.241  33.592  1.00  0.00    -0.264 N
ATOM      8  H3  UNL     1      35.180  24.258  33.629  1.00  0.00     0.189 HD
HETATM    9  C2  UNL     1      34.638  22.636  32.535  1.00  0.00     0.229 A
HETATM   10  C3  UNL     1      34.204  23.515  31.439  1.00  0.00     0.298 A
HETATM   11  O1  UNL     1      34.295  24.766  31.520  1.00  0.00    -0.264 OA
HETATM   12  N4  UNL     1      33.681  22.870  30.288  1.00  0.00    -0.271 N
ATOM     13  H4  UNL     1      33.365  23.432  29.496  1.00  0.00     0.174 HD
HETATM   14  C4  UNL     1      33.589  21.453  30.222  1.00  0.00     0.343 A
HETATM   15  O2  UNL     1      33.127  20.858  29.211  1.00  0.00    -0.245 OA
HETATM   16  N5  UNL     1      34.017  20.635  31.301  1.00  0.00    -0.228 N
ATOM     17  H5  UNL     1      33.943  19.620  31.231  1.00  0.00     0.194 HD
HETATM   18  N6  UNL     1      34.543  21.217  32.461  1.00  0.00    -0.154 N
HETATM   19  N7  UNL     1      34.959  20.394  33.512  1.00  0.00    -0.108 N
ATOM     20  H7  UNL     1      34.889  19.378  33.454  1.00  0.00     0.208 HD
ENDROOT
TORSDOF 0
ENDMDL