MODEL 3
REMARK VINA RESULT: -6.863777057      1.395      3.419
REMARK  5 active torsions:
REMARK  status: ('A' for Active; 'I' for Inactive)
REMARK    1  A    between atoms: N1_1  and  C1_4
REMARK    2  A    between atoms: N3_9  and  N4_10
REMARK    3  A    between atoms: N4_10  and  N5_12
REMARK    4  A    between atoms: C3_15  and  N6_16
REMARK    5  A    between atoms: N6_16  and  N7_18
ROOT
HETATM    1  C1  UNL     1      31.585  21.964  33.062  1.00  0.00     0.694 A
HETATM    2  N2  UNL     1      32.051  22.571  31.955  1.00  0.00    -0.139 N
ATOM      3  H2  UNL     1      31.494  23.265  31.456  1.00  0.00     0.189 HD
HETATM    4  C2  UNL     1      33.282  22.224  31.536  1.00  0.00     0.376 A
HETATM    5  O1  UNL     1      33.735  22.784  30.498  1.00  0.00    -0.243 OA
HETATM    6  N3  UNL     1      34.049  21.316  32.161  1.00  0.00    -0.015 N
HETATM    7  C3  UNL     1      33.567  20.718  33.265  1.00  0.00     0.737 A
HETATM    8  N8  UNL     1      32.325  21.049  33.715  1.00  0.00    -0.019 N
ATOM      9  H8  UNL     1      31.954  20.601  34.552  1.00  0.00     0.203 HD
ENDROOT
BRANCH   6  10
HETATM   10  N4  UNL     1      35.322  20.966  31.713  1.00  0.00    -0.224 N
ATOM     11  H4  UNL     1      36.143  21.157  32.286  1.00  0.00     0.209 HD
BRANCH  10  12
HETATM   12  N5  UNL     1      35.455  20.349  30.467  1.00  0.00    -0.330 N
ATOM     13  H52 UNL     1      34.914  19.509  30.262  1.00  0.00     0.178 HD
ATOM     14  H51 UNL     1      36.093  20.753  29.782  1.00  0.00     0.178 HD
ENDBRANCH  10  12
ENDBRANCH   6  10
BRANCH   7  15
HETATM   15  N6  UNL     1      34.297  19.853  33.862  1.00  0.00    -0.136 N
ATOM     16  H6  UNL     1      34.361  18.923  33.447  1.00  0.00     0.205 HD
BRANCH  15  17
HETATM   17  N7  UNL     1      35.005  20.081  35.027  1.00  0.00    -0.331 N
ATOM     18  H72 UNL     1      36.010  20.226  34.925  1.00  0.00     0.177 HD
ATOM     19  H71 UNL     1      34.599  20.114  35.962  1.00  0.00     0.177 HD
ENDBRANCH  15  17
ENDBRANCH   7  15
BRANCH   1  20
HETATM   20  N1  UNL     1      30.417  22.259  33.507  1.00  0.00    -0.234 N
ATOM     21  H12 UNL     1      29.691  22.544  32.849  1.00  0.00     0.174 HD
ATOM     22  H11 UNL     1      30.228  22.206  34.508  1.00  0.00     0.174 HD
ENDBRANCH   1  20
TORSDOF 5
ENDMDL