MODEL 2
REMARK VINA RESULT: -7.473983801      1.373      3.318
REMARK  3 active torsions:
REMARK  status: ('A' for Active; 'I' for Inactive)
REMARK    1  A    between atoms: N4_12  and  N5_14
REMARK    2  A    between atoms: C4_17  and  N6_18
REMARK    3  A    between atoms: N6_18  and  N7_20
ROOT
HETATM    1  N1  UNL     1      35.757  24.347  33.412  1.00  0.00    -0.234 N
ATOM      2  H11 UNL     1      36.073  24.358  34.382  1.00  0.00     0.174 HD
ATOM      3  H12 UNL     1      35.908  25.072  32.712  1.00  0.00     0.174 HD
HETATM    4  C1  UNL     1      35.101  23.305  33.045  1.00  0.00     0.681 C
HETATM    5  N2  UNL     1      34.677  23.290  31.745  1.00  0.00    -0.141 N
ATOM      6  H2  UNL     1      34.918  24.132  31.221  1.00  0.00     0.189 HD
HETATM    7  C2  UNL     1      34.006  22.376  31.033  1.00  0.00     0.340 C
HETATM    8  O1  UNL     1      33.892  22.587  29.821  1.00  0.00    -0.246 OA
HETATM    9  N3  UNL     1      33.431  21.233  31.507  1.00  0.00    -0.290 N
ATOM     10  H3  UNL     1      32.971  20.642  30.814  1.00  0.00     0.172 HD
HETATM   11  C3  UNL     1      33.397  20.791  32.774  1.00  0.00     0.170 C
HETATM   12  N4  UNL     1      32.499  19.946  33.060  1.00  0.00    -0.289 N
ATOM     13  H4  UNL     1      32.423  19.574  34.006  1.00  0.00     0.188 HD
HETATM   14  C4  UNL     1      34.237  21.174  33.778  1.00  0.00     0.181 C
HETATM   15  N8  UNL     1      34.902  22.352  33.965  1.00  0.00    -0.172 N
ATOM     16  H8  UNL     1      35.286  22.522  34.894  1.00  0.00     0.186 HD
ENDROOT
BRANCH  12  17
HETATM   17  N5  UNL     1      31.612  19.531  32.064  1.00  0.00    -0.344 N
ATOM     18  H52 UNL     1      31.501  20.099  31.224  1.00  0.00     0.176 HD
ATOM     19  H51 UNL     1      31.089  18.665  32.193  1.00  0.00     0.176 HD
ENDBRANCH  12  17
BRANCH  14  20
HETATM   20  N6  UNL     1      34.454  20.321  34.688  1.00  0.00    -0.288 N
ATOM     21  H6  UNL     1      33.744  19.616  34.889  1.00  0.00     0.188 HD
BRANCH  20  22
HETATM   22  N7  UNL     1      35.626  20.318  35.416  1.00  0.00    -0.344 N
ATOM     23  H72 UNL     1      35.560  20.369  36.433  1.00  0.00     0.176 HD
ATOM     24  H71 UNL     1      36.539  20.267  34.963  1.00  0.00     0.176 HD
ENDBRANCH  20  22
ENDBRANCH  14  20
TORSDOF 3
ENDMDL