MODEL 4
REMARK VINA RESULT: -7.699057722      1.857      2.385
REMARK  3 active torsions:
REMARK  status: ('A' for Active; 'I' for Inactive)
REMARK    1  A    between atoms: N1_1  and  C1_4
REMARK    2  A    between atoms: C2_7  and  N3_8
REMARK    3  A    between atoms: N3_8  and  N4_10
ROOT
HETATM    1  C1  UNL     1      34.262  22.713  32.451  1.00  0.00     0.693 C
HETATM    2  N2  UNL     1      34.661  21.873  33.409  1.00  0.00    -0.021 N
ATOM      3  H2  UNL     1      35.430  22.207  33.990  1.00  0.00     0.203 HD
HETATM    4  C2  UNL     1      34.194  20.648  33.716  1.00  0.00     0.712 C
HETATM    5  N5  UNL     1      33.207  19.969  33.105  1.00  0.00    -0.170 N
ATOM      6  H5  UNL     1      33.118  18.993  33.385  1.00  0.00     0.186 HD
HETATM    7  C3  UNL     1      32.325  20.378  32.185  1.00  0.00     0.184 C
HETATM    8  N6  UNL     1      31.470  19.493  31.824  1.00  0.00    -0.381 N
ATOM      9  H61 UNL     1      30.798  19.805  31.123  1.00  0.00     0.157 HD
ATOM     10  H62 UNL     1      31.519  18.568  32.250  1.00  0.00     0.157 HD
HETATM   11  C4  UNL     1      32.259  21.625  31.611  1.00  0.00     0.303 C
HETATM   12  O1  UNL     1      31.263  21.781  30.863  1.00  0.00    -0.263 OA
HETATM   13  N7  UNL     1      33.113  22.681  31.750  1.00  0.00    -0.153 N
ATOM     14  H7  UNL     1      32.852  23.541  31.268  1.00  0.00     0.187 HD
ENDROOT
BRANCH   4  15
HETATM   15  N3  UNL     1      34.737  20.017  34.715  1.00  0.00    -0.138 N
ATOM     16  H3  UNL     1      34.375  19.099  34.972  1.00  0.00     0.205 HD
BRANCH  15  17
HETATM   17  N4  UNL     1      35.792  20.550  35.445  1.00  0.00    -0.331 N
ATOM     18  H42 UNL     1      36.080  21.506  35.236  1.00  0.00     0.177 HD
ATOM     19  H41 UNL     1      36.276  20.020  36.170  1.00  0.00     0.177 HD
ENDBRANCH  15  17
ENDBRANCH   4  15
BRANCH   1  20
HETATM   20  N1  UNL     1      35.023  23.697  32.112  1.00  0.00    -0.234 N
ATOM     21  H12 UNL     1      35.099  23.804  31.101  1.00  0.00     0.174 HD
ATOM     22  H11 UNL     1      35.466  24.262  32.837  1.00  0.00     0.174 HD
ENDBRANCH   1  20
TORSDOF 3
ENDMDL