MODEL 2
REMARK VINA RESULT: -7.518339038      2.000      2.232
REMARK  5 active torsions:
REMARK  status: ('A' for Active; 'I' for Inactive)
REMARK    1  A    between atoms: N1_1  and  C1_4
REMARK    2  A    between atoms: C3_9  and  N3_10
REMARK    3  A    between atoms: N4_13  and  N5_14
REMARK    4  A    between atoms: C4_17  and  N6_18
REMARK    5  A    between atoms: N6_18  and  N7_20
ROOT
HETATM    1  C1  UNL     1      34.133  23.252  31.384  1.00  0.00     0.693 C
HETATM    2  N2  UNL     1      33.191  22.431  30.892  1.00  0.00    -0.153 N
ATOM      3  H2  UNL     1      32.991  22.555  29.899  1.00  0.00     0.187 HD
HETATM    4  C2  UNL     1      32.462  21.462  31.503  1.00  0.00     0.305 C
HETATM    5  O1  UNL     1      31.404  21.080  30.968  1.00  0.00    -0.263 OA
HETATM    6  C3  UNL     1      32.776  20.833  32.690  1.00  0.00     0.207 C
HETATM    7  N4  UNL     1      33.692  21.233  33.591  1.00  0.00    -0.069 N
HETATM    8  C4  UNL     1      34.449  22.363  33.627  1.00  0.00     0.733 C
HETATM    9  N8  UNL     1      34.632  23.263  32.647  1.00  0.00    -0.019 N
ATOM     10  H8  UNL     1      35.223  24.061  32.883  1.00  0.00     0.203 HD
ENDROOT
BRANCH   8  11
HETATM   11  N6  UNL     1      35.046  22.561  34.743  1.00  0.00    -0.136 N
ATOM     12  H6  UNL     1      35.162  21.770  35.377  1.00  0.00     0.205 HD
BRANCH  11  13
HETATM   13  N7  UNL     1      35.543  23.801  35.133  1.00  0.00    -0.331 N
ATOM     14  H72 UNL     1      35.742  23.934  36.125  1.00  0.00     0.177 HD
ATOM     15  H71 UNL     1      35.712  24.566  34.480  1.00  0.00     0.177 HD
ENDBRANCH  11  13
ENDBRANCH   8  11
BRANCH   7  16
HETATM   16  N5  UNL     1      33.919  20.375  34.667  1.00  0.00    -0.322 N
ATOM     17  H52 UNL     1      33.147  19.732  34.846  1.00  0.00     0.178 HD
ATOM     18  H51 UNL     1      34.813  20.478  35.148  1.00  0.00     0.178 HD
ENDBRANCH   7  16
BRANCH   6  19
HETATM   19  N3  UNL     1      32.115  19.742  32.959  1.00  0.00    -0.379 N
ATOM     20  H32 UNL     1      31.302  19.536  32.379  1.00  0.00     0.158 HD
ATOM     21  H31 UNL     1      32.467  19.179  33.734  1.00  0.00     0.158 HD
ENDBRANCH   6  19
BRANCH   1  22
HETATM   22  N1  UNL     1      34.641  24.139  30.600  1.00  0.00    -0.234 N
ATOM     23  H12 UNL     1      35.620  23.981  30.359  1.00  0.00     0.174 HD
ATOM     24  H11 UNL     1      34.048  24.909  30.292  1.00  0.00     0.174 HD
ENDBRANCH   1  22
TORSDOF 5
ENDMDL