MODEL 4
REMARK VINA RESULT: -5.099765641      2.937      4.459
REMARK  5 active torsions:
REMARK  status: ('A' for Active; 'I' for Inactive)
REMARK    1  A    between atoms: S1_2  and  C2_3
REMARK    2  A    between atoms: C3_9  and  C4_10
REMARK    3  A    between atoms: C4_10  and  N4_11
REMARK    4  A    between atoms: N4_11  and  N5_12
REMARK    5  A    between atoms: N5_12  and  N6_13
ROOT
HETATM    1  C2  UNL     1     -42.227   3.057   5.681  1.00  0.00     0.107 A
HETATM    2  N1  UNL     1     -41.444   3.984   6.012  1.00  0.00    -0.276 N
ATOM      3  H1  UNL     1     -41.745   4.956   6.078  1.00  0.00     0.185 HD
HETATM    4  N2  UNL     1     -40.185   3.601   6.270  1.00  0.00    -0.021 NA
HETATM    5  N3  UNL     1     -40.245   2.271   6.094  1.00  0.00    -0.284 N
ATOM      6  H3  UNL     1     -39.444   1.651   6.209  1.00  0.00     0.184 HD
HETATM    7  C3  UNL     1     -41.452   1.849   5.758  1.00  0.00     0.074 A
ENDROOT
BRANCH   7   8
HETATM    8  C4  UNL     1     -42.088   0.567   5.395  1.00  0.00     0.193 C
BRANCH   8   9
HETATM    9  N4  UNL     1     -41.049  -0.403   5.056  1.00  0.00    -0.121 NA
BRANCH   9  10
HETATM   10  N5  UNL     1     -40.542  -0.867   6.334  1.00  0.00    -0.038 NA
BRANCH  10  11
HETATM   11  N6  UNL     1     -41.557  -1.661   6.882  1.00  0.00    -0.332 N
ATOM     12  H62 UNL     1     -42.404  -1.326   7.341  1.00  0.00     0.173 HD
ATOM     13  H61 UNL     1     -41.270  -2.627   6.724  1.00  0.00     0.173 HD
ENDBRANCH  10  11
ENDBRANCH   9  10
ENDBRANCH   8   9
ENDBRANCH   7   8
BRANCH   1  14
HETATM   14  S1  UNL     1     -43.845   3.127   4.902  1.00  0.00    -0.114 SA
HETATM   15  C1  UNL     1     -44.090   4.938   4.542  1.00  0.00     0.097 C
ENDBRANCH   1  14
TORSDOF 5
ENDMDL