MODEL 3
REMARK VINA RESULT: -5.850519624      3.723      5.616
REMARK  5 active torsions:
REMARK  status: ('A' for Active; 'I' for Inactive)
REMARK    1  A    between atoms: N1_1  and  C1_4
REMARK    2  A    between atoms: C2_7  and  N3_8
REMARK    3  A    between atoms: N3_8  and  N4_10
REMARK    4  A    between atoms: N4_10  and  C3_12
REMARK    5  A    between atoms: C4_14  and  C5_15
ROOT
HETATM    1  C1  UNL     1     -41.692  -0.539   5.995  1.00  0.00     0.692 A
HETATM    2  N2  UNL     1     -42.753   0.272   6.009  1.00  0.00    -0.172 N
ATOM      3  H2  UNL     1     -43.683  -0.147   6.019  1.00  0.00     0.186 HD
HETATM    4  C2  UNL     1     -42.652   1.644   6.011  1.00  0.00     0.167 A
HETATM    5  C4  UNL     1     -41.381   2.140   5.998  1.00  0.00     0.132 A
HETATM    6  N5  UNL     1     -40.291   1.289   5.984  1.00  0.00    -0.280 N
ATOM      7  H5  UNL     1     -39.349   1.681   5.975  1.00  0.00     0.188 HD
HETATM    8  N6  UNL     1     -40.446  -0.018   5.982  1.00  0.00    -0.132 N
ATOM      9  H6  UNL     1     -39.632  -0.633   5.972  1.00  0.00     0.205 HD
ENDROOT
BRANCH   4  10
HETATM   10  N3  UNL     1     -43.819   2.424   6.025  1.00  0.00    -0.281 N
ATOM     11  H3  UNL     1     -44.354   2.573   6.881  1.00  0.00     0.188 HD
BRANCH  10  12
HETATM   12  N4  UNL     1     -44.216   2.991   4.792  1.00  0.00    -0.276 N
ATOM     13  H4  UNL     1     -43.767   2.671   3.935  1.00  0.00     0.189 HD
BRANCH  12  14
HETATM   14  C3  UNL     1     -45.213   3.983   4.710  1.00  0.00     0.368 C
HETATM   15  O1  UNL     1     -44.892   5.179   4.872  1.00  0.00    -0.282 OA
ENDBRANCH  12  14
ENDBRANCH  10  12
ENDBRANCH   4  10
BRANCH   5  16
HETATM   16  C5  UNL     1     -41.100   3.557   5.999  1.00  0.00     0.293 C
HETATM   17  O2  UNL     1     -41.675   4.363   5.284  1.00  0.00    -0.300 OA
ENDBRANCH   5  16
BRANCH   1  18
HETATM   18  N1  UNL     1     -41.819  -1.818   5.992  1.00  0.00    -0.233 N
ATOM     19  H12 UNL     1     -41.981  -2.290   6.882  1.00  0.00     0.174 HD
ATOM     20  H11 UNL     1     -41.761  -2.362   5.131  1.00  0.00     0.174 HD
ENDBRANCH   1  18
TORSDOF 5
ENDMDL