MODEL 1
REMARK VINA RESULT: -6.308453471      0.000      0.000
REMARK  5 active torsions:
REMARK  status: ('A' for Active; 'I' for Inactive)
REMARK    1  A    between atoms: O1_2  and  N1_3
REMARK    2  A    between atoms: N1_3  and  C2_5
REMARK    3  A    between atoms: N2_6  and  O2_8
REMARK    4  A    between atoms: O2_8  and  C3_9
REMARK    5  A    between atoms: C4_14  and  N5_15
ROOT
HETATM    1  C3  UNL     1     -42.149   0.686   5.425  1.00  0.00     0.276 A
HETATM    2  N3  UNL     1     -43.033   0.035   6.199  1.00  0.00    -0.249 N
ATOM      3  H3  UNL     1     -44.019   0.279   6.288  1.00  0.00     0.191 HD
HETATM    4  N4  UNL     1     -42.450  -0.959   6.824  1.00  0.00    -0.129 N
ATOM      5  H4  UNL     1     -42.897  -1.609   7.471  1.00  0.00     0.205 HD
HETATM    6  C4  UNL     1     -41.167  -0.966   6.460  1.00  0.00     0.693 A
HETATM    7  N6  UNL     1     -40.982   0.044   5.601  1.00  0.00    -0.151 N
ATOM      8  H6  UNL     1     -40.099   0.286   5.153  1.00  0.00     0.188 HD
ENDROOT
BRANCH   1   9
HETATM    9  O2  UNL     1     -42.352   1.786   4.604  1.00  0.00    -0.198 OA
BRANCH   9  10
HETATM   10  N2  UNL     1     -42.246   3.035   5.151  1.00  0.00    -0.251 N
HETATM   11  C2  UNL     1     -42.951   3.986   4.655  1.00  0.00     0.228 C
ATOM     12  H2  UNL     1     -41.620   3.208   5.937  1.00  0.00     0.195 HD
BRANCH  11  13
HETATM   13  N1  UNL     1     -42.809   5.269   5.254  1.00  0.00    -0.261 N
ATOM     14  H1  UNL     1     -41.909   5.487   5.680  1.00  0.00     0.195 HD
BRANCH  13  15
HETATM   15  O1  UNL     1     -43.751   6.207   5.305  1.00  0.00    -0.284 OA
HETATM   16  C1  UNL     1     -44.833   5.820   4.553  1.00  0.00     0.237 C
ENDBRANCH  13  15
ENDBRANCH  11  13
ENDBRANCH   9  10
ENDBRANCH   1   9
BRANCH   6  17
HETATM   17  N5  UNL     1     -40.220  -1.777   6.835  1.00  0.00    -0.233 N
ATOM     18  H52 UNL     1     -39.509  -2.146   6.204  1.00  0.00     0.174 HD
ATOM     19  H51 UNL     1     -40.040  -2.159   7.763  1.00  0.00     0.174 HD
ENDBRANCH   6  17
TORSDOF 5
ENDMDL