MODEL 2
REMARK VINA RESULT: -5.988259417      1.905      4.721
REMARK  6 active torsions:
REMARK  status: ('A' for Active; 'I' for Inactive)
REMARK    1  A    between atoms: C2_2  and  C3_3
REMARK    2  A    between atoms: C2_2  and  N3_8
REMARK    3  A    between atoms: C3_3  and  N1_4
REMARK    4  A    between atoms: N1_4  and  N2_5
REMARK    5  A    between atoms: N3_8  and  C4_10
REMARK    6  A    between atoms: N6_16  and  N7_17
ROOT
HETATM    1  C4  UNL     1     -41.557   1.195   5.885  1.00  0.00     0.714 A
HETATM    2  N4  UNL     1     -42.867   0.964   5.997  1.00  0.00    -0.130 N
ATOM      3  H4  UNL     1     -43.336   0.064   5.884  1.00  0.00     0.205 HD
HETATM    4  N5  UNL     1     -43.439   2.110   6.279  1.00  0.00    -0.279 N
ATOM      5  H5  UNL     1     -44.439   2.251   6.423  1.00  0.00     0.188 HD
HETATM    6  C5  UNL     1     -42.500   3.072   6.349  1.00  0.00     0.241 A
HETATM    7  N6  UNL     1     -41.303   2.491   6.098  1.00  0.00    -0.086 N
ENDROOT
BRANCH   1   8
HETATM    8  N3  UNL     1     -40.646   0.331   5.615  1.00  0.00    -0.217 N
ATOM      9  H3  UNL     1     -39.679   0.651   5.569  1.00  0.00     0.178 HD
BRANCH   8  10
HETATM   10  C2  UNL     1     -40.910  -1.069   5.372  1.00  0.00     0.111 C
HETATM   11  C1  UNL     1     -40.622  -1.850   6.609  1.00  0.00     0.034 C
BRANCH  10  12
HETATM   12  C3  UNL     1     -40.048  -1.482   4.194  1.00  0.00     0.159 C
BRANCH  12  13
HETATM   13  N1  UNL     1     -40.604  -1.066   2.938  1.00  0.00    -0.146 NA
BRANCH  13  14
HETATM   14  N2  UNL     1     -39.675  -1.382   1.938  1.00  0.00    -0.348 N
ATOM     15  H22 UNL     1     -38.695  -1.616   2.094  1.00  0.00     0.172 HD
ATOM     16  H21 UNL     1     -40.160  -1.335   1.041  1.00  0.00     0.172 HD
ENDBRANCH  13  14
ENDBRANCH  12  13
ENDBRANCH  10  12
ENDBRANCH   8  10
ENDBRANCH   1   8
BRANCH   7  17
HETATM   17  N7  UNL     1     -40.049   3.121   6.067  1.00  0.00    -0.323 N
ATOM     18  H72 UNL     1     -39.660   3.675   5.304  1.00  0.00     0.178 HD
ATOM     19  H71 UNL     1     -39.343   3.117   6.803  1.00  0.00     0.178 HD
ENDBRANCH   7  17
TORSDOF 6
ENDMDL