MODEL 2
REMARK VINA RESULT: -6.424620024      1.357      4.646
REMARK  4 active torsions:
REMARK  status: ('A' for Active; 'I' for Inactive)
REMARK    1  A    between atoms: N1_2  and  C2_4
REMARK    2  A    between atoms: C2_4  and  C3_5
REMARK    3  A    between atoms: C2_4  and  C4_10
REMARK    4  A    between atoms: C3_5  and  N2_6
ROOT
HETATM    1  C4  UNL     1     -41.592   0.636   5.935  1.00  0.00     0.081 A
HETATM    2  N3  UNL     1     -42.900   0.477   6.183  1.00  0.00    -0.299 N
ATOM      3  H3  UNL     1     -43.365  -0.426   6.280  1.00  0.00     0.186 HD
HETATM    4  N4  UNL     1     -43.509   1.650   6.283  1.00  0.00    -0.282 N
ATOM      5  H4  UNL     1     -44.502   1.791   6.468  1.00  0.00     0.188 HD
HETATM    6  C5  UNL     1     -42.588   2.637   6.098  1.00  0.00     0.163 A
HETATM    7  N5  UNL     1     -42.363   3.984   6.043  1.00  0.00    -0.266 N
ATOM      8  H5  UNL     1     -43.050   4.727   6.164  1.00  0.00     0.186 HD
HETATM    9  N6  UNL     1     -41.056   4.127   5.799  1.00  0.00    -0.020 NA
HETATM   10  N7  UNL     1     -40.477   2.942   5.704  1.00  0.00    -0.279 N
ATOM     11  H7  UNL     1     -39.486   2.785   5.522  1.00  0.00     0.184 HD
HETATM   12  C6  UNL     1     -41.395   1.976   5.884  1.00  0.00     0.118 A
ENDROOT
BRANCH   1  13
HETATM   13  C2  UNL     1     -40.579  -0.458   5.730  1.00  0.00     0.156 C
BRANCH  13  14
HETATM   14  N1  UNL     1     -40.604  -0.688   4.284  1.00  0.00    -0.415 N
HETATM   15  C1  UNL     1     -39.820  -1.774   3.829  1.00  0.00     0.140 C
ATOM     16  H1  UNL     1     -41.148  -0.105   3.649  1.00  0.00     0.153 HD
ENDBRANCH  13  14
BRANCH  13  17
HETATM   17  C3  UNL     1     -41.064  -1.739   6.392  1.00  0.00     0.260 C
BRANCH  17  18
HETATM   18  N2  UNL     1     -40.181  -2.098   7.504  1.00  0.00    -0.077 N
ATOM     19  H23 UNL     1     -40.023  -3.104   7.556  1.00  0.00     0.274 HD
ATOM     20  H22 UNL     1     -39.218  -1.804   7.337  1.00  0.00     0.274 HD
ATOM     21  H21 UNL     1     -40.548  -1.724   8.379  1.00  0.00     0.274 HD
ENDBRANCH  17  18
ENDBRANCH  13  17
ENDBRANCH   1  13
TORSDOF 4
ENDMDL