MODEL 3
REMARK VINA RESULT: -5.713195679      0.462      1.169
REMARK  5 active torsions:
REMARK  status: ('A' for Active; 'I' for Inactive)
REMARK    1  A    between atoms: N1_1  and  C1_5
REMARK    2  A    between atoms: C1_5  and  N2_6
REMARK    3  A    between atoms: C1_5  and  C2_10
REMARK    4  A    between atoms: C2_10  and  S1_11
REMARK    5  A    between atoms: S1_11  and  C3_12
ROOT
HETATM    1  C1  UNL     1     -41.310  -0.762   5.504  1.00  0.00     0.387 C
ENDROOT
BRANCH   1   2
HETATM    2  N1  UNL     1     -40.052  -1.170   4.894  1.00  0.00    -0.050 N
ATOM      3  H13 UNL     1     -39.883  -2.168   5.018  1.00  0.00     0.276 HD
ATOM      4  H12 UNL     1     -40.105  -1.144   3.876  1.00  0.00     0.276 HD
ATOM      5  H11 UNL     1     -39.270  -0.613   5.240  1.00  0.00     0.276 HD
ENDBRANCH   1   2
BRANCH   1   6
HETATM    6  N2  UNL     1     -41.618  -1.565   6.678  1.00  0.00    -0.050 N
ATOM      7  H23 UNL     1     -41.820  -2.532   6.427  1.00  0.00     0.276 HD
ATOM      8  H22 UNL     1     -40.788  -1.721   7.252  1.00  0.00     0.276 HD
ATOM      9  H21 UNL     1     -42.376  -1.154   7.224  1.00  0.00     0.276 HD
ENDBRANCH   1   6
BRANCH   1  10
HETATM   10  C2  UNL     1     -41.129   0.676   6.007  1.00  0.00     0.144 C
BRANCH  10  11
HETATM   11  S1  UNL     1     -42.773   1.435   6.057  1.00  0.00    -0.088 SA
BRANCH  11  12
HETATM   12  C3  UNL     1     -42.794   3.053   5.353  1.00  0.00     0.170 A
HETATM   13  N3  UNL     1     -41.950   4.052   5.705  1.00  0.00    -0.265 N
HETATM   14  N4  UNL     1     -42.221   5.135   4.998  1.00  0.00    -0.007 NA
ATOM     15  H3  UNL     1     -41.215   3.979   6.408  1.00  0.00     0.186 HD
HETATM   16  N5  UNL     1     -43.233   4.862   4.187  1.00  0.00    -0.007 NA
HETATM   17  N6  UNL     1     -43.581   3.595   4.404  1.00  0.00    -0.265 N
ATOM     18  H6  UNL     1     -44.335   3.105   3.920  1.00  0.00     0.186 HD
ENDBRANCH  11  12
ENDBRANCH  10  11
ENDBRANCH   1  10
TORSDOF 5
ENDMDL