MODEL 2
REMARK VINA RESULT: -6.226224510      2.250      4.717
REMARK  4 active torsions:
REMARK  status: ('A' for Active; 'I' for Inactive)
REMARK    1  A    between atoms: C3_5  and  O1_6
REMARK    2  A    between atoms: O1_6  and  N2_7
REMARK    3  A    between atoms: N2_7  and  C4_9
REMARK    4  A    between atoms: C4_9  and  N3_10
ROOT
HETATM    1  C1  UNL     1     -42.238   1.811   4.968  1.00  0.00     0.089 C
HETATM    2  C2  UNL     1     -41.516   0.512   4.951  1.00  0.00     0.096 A
HETATM    3  N1  UNL     1     -41.147  -0.039   3.783  1.00  0.00    -0.309 N
ATOM      4  H1  UNL     1     -41.373   0.453   2.918  1.00  0.00     0.170 HD
HETATM    5  C3  UNL     1     -40.492  -1.213   3.704  1.00  0.00     0.263 A
HETATM    6  N4  UNL     1     -40.218  -1.821   4.870  1.00  0.00    -0.153 N
ATOM      7  H4  UNL     1     -39.724  -2.713   4.862  1.00  0.00     0.188 HD
HETATM    8  C5  UNL     1     -40.582  -1.282   6.050  1.00  0.00     0.680 A
HETATM    9  N5  UNL     1     -40.303  -1.892   7.153  1.00  0.00    -0.234 N
ATOM     10  H51 UNL     1     -40.578  -1.483   8.047  1.00  0.00     0.174 HD
ATOM     11  H52 UNL     1     -39.807  -2.782   7.108  1.00  0.00     0.174 HD
HETATM   12  N6  UNL     1     -41.233  -0.112   6.108  1.00  0.00    -0.181 N
ATOM     13  H6  UNL     1     -41.506   0.293   7.003  1.00  0.00     0.185 HD
ENDROOT
BRANCH   5  14
HETATM   14  O1  UNL     1     -40.122  -1.760   2.469  1.00  0.00    -0.199 OA
BRANCH  14  15
HETATM   15  N2  UNL     1     -38.978  -2.516   2.379  1.00  0.00    -0.254 N
ATOM     16  H2  UNL     1     -38.685  -3.070   3.184  1.00  0.00     0.195 HD
BRANCH  15  17
HETATM   17  C4  UNL     1     -38.194  -2.550   1.203  1.00  0.00     0.197 C
BRANCH  17  18
HETATM   18  N3  UNL     1     -37.749  -3.701   0.814  1.00  0.00    -0.394 N
ATOM     19  H32 UNL     1     -38.363  -4.350   0.323  1.00  0.00     0.156 HD
ATOM     20  H31 UNL     1     -36.775  -3.923   1.018  1.00  0.00     0.156 HD
ENDBRANCH  17  18
ENDBRANCH  15  17
ENDBRANCH  14  15
ENDBRANCH   5  14
TORSDOF 4
ENDMDL