MODEL 5
REMARK VINA RESULT: -7.594050058      1.598      1.859
REMARK  13 active torsions:
REMARK  status: ('A' for Active; 'I' for Inactive)
REMARK    1  A    between atoms: N3_6  and  C3_8
REMARK    2  A    between atoms: C3_8  and  C4_9
REMARK    3  A    between atoms: C3_8  and  C6_20
REMARK    4  A    between atoms: C4_9  and  O1_10
REMARK    5  A    between atoms: O1_10  and  C5_11
REMARK    6  A    between atoms: C5_11  and  N4_12
REMARK    7  A    between atoms: C5_11  and  N5_16
REMARK    8  A    between atoms: C6_20  and  O2_21
REMARK    9  A    between atoms: C6_20  and  N6_23
REMARK   10  A    between atoms: N6_23  and  O3_24
REMARK       I    between atoms: N6_23  and  C7_26
REMARK       I    between atoms: C7_26  and  N7_27
REMARK       I    between atoms: C7_26  and  N8_31
REMARK   11  A    between atoms: C8_36  and  C9_37
REMARK   12  A    between atoms: C9_37  and  N9_38
REMARK   13  A    between atoms: C9_37  and  O4_42
ROOT
HETATM    1  C3  UNL     1       9.972   0.607   0.391  1.00  0.00     0.109 C
ENDROOT
BRANCH   1   2
HETATM    2  N3  UNL     1      10.727  -0.045   1.352  1.00  0.00    -0.331 N
HETATM    3  C2  UNL     1      10.978   0.142   2.589  1.00  0.00     0.151 A
HETATM    4  N2  UNL     1      10.605   1.064   3.469  1.00  0.00    -0.324 N
HETATM    5  S1  UNL     1      11.986  -0.879   3.546  1.00  0.00    -0.051 SA
HETATM    6  C1  UNL     1      11.032   0.994   4.693  1.00  0.00     0.136 A
ATOM      7  H2  UNL     1       9.987   1.823   3.185  1.00  0.00     0.169 HD
HETATM    8  N1  UNL     1      10.674   1.962   5.722  1.00  0.00    -0.081 NA
HETATM    9  C8  UNL     1      11.861  -0.042   5.032  1.00  0.00     0.082 A
ATOM     10  H3  UNL     1      11.194  -0.873   0.983  1.00  0.00     0.168 HD
BRANCH   9  11
HETATM   11  C9  UNL     1      12.491  -0.354   6.367  1.00  0.00     0.361 C
BRANCH  11  12
HETATM   12  N9  UNL     1      13.850  -0.821   6.190  1.00  0.00    -0.048 N
ATOM     13  H93 UNL     1      13.909  -1.558   5.486  1.00  0.00     0.277 HD
ATOM     14  H92 UNL     1      14.433  -0.123   5.728  1.00  0.00     0.277 HD
ATOM     15  H91 UNL     1      14.246  -1.116   7.082  1.00  0.00     0.277 HD
ENDBRANCH  11  12
BRANCH  11  16
HETATM   16  O4  UNL     1      12.539   0.829   7.075  1.00  0.00    -0.366 OA
ATOM     17  H4  UNL     1      12.830   0.615   7.953  1.00  0.00     0.212 HD
ENDBRANCH  11  16
ENDBRANCH   9  11
ENDBRANCH   1   2
BRANCH   1  18
HETATM   18  C4  UNL     1       8.650   1.190   0.796  1.00  0.00     0.173 C
BRANCH  18  19
HETATM   19  O1  UNL     1       7.933   1.937  -0.004  1.00  0.00    -0.306 OA
BRANCH  19  20
HETATM   20  C5  UNL     1       7.604   3.202   0.003  1.00  0.00     0.523 C
BRANCH  20  21
HETATM   21  N4  UNL     1       6.134   3.357  -0.103  1.00  0.00    -0.027 N
ATOM     22  H43 UNL     1       5.877   4.198  -0.620  1.00  0.00     0.279 HD
ATOM     23  H42 UNL     1       5.724   2.663  -0.728  1.00  0.00     0.279 HD
ATOM     24  H41 UNL     1       5.704   3.334   0.823  1.00  0.00     0.279 HD
ENDBRANCH  20  21
BRANCH  20  25
HETATM   25  N5  UNL     1       8.079   3.935  -1.206  1.00  0.00    -0.027 N
ATOM     26  H53 UNL     1       8.227   4.923  -0.998  1.00  0.00     0.279 HD
ATOM     27  H52 UNL     1       9.035   3.669  -1.440  1.00  0.00     0.279 HD
ATOM     28  H51 UNL     1       7.461   3.821  -2.010  1.00  0.00     0.279 HD
ENDBRANCH  20  25
ENDBRANCH  19  20
ENDBRANCH  18  19
ENDBRANCH   1  18
BRANCH   1  29
HETATM   29  C6  UNL     1      10.610   1.333  -0.723  1.00  0.00     0.195 C
BRANCH  29  30
HETATM   30  O2  UNL     1      11.491   2.258  -0.421  1.00  0.00    -0.343 OA
ATOM     31  H2  UNL     1      12.086   2.539  -1.106  1.00  0.00     0.219 HD
ENDBRANCH  29  30
BRANCH  29  32
HETATM   32  N6  UNL     1      10.422   1.194  -2.091  1.00  0.00    -0.180 N
HETATM   33  C7  UNL     1      11.381   0.701  -3.018  1.00  0.00     0.508 C
HETATM   34  N7  UNL     1      11.641   1.652  -4.095  1.00  0.00    -0.031 N
HETATM   35  N8  UNL     1      10.861  -0.533  -3.634  1.00  0.00    -0.031 N
ATOM     36  H73 UNL     1      10.778   1.923  -4.566  1.00  0.00     0.279 HD
ATOM     37  H72 UNL     1      11.917   2.562  -3.727  1.00  0.00     0.279 HD
ATOM     38  H71 UNL     1      12.329   1.298  -4.759  1.00  0.00     0.279 HD
ATOM     39  H83 UNL     1      10.596  -1.232  -2.941  1.00  0.00     0.279 HD
ATOM     40  H82 UNL     1       9.944  -0.400  -4.059  1.00  0.00     0.279 HD
ATOM     41  H81 UNL     1      11.549  -0.887  -4.298  1.00  0.00     0.279 HD
BRANCH  32  42
HETATM   42  O3  UNL     1       9.184   1.467  -2.631  1.00  0.00    -0.282 OA
ATOM     43  H3  UNL     1       8.484   0.832  -2.533  1.00  0.00     0.245 HD
ENDBRANCH  32  42
ENDBRANCH  29  32
ENDBRANCH   1  29
TORSDOF 13
ENDMDL