MODEL 4
REMARK VINA RESULT: -6.459336341      1.920      5.916
REMARK  12 active torsions:
REMARK  status: ('A' for Active; 'I' for Inactive)
REMARK    1  A    between atoms: N1_2  and  C2_5
REMARK    2  A    between atoms: C2_5  and  O1_6
REMARK    3  A    between atoms: C2_5  and  C3_8
REMARK    4  A    between atoms: C6_16  and  N5_17
REMARK    5  A    between atoms: N7_23  and  C8_24
REMARK    6  A    between atoms: C8_24  and  C9_25
REMARK    7  A    between atoms: C9_25  and  N8_26
REMARK    8  A    between atoms: N8_26  and  C10_29
REMARK    9  A    between atoms: C10_29  and  C11_30
REMARK   10  A    between atoms: C11_30  and  N9_31
REMARK   11  A    between atoms: C12_35  and  N10_36
REMARK   12  A    between atoms: N10_36  and  N11_38
ROOT
HETATM    1  C3  UNL     1      11.461   3.625  -4.535  1.00  0.00     0.112 A
HETATM    2  N2  UNL     1      12.498   2.930  -5.109  1.00  0.00    -0.347 N
ATOM      3  H2  UNL     1      13.068   3.363  -5.836  1.00  0.00     0.166 HD
HETATM    4  C4  UNL     1      12.751   1.695  -4.711  1.00  0.00     0.120 A
HETATM    5  C5  UNL     1      13.805   1.026  -5.312  1.00  0.00     0.162 A
HETATM    6  N3  UNL     1      14.619   1.603  -6.334  1.00  0.00    -0.080 NA
HETATM    7  N4  UNL     1      14.040  -0.240  -4.879  1.00  0.00    -0.177 N
ATOM      8  H4  UNL     1      14.805  -0.778  -5.288  1.00  0.00     0.185 HD
HETATM    9  C6  UNL     1      13.280  -0.795  -3.923  1.00  0.00     0.678 A
HETATM   10  N6  UNL     1      12.259  -0.142  -3.343  1.00  0.00    -0.174 N
ATOM     11  H6  UNL     1      11.707  -0.602  -2.618  1.00  0.00     0.186 HD
HETATM   12  C7  UNL     1      11.958   1.136  -3.722  1.00  0.00     0.155 A
HETATM   13  N7  UNL     1      10.951   1.781  -3.153  1.00  0.00    -0.312 N
HETATM   14  C12 UNL     1      10.669   3.089  -3.564  1.00  0.00     0.151 A
ENDROOT
BRANCH  13  15
HETATM   15  C8  UNL     1      10.115   1.208  -2.129  1.00  0.00     0.160 C
BRANCH  15  16
HETATM   16  C9  UNL     1      10.738   1.301  -0.762  1.00  0.00     0.252 C
BRANCH  16  17
HETATM   17  N8  UNL     1       9.831   1.709   0.265  1.00  0.00    -0.072 N
ATOM     18  H82 UNL     1       9.837   1.046   1.039  1.00  0.00     0.277 HD
ATOM     19  H81 UNL     1      10.180   2.535   0.751  1.00  0.00     0.277 HD
BRANCH  17  20
HETATM   20  C10 UNL     1       8.491   1.924  -0.218  1.00  0.00     0.259 C
BRANCH  20  21
HETATM   21  C11 UNL     1       7.696   2.804   0.738  1.00  0.00     0.257 C
BRANCH  21  22
HETATM   22  N9  UNL     1       6.756   3.657   0.028  1.00  0.00    -0.078 N
ATOM     23  H93 UNL     1       6.792   4.616   0.371  1.00  0.00     0.274 HD
ATOM     24  H92 UNL     1       7.055   3.820  -0.934  1.00  0.00     0.274 HD
ATOM     25  H91 UNL     1       5.807   3.285   0.064  1.00  0.00     0.274 HD
ENDBRANCH  21  22
ENDBRANCH  20  21
ENDBRANCH  17  20
ENDBRANCH  16  17
ENDBRANCH  15  16
ENDBRANCH  13  15
BRANCH  14  26
HETATM   26  N10 UNL     1       9.685   3.607  -3.058  1.00  0.00    -0.290 N
ATOM     27  H10 UNL     1       9.180   2.816  -2.657  1.00  0.00     0.188 HD
BRANCH  26  28
HETATM   28  N11 UNL     1       8.939   4.621  -2.758  1.00  0.00    -0.344 N
ATOM     29 2H11 UNL     1       8.691   4.961  -3.687  1.00  0.00     0.176 HD
ATOM     30 1H11 UNL     1       8.477   5.248  -2.100  1.00  0.00     0.176 HD
ENDBRANCH  26  28
ENDBRANCH  14  26
BRANCH   1  31
HETATM   31  C2  UNL     1      11.344   5.044  -5.009  1.00  0.00     0.373 C
BRANCH  31  32
HETATM   32  N1  UNL     1      12.489   5.396  -5.863  1.00  0.00    -0.047 N
HETATM   33  C1  UNL     1      13.488   6.168  -5.210  1.00  0.00     0.270 C
ATOM     34  H12 UNL     1      12.171   5.867  -6.709  1.00  0.00     0.280 HD
ATOM     35  H11 UNL     1      12.899   4.557  -6.274  1.00  0.00     0.280 HD
ENDBRANCH  31  32
BRANCH  31  36
HETATM   36  O1  UNL     1      11.605   5.870  -3.874  1.00  0.00    -0.365 OA
ATOM     37  H1  UNL     1      10.985   5.508  -3.251  1.00  0.00     0.212 HD
ENDBRANCH  31  36
ENDBRANCH   1  31
BRANCH   9  38
HETATM   38  N5  UNL     1      13.529  -1.999  -3.535  1.00  0.00    -0.234 N
ATOM     39  H52 UNL     1      13.931  -2.648  -4.211  1.00  0.00     0.174 HD
ATOM     40  H51 UNL     1      13.320  -2.268  -2.574  1.00  0.00     0.174 HD
ENDBRANCH   9  38
TORSDOF 12
ENDMDL