MODEL 2
REMARK VINA RESULT: -8.198716289      4.634      8.960
REMARK  8 active torsions:
REMARK  status: ('A' for Active; 'I' for Inactive)
REMARK    1  A    between atoms: N1_1  and  C1_5
REMARK    2  A    between atoms: C1_5  and  N2_6
REMARK    3  A    between atoms: C1_5  and  C2_10
REMARK    4  A    between atoms: C3_13  and  C4_14
REMARK       I    between atoms: C4_14  and  N4_16
REMARK    5  A    between atoms: C5_18  and  C6_19
REMARK    6  A    between atoms: C7_22  and  N5_23
REMARK    7  A    between atoms: N5_23  and  N6_25
REMARK    8  A    between atoms: N6_25  and  C8_26
ROOT
HETATM    1  C2  UNL     1       8.847   2.168  -0.132  1.00  0.00     0.111 A
HETATM    2  N3  UNL     1       9.743   1.850  -1.033  1.00  0.00    -0.344 N
ATOM      3  H3  UNL     1       9.611   2.139  -2.002  1.00  0.00     0.166 HD
HETATM    4  C3  UNL     1      10.799   1.167  -0.698  1.00  0.00     0.137 A
HETATM    5  C7  UNL     1      10.934   0.802   0.608  1.00  0.00     0.120 A
HETATM    6  S1  UNL     1       9.487   1.487   1.287  1.00  0.00    -0.052 SA
ENDROOT
BRANCH   5   7
HETATM    7  N5  UNL     1      11.941   0.067   1.313  1.00  0.00    -0.293 N
ATOM      8  H5  UNL     1      12.927   0.249   1.128  1.00  0.00     0.183 HD
BRANCH   7   9
HETATM    9  N6  UNL     1      11.572  -0.911   2.263  1.00  0.00    -0.107 NA
BRANCH   9  10
HETATM   10  C8  UNL     1      12.242  -0.534   3.498  1.00  0.00     0.306 C
HETATM   11  N7  UNL     1      12.859  -1.730   4.096  1.00  0.00    -0.091 NA
HETATM   12  N8  UNL     1      13.614  -1.351   5.181  1.00  0.00    -0.230 N
HETATM   13  N9  UNL     1      12.979  -0.562   6.107  1.00  0.00    -0.228 N
ATOM     14  H8  UNL     1      14.587  -1.639   5.290  1.00  0.00     0.205 HD
HETATM   15  N10 UNL     1      11.639  -0.329   5.872  1.00  0.00    -0.252 N
ATOM     16  H9  UNL     1      13.465  -0.174   6.915  1.00  0.00     0.209 HD
HETATM   17  C9  UNL     1      11.234  -0.093   4.527  1.00  0.00     0.275 C
ATOM     18  H10 UNL     1      10.962  -0.326   6.635  1.00  0.00     0.191 HD
HETATM   19  O4  UNL     1      10.145   0.433   4.221  1.00  0.00    -0.268 OA
ENDBRANCH   9  10
ENDBRANCH   7   9
ENDBRANCH   5   7
BRANCH   4  20
HETATM   20  C4  UNL     1      11.816   0.806  -1.727  1.00  0.00     0.275 C
HETATM   21  O1  UNL     1      12.720  -0.016  -1.533  1.00  0.00    -0.266 OA
HETATM   22  N4  UNL     1      11.788   1.414  -3.026  1.00  0.00    -0.325 N
HETATM   23  C5  UNL     1      12.471   2.459  -3.280  1.00  0.00     0.175 C
ATOM     24  H4  UNL     1      11.210   1.003  -3.760  1.00  0.00     0.168 HD
BRANCH  23  25
HETATM   25  C6  UNL     1      12.442   3.068  -4.582  1.00  0.00     0.214 C
HETATM   26  O2  UNL     1      13.507   3.276  -5.198  1.00  0.00    -0.643 OA
HETATM   27  O3  UNL     1      11.220   3.434  -5.172  1.00  0.00    -0.643 OA
ENDBRANCH  23  25
ENDBRANCH   4  20
BRANCH   1  28
HETATM   28  C1  UNL     1       7.566   2.944  -0.316  1.00  0.00     0.434 C
BRANCH  28  29
HETATM   29  N1  UNL     1       7.011   3.347   0.940  1.00  0.00    -0.044 N
ATOM     30  H13 UNL     1       7.423   4.207   1.301  1.00  0.00     0.277 HD
ATOM     31  H12 UNL     1       6.052   3.683   0.863  1.00  0.00     0.277 HD
ATOM     32  H11 UNL     1       7.109   2.558   1.579  1.00  0.00     0.277 HD
ENDBRANCH  28  29
BRANCH  28  33
HETATM   33  N2  UNL     1       7.848   4.158  -1.071  1.00  0.00    -0.044 N
ATOM     34  H23 UNL     1       7.005   4.642  -1.379  1.00  0.00     0.277 HD
ATOM     35  H22 UNL     1       8.226   4.909  -0.494  1.00  0.00     0.277 HD
ATOM     36  H21 UNL     1       8.464   3.898  -1.841  1.00  0.00     0.277 HD
ENDBRANCH  28  33
ENDBRANCH   1  28
TORSDOF 8
ENDMDL