MODEL 2
REMARK VINA RESULT: -6.484246636      2.073      2.735
REMARK  11 active torsions:
REMARK  status: ('A' for Active; 'I' for Inactive)
REMARK    1  A    between atoms: C2_2  and  C3_3
REMARK    2  A    between atoms: C2_2  and  C5_11
REMARK    3  A    between atoms: C3_3  and  N1_4
REMARK    4  A    between atoms: C3_3  and  C4_8
REMARK    5  A    between atoms: C5_11  and  C6_12
REMARK    6  A    between atoms: C5_11  and  N3_19
REMARK    7  A    between atoms: C6_12  and  N2_13
REMARK    8  A    between atoms: C6_12  and  O3_17
REMARK    9  A    between atoms: C9_25  and  N6_26
REMARK   10  A    between atoms: N7_29  and  N8_30
REMARK   11  A    between atoms: C10_33  and  N9_34
ROOT
HETATM    1  N3  UNL     1      10.363   2.617  -2.143  1.00  0.00    -0.295 N
HETATM    2  C7  UNL     1       9.397   3.387  -2.643  1.00  0.00     0.197 A
HETATM    3  N4  UNL     1       9.290   3.996  -3.925  1.00  0.00    -0.063 NA
HETATM    4  N5  UNL     1       8.396   3.569  -1.727  1.00  0.00    -0.324 N
ATOM      5  H5  UNL     1       7.541   4.112  -1.850  1.00  0.00     0.169 HD
HETATM    6  C8  UNL     1       8.767   2.892  -0.644  1.00  0.00     0.126 A
HETATM    7  C9  UNL     1       8.129   2.728   0.592  1.00  0.00     0.169 A
HETATM    8  N7  UNL     1       8.717   1.987   1.533  1.00  0.00    -0.075 N
HETATM    9  C10 UNL     1       9.913   1.413   1.268  1.00  0.00     0.700 A
HETATM   10  N10 UNL     1      10.533   1.561   0.091  1.00  0.00    -0.172 N
ATOM     11  H10 UNL     1      11.434   1.111  -0.069  1.00  0.00     0.186 HD
HETATM   12  C11 UNL     1       9.969   2.305  -0.887  1.00  0.00     0.157 A
ENDROOT
BRANCH   1  13
HETATM   13  C5  UNL     1      11.587   2.162  -2.734  1.00  0.00     0.156 C
BRANCH  13  14
HETATM   14  C2  UNL     1      12.037   2.917  -3.922  1.00  0.00     0.050 C
HETATM   15  C1  UNL     1      12.544   2.062  -5.039  1.00  0.00     0.015 C
BRANCH  14  16
HETATM   16  C3  UNL     1      13.125   3.941  -3.644  1.00  0.00     0.289 C
BRANCH  16  17
HETATM   17  N1  UNL     1      12.773   4.487  -2.313  1.00  0.00    -0.065 N
ATOM     18  H13 UNL     1      13.424   5.189  -1.963  1.00  0.00     0.275 HD
ATOM     19  H12 UNL     1      11.950   5.090  -2.311  1.00  0.00     0.275 HD
ATOM     20  H11 UNL     1      12.689   3.661  -1.720  1.00  0.00     0.275 HD
ENDBRANCH  16  17
BRANCH  16  21
HETATM   21  C4  UNL     1      13.140   5.050  -4.621  1.00  0.00     0.204 C
HETATM   22  O1  UNL     1      14.206   5.649  -4.865  1.00  0.00    -0.646 OA
HETATM   23  O2  UNL     1      11.988   5.442  -5.277  1.00  0.00    -0.646 OA
ENDBRANCH  16  21
ENDBRANCH  14  16
ENDBRANCH  13  14
BRANCH  13  24
HETATM   24  C6  UNL     1      11.407   0.693  -3.035  1.00  0.00     0.340 C
BRANCH  24  25
HETATM   25  N2  UNL     1      10.033   0.307  -3.201  1.00  0.00    -0.051 N
ATOM     26  H23 UNL     1       9.761  -0.373  -2.491  1.00  0.00     0.277 HD
ATOM     27  H22 UNL     1       9.409   1.073  -2.949  1.00  0.00     0.277 HD
ATOM     28  H21 UNL     1       9.820  -0.041  -4.135  1.00  0.00     0.277 HD
ENDBRANCH  24  25
BRANCH  24  29
HETATM   29  O3  UNL     1      12.021  -0.130  -2.092  1.00  0.00    -0.368 OA
ATOM     30  H3  UNL     1      11.614  -0.986  -2.029  1.00  0.00     0.212 HD
ENDBRANCH  24  29
ENDBRANCH  13  24
ENDBRANCH   1  13
BRANCH   7  31
HETATM   31  N6  UNL     1       6.991   3.296   0.794  1.00  0.00    -0.382 N
ATOM     32  H62 UNL     1       6.741   4.172   0.335  1.00  0.00     0.157 HD
ATOM     33  H61 UNL     1       6.320   2.860   1.428  1.00  0.00     0.157 HD
ENDBRANCH   7  31
BRANCH   9  34
HETATM   34  N9  UNL     1      10.457   0.692   2.217  1.00  0.00    -0.233 N
ATOM     35  H92 UNL     1      10.522  -0.321   2.122  1.00  0.00     0.174 HD
ATOM     36  H91 UNL     1      10.805   1.187   3.039  1.00  0.00     0.174 HD
ENDBRANCH   9  34
BRANCH   8  37
HETATM   37  N8  UNL     1       8.064   1.836   2.757  1.00  0.00    -0.322 N
ATOM     38  H82 UNL     1       7.741   2.630   3.310  1.00  0.00     0.178 HD
ATOM     39  H81 UNL     1       7.909   0.891   3.106  1.00  0.00     0.178 HD
ENDBRANCH   8  37
TORSDOF 11
ENDMDL