MODEL 3
REMARK VINA RESULT: -7.165446271      1.824      3.936
REMARK  11 active torsions:
REMARK  status: ('A' for Active; 'I' for Inactive)
REMARK       I    between atoms: C2_2  and  N1_4
REMARK    1  A    between atoms: N1_4  and  C3_6
REMARK    2  A    between atoms: C3_6  and  C4_7
REMARK    3  A    between atoms: C3_6  and  C5_14
REMARK    4  A    between atoms: C4_7  and  N2_8
REMARK    5  A    between atoms: C4_7  and  O2_12
REMARK    6  A    between atoms: C5_14  and  O3_15
REMARK    7  A    between atoms: C5_14  and  N3_17
REMARK    8  A    between atoms: C7_19  and  C8_20
REMARK    9  A    between atoms: C8_20  and  N4_21
REMARK   10  A    between atoms: C8_20  and  O4_25
REMARK   11  A    between atoms: C9_29  and  C10_30
ROOT
HETATM    1  N3  UNL     1      10.380   2.981  -2.779  1.00  0.00    -0.310 N
HETATM    2  C6  UNL     1      10.288   4.248  -3.276  1.00  0.00     0.125 A
HETATM    3  C7  UNL     1      11.501   4.626  -3.795  1.00  0.00     0.083 A
HETATM    4  N5  UNL     1      12.299   3.567  -3.595  1.00  0.00    -0.339 N
ATOM      5  H5  UNL     1      13.280   3.521  -3.869  1.00  0.00     0.167 HD
HETATM    6  C9  UNL     1      11.628   2.569  -2.981  1.00  0.00     0.143 A
ENDROOT
BRANCH   1   7
HETATM    7  C5  UNL     1       9.325   2.284  -2.176  1.00  0.00     0.253 C
BRANCH   7   8
HETATM    8  C3  UNL     1       9.090   2.542  -0.719  1.00  0.00     0.189 C
BRANCH   8   9
HETATM    9  N1  UNL     1       9.259   1.368   0.105  1.00  0.00    -0.348 N
HETATM   10  C2  UNL     1      10.379   1.176   0.962  1.00  0.00     0.214 C
HETATM   11  C1  UNL     1      10.572  -0.006   1.807  1.00  0.00     0.117 C
HETATM   12  O1  UNL     1      11.282   2.077   1.010  1.00  0.00    -0.274 OA
ATOM     13  H1  UNL     1       8.542   0.643   0.072  1.00  0.00     0.163 HD
ENDBRANCH   8   9
BRANCH   8  14
HETATM   14  C4  UNL     1       7.797   3.262  -0.409  1.00  0.00     0.343 C
BRANCH  14  15
HETATM   15  N2  UNL     1       7.519   3.129   1.002  1.00  0.00    -0.051 N
ATOM     16  H23 UNL     1       7.393   2.157   1.285  1.00  0.00     0.277 HD
ATOM     17  H22 UNL     1       8.332   3.341   1.582  1.00  0.00     0.277 HD
ATOM     18  H21 UNL     1       6.713   3.710   1.234  1.00  0.00     0.277 HD
ENDBRANCH  14  15
BRANCH  14  19
HETATM   19  O2  UNL     1       7.914   4.614  -0.686  1.00  0.00    -0.368 OA
ATOM     20  H2  UNL     1       7.081   5.054  -0.560  1.00  0.00     0.212 HD
ENDBRANCH  14  19
ENDBRANCH   8  14
ENDBRANCH   7   8
BRANCH   7  21
HETATM   21  O3  UNL     1       9.531   0.886  -2.294  1.00  0.00    -0.374 OA
ATOM     22  H3  UNL     1      10.460   0.773  -2.456  1.00  0.00     0.212 HD
ENDBRANCH   7  21
ENDBRANCH   1   7
BRANCH   6  23
HETATM   23  C10 UNL     1      12.302   1.289  -2.651  1.00  0.00     0.146 A
HETATM   24  N6  UNL     1      12.507   0.793  -1.413  1.00  0.00    -0.234 N
HETATM   25  O5  UNL     1      13.117  -0.327  -1.535  1.00  0.00    -0.155 OA
ATOM     26  H6  UNL     1      12.224   1.230  -0.536  1.00  0.00     0.197 HD
HETATM   27  N7  UNL     1      13.340  -0.622  -2.766  1.00  0.00    -0.224 N
HETATM   28  C11 UNL     1      12.829   0.398  -3.538  1.00  0.00     0.154 A
ATOM     29  H7  UNL     1      13.811  -1.460  -3.109  1.00  0.00     0.198 HD
HETATM   30  N8  UNL     1      12.876   0.434  -4.812  1.00  0.00    -0.382 N
ATOM     31  H82 UNL     1      12.497   1.189  -5.384  1.00  0.00     0.157 HD
ATOM     32  H81 UNL     1      13.269  -0.233  -5.476  1.00  0.00     0.157 HD
ENDBRANCH   6  23
BRANCH   3  33
HETATM   33  C8  UNL     1      11.869   5.935  -4.447  1.00  0.00     0.368 C
BRANCH  33  34
HETATM   34  N4  UNL     1      12.027   5.734  -5.886  1.00  0.00    -0.047 N
ATOM     35  H43 UNL     1      12.595   4.915  -6.101  1.00  0.00     0.277 HD
ATOM     36  H42 UNL     1      11.161   5.430  -6.331  1.00  0.00     0.277 HD
ATOM     37  H41 UNL     1      12.400   6.584  -6.308  1.00  0.00     0.277 HD
ENDBRANCH  33  34
BRANCH  33  38
HETATM   38  O4  UNL     1      10.942   6.907  -4.174  1.00  0.00    -0.365 OA
ATOM     39  H4  UNL     1      11.359   7.737  -3.975  1.00  0.00     0.212 HD
ENDBRANCH  33  38
ENDBRANCH   3  33
TORSDOF 11
ENDMDL