MODEL 5
REMARK VINA RESULT: -6.841166728      5.065      8.095
REMARK  12 active torsions:
REMARK  status: ('A' for Active; 'I' for Inactive)
REMARK    1  A    between atoms: N2_5  and  C3_6
REMARK    2  A    between atoms: C3_6  and  C4_7
REMARK    3  A    between atoms: C4_7  and  C5_8
REMARK    4  A    between atoms: C5_8  and  N3_9
REMARK    5  A    between atoms: C5_8  and  C6_13
REMARK       I    between atoms: C6_13  and  N4_15
REMARK    6  A    between atoms: N4_15  and  N5_17
REMARK    7  A    between atoms: N5_17  and  O2_19
REMARK    8  A    between atoms: C8_21  and  N6_22
REMARK       I    between atoms: N6_22  and  C9_24
REMARK       I    between atoms: C9_24  and  N8_28
REMARK    9  A    between atoms: N8_28  and  N9_30
REMARK   10  A    between atoms: N9_30  and  N10_31
REMARK   11  A    between atoms: N10_31  and  N11_32
REMARK   12  A    between atoms: C10_37  and  N13_38
ROOT
HETATM    1  C1  UNL     1       7.467   2.514   3.420  1.00  0.00     0.074 C
HETATM    2  C2  UNL     1       8.340   2.190   2.259  1.00  0.00     0.066 A
HETATM    3  N1  UNL     1       9.474   1.494   2.427  1.00  0.00    -0.285 N
ATOM      4  H1  UNL     1       9.726   1.193   3.368  1.00  0.00     0.187 HD
HETATM    5  N2  UNL     1      10.290   1.178   1.419  1.00  0.00    -0.123 N
HETATM    6  C8  UNL     1       9.993   1.562   0.147  1.00  0.00     0.715 A
HETATM    7  N12 UNL     1       8.861   2.258  -0.022  1.00  0.00    -0.173 N
ATOM      8  H12 UNL     1       8.616   2.557  -0.967  1.00  0.00     0.186 HD
HETATM    9  C10 UNL     1       8.033   2.582   0.976  1.00  0.00     0.138 A
ENDROOT
BRANCH   5  10
HETATM   10  C3  UNL     1      11.510   0.473   1.677  1.00  0.00     0.170 C
BRANCH  10  11
HETATM   11  C4  UNL     1      11.407  -0.749   2.497  1.00  0.00     0.065 C
BRANCH  11  12
HETATM   12  C5  UNL     1      12.155  -0.851   3.763  1.00  0.00     0.278 C
BRANCH  12  13
HETATM   13  N3  UNL     1      12.508  -2.207   4.134  1.00  0.00    -0.066 N
ATOM     14  H33 UNL     1      12.493  -2.316   5.148  1.00  0.00     0.275 HD
ATOM     15  H32 UNL     1      11.761  -2.853   3.879  1.00  0.00     0.275 HD
ATOM     16  H31 UNL     1      13.400  -2.524   3.753  1.00  0.00     0.275 HD
ENDBRANCH  12  13
BRANCH  12  17
HETATM   17  C6  UNL     1      11.489  -0.207   4.892  1.00  0.00     0.270 C
HETATM   18  O1  UNL     1      10.259   0.123   4.748  1.00  0.00    -0.269 OA
HETATM   19  N4  UNL     1      12.101   0.076   6.130  1.00  0.00    -0.244 N
HETATM   20  C7  UNL     1      11.302   0.746   7.155  1.00  0.00     0.183 C
BRANCH  19  21
HETATM   21  N5  UNL     1      13.436  -0.278   6.405  1.00  0.00    -0.206 N
ATOM     22  H5  UNL     1      13.954  -0.843   5.733  1.00  0.00     0.216 HD
BRANCH  21  23
HETATM   23  O2  UNL     1      13.992   0.091   7.456  1.00  0.00    -0.274 OA
ATOM     24  H2  UNL     1      14.530  -0.508   7.960  1.00  0.00     0.246 HD
ENDBRANCH  21  23
ENDBRANCH  19  21
ENDBRANCH  12  17
ENDBRANCH  11  12
ENDBRANCH  10  11
ENDBRANCH   5  10
BRANCH   6  25
HETATM   25  N6  UNL     1      10.811   1.233  -0.785  1.00  0.00    -0.020 N
HETATM   26  C9  UNL     1      10.651   1.517  -2.145  1.00  0.00     0.703 C
HETATM   27  N7  UNL     1       9.814   0.826  -2.832  1.00  0.00    -0.233 N
HETATM   28  N8  UNL     1      11.351   2.526  -2.847  1.00  0.00    -0.118 N
ATOM     29  H72 UNL     1       9.310   0.098  -2.325  1.00  0.00     0.174 HD
ATOM     30  H71 UNL     1       9.697   1.033  -3.823  1.00  0.00     0.174 HD
ATOM     31  H8  UNL     1      12.000   2.238  -3.579  1.00  0.00     0.202 HD
ATOM     32  H6  UNL     1      11.649   0.720  -0.511  1.00  0.00     0.203 HD
BRANCH  28  33
HETATM   33  N9  UNL     1      11.207   3.890  -2.601  1.00  0.00     0.005 NA
BRANCH  33  34
HETATM   34  N10 UNL     1       9.914   4.161  -2.114  1.00  0.00    -0.015 NA
BRANCH  34  35
HETATM   35  N11 UNL     1       9.073   4.587  -3.148  1.00  0.00    -0.330 N
ATOM     36 2H11 UNL     1       8.700   5.533  -3.221  1.00  0.00     0.173 HD
ATOM     37 1H11 UNL     1       8.893   3.827  -3.805  1.00  0.00     0.173 HD
ENDBRANCH  34  35
ENDBRANCH  33  34
ENDBRANCH  28  33
ENDBRANCH   6  25
BRANCH   9  38
HETATM   38  N13 UNL     1       6.946   3.252   0.797  1.00  0.00    -0.383 N
ATOM     39 2H13 UNL     1       6.080   3.049   1.297  1.00  0.00     0.157 HD
ATOM     40 1H13 UNL     1       6.965   4.017   0.124  1.00  0.00     0.157 HD
ENDBRANCH   9  38
TORSDOF 12
ENDMDL