MODEL 3
REMARK VINA RESULT: -7.998848223      1.123      2.875
REMARK  12 active torsions:
REMARK  status: ('A' for Active; 'I' for Inactive)
REMARK    1  A    between atoms: N1_1  and  N2_4
REMARK    2  A    between atoms: N2_4  and  C1_6
REMARK    3  A    between atoms: N3_7  and  N4_8
REMARK    4  A    between atoms: C3_13  and  C4_14
REMARK    5  A    between atoms: N7_17  and  C5_18
REMARK    6  A    between atoms: C5_18  and  O2_19
REMARK    7  A    between atoms: C5_18  and  C6_21
REMARK    8  A    between atoms: C6_21  and  N8_22
REMARK    9  A    between atoms: C6_21  and  C7_26
REMARK   10  A    between atoms: C7_26  and  C8_27
REMARK   11  A    between atoms: C8_27  and  N9_28
REMARK   12  A    between atoms: N9_28  and  C9_30
ROOT
HETATM    1  C5  UNL     1       9.312   2.139  -2.213  1.00  0.00     0.171 C
ENDROOT
BRANCH   1   2
HETATM    2  N7  UNL     1       9.409   1.901  -0.794  1.00  0.00    -0.117 N
HETATM    3  C1  UNL     1      10.326   1.085  -0.225  1.00  0.00     0.727 A
HETATM    4  N3  UNL     1      10.121   1.119   1.099  1.00  0.00    -0.074 N
HETATM    5  C2  UNL     1       9.099   1.934   1.362  1.00  0.00     0.188 A
HETATM    6  N5  UNL     1       8.583   2.225   2.665  1.00  0.00    -0.077 NA
HETATM    7  C3  UNL     1       8.614   2.458   0.145  1.00  0.00     0.167 A
BRANCH   3   8
HETATM    8  N2  UNL     1      11.253   0.362  -0.817  1.00  0.00    -0.136 N
ATOM      9  H2  UNL     1      11.147  -0.651  -0.877  1.00  0.00     0.205 HD
BRANCH   8  10
HETATM   10  N1  UNL     1      12.381   0.978  -1.362  1.00  0.00    -0.331 N
ATOM     11  H12 UNL     1      12.486   1.006  -2.376  1.00  0.00     0.177 HD
ATOM     12  H11 UNL     1      13.085   1.392  -0.751  1.00  0.00     0.177 HD
ENDBRANCH   8  10
ENDBRANCH   3   8
BRANCH   4  13
HETATM   13  N4  UNL     1      10.888   0.390   2.032  1.00  0.00    -0.323 N
ATOM     14  H42 UNL     1      11.882   0.503   2.231  1.00  0.00     0.178 HD
ATOM     15  H41 UNL     1      10.511  -0.350   2.624  1.00  0.00     0.178 HD
ENDBRANCH   4  13
BRANCH   7  16
HETATM   16  C4  UNL     1       7.493   3.369   0.072  1.00  0.00     0.286 C
HETATM   17  N6  UNL     1       7.525   4.767   0.038  1.00  0.00    -0.056 NA
HETATM   18  O1  UNL     1       6.307   2.867   0.032  1.00  0.00    -0.269 OA
ENDBRANCH   7  16
ENDBRANCH   1   2
BRANCH   1  19
HETATM   19  O2  UNL     1       9.487   1.021  -3.015  1.00  0.00    -0.347 OA
ATOM     20  H2  UNL     1       8.697   0.685  -3.422  1.00  0.00     0.219 HD
ENDBRANCH   1  19
BRANCH   1  21
HETATM   21  C6  UNL     1       9.964   3.388  -2.706  1.00  0.00     0.263 C
BRANCH  21  22
HETATM   22  N8  UNL     1       8.975   4.482  -2.782  1.00  0.00    -0.067 N
ATOM     23  H83 UNL     1       8.824   4.794  -3.741  1.00  0.00     0.275 HD
ATOM     24  H82 UNL     1       8.029   4.156  -2.579  1.00  0.00     0.275 HD
ATOM     25  H81 UNL     1       9.253   5.249  -2.171  1.00  0.00     0.275 HD
ENDBRANCH  21  22
BRANCH  21  26
HETATM   26  C7  UNL     1      10.680   3.287  -4.025  1.00  0.00     0.086 C
BRANCH  26  27
HETATM   27  C8  UNL     1      12.157   3.388  -4.005  1.00  0.00     0.065 C
BRANCH  27  28
HETATM   28  N9  UNL     1      12.719   4.667  -3.904  1.00  0.00    -0.352 N
ATOM     29  H9  UNL     1      13.672   4.724  -3.544  1.00  0.00     0.166 HD
BRANCH  28  30
HETATM   30  C9  UNL     1      12.155   5.770  -4.217  1.00  0.00     0.170 A
HETATM   31  N10 UNL     1      12.123   6.228  -5.511  1.00  0.00    -0.222 N
HETATM   32  O3  UNL     1      11.499   7.336  -5.509  1.00  0.00    -0.154 OA
ATOM     33  H10 UNL     1      12.525   5.764  -6.326  1.00  0.00     0.198 HD
HETATM   34  N11 UNL     1      11.102   7.682  -4.352  1.00  0.00    -0.224 N
HETATM   35  C10 UNL     1      11.492   6.721  -3.484  1.00  0.00     0.184 A
ATOM     36  H11 UNL     1      10.583   8.530  -4.121  1.00  0.00     0.198 HD
HETATM   37  N12 UNL     1      11.239   6.734  -2.090  1.00  0.00    -0.077 NA
ENDBRANCH  28  30
ENDBRANCH  27  28
ENDBRANCH  26  27
ENDBRANCH  21  26
ENDBRANCH   1  21
TORSDOF 12
ENDMDL