MODEL 1
REMARK VINA RESULT: -6.896151040      0.000      0.000
REMARK  15 active torsions:
REMARK  status: ('A' for Active; 'I' for Inactive)
REMARK    1  A    between atoms: N1_1  and  C1_4
REMARK    2  A    between atoms: C2_9  and  N4_10
REMARK    3  A    between atoms: N4_10  and  N5_12
REMARK    4  A    between atoms: N5_12  and  C3_13
REMARK    5  A    between atoms: C3_13  and  N6_14
REMARK    6  A    between atoms: C3_13  and  C4_18
REMARK    7  A    between atoms: C4_18  and  N9_24
REMARK    8  A    between atoms: N7_19  and  N8_21
REMARK    9  A    between atoms: N9_24  and  O1_25
REMARK   10  A    between atoms: N9_24  and  C5_27
REMARK   11  A    between atoms: C5_27  and  O2_28
REMARK   12  A    between atoms: O2_28  and  C6_29
REMARK   13  A    between atoms: C6_29  and  C7_31
REMARK   14  A    between atoms: C7_31  and  N10_32
REMARK   15  A    between atoms: C7_31  and  O4_36
ROOT
HETATM    1  C4  UNL     1      11.597   0.759   0.560  1.00  0.00     0.169 C
HETATM    2  N7  UNL     1      12.309  -0.005   1.305  1.00  0.00    -0.291 N
ATOM      3  H7  UNL     1      13.187  -0.385   0.952  1.00  0.00     0.188 HD
ENDROOT
BRANCH   1   4
HETATM    4  C3  UNL     1      12.032   1.100  -0.821  1.00  0.00     0.365 C
BRANCH   4   5
HETATM    5  N5  UNL     1      11.970   2.521  -1.068  1.00  0.00    -0.098 NA
BRANCH   5   6
HETATM    6  N4  UNL     1      11.934   2.718  -2.449  1.00  0.00    -0.280 N
ATOM      7  H4  UNL     1      12.213   1.975  -3.089  1.00  0.00     0.184 HD
BRANCH   6   8
HETATM    8  C2  UNL     1      11.493   4.000  -2.949  1.00  0.00     0.178 A
HETATM    9  N3  UNL     1      10.302   4.344  -3.414  1.00  0.00    -0.277 N
HETATM   10  N2  UNL     1      10.089   5.526  -3.817  1.00  0.00    -0.278 N
ATOM     11  H3  UNL     1       9.553   3.654  -3.450  1.00  0.00     0.189 HD
HETATM   12  C1  UNL     1      11.086   6.414  -3.760  1.00  0.00     0.160 A
ATOM     13  H2  UNL     1       9.173   5.795  -4.177  1.00  0.00     0.189 HD
HETATM   14  S1  UNL     1      12.352   5.468  -3.100  1.00  0.00    -0.015 SA
BRANCH  12  15
HETATM   15  N1  UNL     1      11.056   7.677  -4.128  1.00  0.00    -0.378 N
ATOM     16  H12 UNL     1      10.578   8.480  -3.720  1.00  0.00     0.158 HD
ATOM     17  H11 UNL     1      11.530   8.103  -4.924  1.00  0.00     0.158 HD
ENDBRANCH  12  15
ENDBRANCH   6   8
ENDBRANCH   5   6
ENDBRANCH   4   5
BRANCH   4  18
HETATM   18  N6  UNL     1      11.282   0.414  -1.834  1.00  0.00    -0.052 N
ATOM     19  H63 UNL     1      11.857   0.159  -2.636  1.00  0.00     0.276 HD
ATOM     20  H62 UNL     1      11.012  -0.527  -1.545  1.00  0.00     0.276 HD
ATOM     21  H61 UNL     1      10.478   0.984  -2.099  1.00  0.00     0.276 HD
ENDBRANCH   4  18
ENDBRANCH   1   4
BRANCH   1  22
HETATM   22  N9  UNL     1      10.380   1.271   1.086  1.00  0.00    -0.219 N
BRANCH  22  23
HETATM   23  O1  UNL     1      10.454   2.376   1.867  1.00  0.00    -0.284 OA
ATOM     24  H1  UNL     1      10.452   3.221   1.432  1.00  0.00     0.245 HD
ENDBRANCH  22  23
BRANCH  22  25
HETATM   25  C5  UNL     1       9.160   0.588   0.748  1.00  0.00     0.336 C
BRANCH  25  26
HETATM   26  O2  UNL     1       8.137   1.428   0.266  1.00  0.00    -0.296 OA
BRANCH  26  27
HETATM   27  C6  UNL     1       8.295   2.417  -0.689  1.00  0.00     0.317 C
HETATM   28  O3  UNL     1       8.777   2.098  -1.797  1.00  0.00    -0.260 OA
BRANCH  27  29
HETATM   29  C7  UNL     1       7.887   3.800  -0.354  1.00  0.00     0.417 C
BRANCH  29  30
HETATM   30  N10 UNL     1       6.463   3.918  -0.156  1.00  0.00    -0.043 N
ATOM     31 3H10 UNL     1       6.019   4.385  -0.947  1.00  0.00     0.278 HD
ATOM     32 2H10 UNL     1       6.006   3.010  -0.225  1.00  0.00     0.278 HD
ATOM     33 1H10 UNL     1       6.231   4.381   0.723  1.00  0.00     0.278 HD
ENDBRANCH  29  30
BRANCH  29  34
HETATM   34  O4  UNL     1       8.298   4.707  -1.313  1.00  0.00    -0.363 OA
ATOM     35  H4  UNL     1       8.698   5.478  -0.926  1.00  0.00     0.212 HD
ENDBRANCH  29  34
ENDBRANCH  27  29
ENDBRANCH  26  27
ENDBRANCH  25  26
ENDBRANCH  22  25
ENDBRANCH   1  22
BRANCH   2  36
HETATM   36  N8  UNL     1      11.894  -0.312   2.580  1.00  0.00    -0.344 N
ATOM     37  H82 UNL     1      12.592  -0.562   3.280  1.00  0.00     0.176 HD
ATOM     38  H81 UNL     1      10.902  -0.289   2.817  1.00  0.00     0.176 HD
ENDBRANCH   2  36
TORSDOF 15
ENDMDL