MODEL 2
REMARK VINA RESULT: -7.323165494      1.957      3.777
REMARK  12 active torsions:
REMARK  status: ('A' for Active; 'I' for Inactive)
REMARK    1  A    between atoms: C2_2  and  N1_3
REMARK    2  A    between atoms: C2_2  and  C3_7
REMARK    3  A    between atoms: C3_7  and  O1_8
REMARK    4  A    between atoms: C3_7  and  N2_10
REMARK    5  A    between atoms: N2_10  and  C4_12
REMARK    6  A    between atoms: C4_12  and  O2_13
REMARK    7  A    between atoms: C4_12  and  C5_15
REMARK    8  A    between atoms: C5_15  and  N3_16
REMARK    9  A    between atoms: C5_15  and  C6_20
REMARK   10  A    between atoms: C6_20  and  C7_21
REMARK   11  A    between atoms: C9_25  and  N5_26
REMARK   12  A    between atoms: N9_38  and  N10_39
ROOT
HETATM    1  C7  UNL     1      10.008   4.057  -3.228  1.00  0.00     0.110 A
HETATM    2  N4  UNL     1       8.934   4.358  -2.482  1.00  0.00    -0.338 N
ATOM      3  H4  UNL     1       8.293   5.134  -2.652  1.00  0.00     0.167 HD
HETATM    4  C8  UNL     1       8.839   3.483  -1.485  1.00  0.00     0.125 A
HETATM    5  C9  UNL     1       7.924   3.376  -0.472  1.00  0.00     0.145 A
HETATM    6  N6  UNL     1       8.085   2.379   0.398  1.00  0.00    -0.175 N
ATOM      7  H6  UNL     1       7.416   2.276   1.162  1.00  0.00     0.186 HD
HETATM    8  C10 UNL     1       9.125   1.486   0.295  1.00  0.00     0.681 A
HETATM    9  N7  UNL     1       9.209   0.563   1.167  1.00  0.00    -0.234 N
ATOM     10  H71 UNL     1       9.980  -0.099   1.090  1.00  0.00     0.174 HD
ATOM     11  H72 UNL     1       8.520   0.496   1.916  1.00  0.00     0.174 HD
HETATM   12  N8  UNL     1      10.029   1.575  -0.688  1.00  0.00    -0.168 N
HETATM   13  C11 UNL     1      11.150   0.695  -0.889  1.00  0.00     0.177 C
HETATM   14  C12 UNL     1       9.880   2.589  -1.588  1.00  0.00     0.178 A
HETATM   15  N9  UNL     1      10.589   2.951  -2.660  1.00  0.00    -0.210 N
ENDROOT
BRANCH   1  16
HETATM   16  C6  UNL     1      10.485   4.765  -4.430  1.00  0.00     0.116 C
BRANCH  16  17
HETATM   17  C5  UNL     1      10.916   6.169  -4.246  1.00  0.00     0.238 C
BRANCH  17  18
HETATM   18  C4  UNL     1      11.937   6.380  -3.165  1.00  0.00     0.246 C
BRANCH  18  19
HETATM   19  N2  UNL     1      13.044   5.509  -3.192  1.00  0.00    -0.368 N
ATOM     20  H2  UNL     1      12.900   4.524  -2.968  1.00  0.00     0.158 HD
BRANCH  19  21
HETATM   21  C3  UNL     1      14.322   5.942  -3.511  1.00  0.00     0.245 C
BRANCH  21  22
HETATM   22  C2  UNL     1      14.777   7.249  -2.923  1.00  0.00     0.227 C
HETATM   23  C1  UNL     1      15.882   6.945  -1.902  1.00  0.00     0.044 C
BRANCH  22  24
HETATM   24  N1  UNL     1      15.406   8.006  -4.005  1.00  0.00    -0.071 N
ATOM     25  H13 UNL     1      16.227   8.532  -3.705  1.00  0.00     0.274 HD
ATOM     26  H12 UNL     1      15.877   7.415  -4.690  1.00  0.00     0.274 HD
ATOM     27  H11 UNL     1      14.676   8.592  -4.410  1.00  0.00     0.274 HD
ENDBRANCH  22  24
ENDBRANCH  21  22
BRANCH  21  28
HETATM   28  O1  UNL     1      14.365   6.133  -4.918  1.00  0.00    -0.375 OA
ATOM     29  H1  UNL     1      13.796   6.875  -5.085  1.00  0.00     0.212 HD
ENDBRANCH  21  28
ENDBRANCH  19  21
ENDBRANCH  18  19
BRANCH  18  30
HETATM   30  O2  UNL     1      11.306   6.422  -1.889  1.00  0.00    -0.375 OA
ATOM     31  H2  UNL     1      10.569   7.021  -1.867  1.00  0.00     0.212 HD
ENDBRANCH  18  30
ENDBRANCH  17  18
BRANCH  17  32
HETATM   32  N3  UNL     1      11.308   6.742  -5.520  1.00  0.00    -0.070 N
ATOM     33  H33 UNL     1      12.322   6.838  -5.578  1.00  0.00     0.274 HD
ATOM     34  H32 UNL     1      11.159   6.077  -6.279  1.00  0.00     0.274 HD
ATOM     35  H31 UNL     1      10.848   7.630  -5.719  1.00  0.00     0.274 HD
ENDBRANCH  17  32
ENDBRANCH  16  17
ENDBRANCH   1  16
BRANCH  15  36
HETATM   36  N10 UNL     1      11.722   2.352  -3.154  1.00  0.00    -0.239 N
HETATM   37  N11 UNL     1      11.647   1.540  -4.128  1.00  0.00    -0.330 N
ATOM     38 2H11 UNL     1      10.733   1.342  -4.533  1.00  0.00     0.178 HD
ATOM     39 1H11 UNL     1      12.488   1.094  -4.495  1.00  0.00     0.178 HD
ATOM     40  H10 UNL     1      12.629   2.560  -2.736  1.00  0.00     0.208 HD
ENDBRANCH  15  36
BRANCH   5  41
HETATM   41  N5  UNL     1       6.927   4.218  -0.358  1.00  0.00    -0.383 N
ATOM     42  H52 UNL     1       6.880   5.059  -0.933  1.00  0.00     0.157 HD
ATOM     43  H51 UNL     1       6.169   4.060   0.306  1.00  0.00     0.157 HD
ENDBRANCH   5  41
TORSDOF 12
ENDMDL