MODEL 1
REMARK VINA RESULT: -7.680226777      0.000      0.000
REMARK  12 active torsions:
REMARK  status: ('A' for Active; 'I' for Inactive)
REMARK    1  A    between atoms: N1_2  and  N2_3
REMARK    2  A    between atoms: N1_2  and  N3_6
REMARK       I    between atoms: N3_6  and  C2_8
REMARK       I    between atoms: C2_8  and  N4_9
REMARK       I    between atoms: C2_8  and  N13_32
REMARK    3  A    between atoms: N4_9  and  N5_11
REMARK    4  A    between atoms: N6_13  and  C3_15
REMARK    5  A    between atoms: C4_18  and  N8_19
REMARK    6  A    between atoms: N8_19  and  N9_21
REMARK    7  A    between atoms: C5_26  and  N11_27
REMARK       I    between atoms: N13_32  and  C6_34
REMARK    8  A    between atoms: C6_34  and  C7_36
REMARK    9  A    between atoms: C7_36  and  N14_37
REMARK   10  A    between atoms: C7_36  and  C8_41
REMARK   11  A    between atoms: C8_41  and  C9_42
REMARK   12  A    between atoms: C9_42  and  N15_43
ROOT
HETATM    1  N3  UNL     1      12.495   1.648  -3.411  1.00  0.00    -0.115 N
ATOM      2  H3  UNL     1      12.180   2.336  -4.095  1.00  0.00     0.207 HD
HETATM    3  C2  UNL     1      11.999   1.754  -2.346  1.00  0.00     0.716 C
HETATM    4  N4  UNL     1      11.104   3.137  -3.018  1.00  0.00    -0.116 N
ATOM      5  H4  UNL     1      10.161   3.131  -3.408  1.00  0.00     0.207 HD
HETATM    6  N13 UNL     1      11.414   1.887  -1.108  1.00  0.00    -0.155 N
ATOM      7  H13 UNL     1      10.763   2.645  -0.906  1.00  0.00     0.187 HD
HETATM    8  C6  UNL     1      11.762   0.905  -0.107  1.00  0.00     0.266 C
HETATM    9  O1  UNL     1      12.560  -0.007  -0.405  1.00  0.00    -0.270 OA
ENDROOT
BRANCH   1  10
HETATM   10  N1  UNL     1      13.428   0.754  -3.888  1.00  0.00    -0.231 N
HETATM   11  C1  UNL     1      13.871   0.822  -5.288  1.00  0.00     0.200 C
BRANCH  10  12
HETATM   12  N2  UNL     1      13.980  -0.225  -3.084  1.00  0.00    -0.329 N
ATOM     13  H22 UNL     1      14.635  -0.917  -3.449  1.00  0.00     0.178 HD
ATOM     14  H21 UNL     1      13.710  -0.241  -2.101  1.00  0.00     0.178 HD
ENDBRANCH  10  12
ENDBRANCH   1  10
BRANCH   4  15
HETATM   15  N5  UNL     1      11.883   4.130  -2.910  1.00  0.00    -0.214 N
HETATM   16  N6  UNL     1      12.342   5.061  -2.269  1.00  0.00    -0.116 N
ATOM     17  H6  UNL     1      12.033   5.265  -1.319  1.00  0.00     0.207 HD
ATOM     18  H5  UNL     1      12.369   4.172  -3.806  1.00  0.00     0.209 HD
BRANCH  16  19
HETATM   19  C3  UNL     1      13.351   5.860  -2.935  1.00  0.00     0.727 A
HETATM   20  N7  UNL     1      14.428   6.201  -2.203  1.00  0.00    -0.018 N
HETATM   21  C4  UNL     1      15.420   6.954  -2.724  1.00  0.00     0.725 A
ATOM     22  H7  UNL     1      14.497   5.885  -1.235  1.00  0.00     0.203 HD
HETATM   23  N10 UNL     1      15.297   7.352  -3.996  1.00  0.00    -0.020 N
HETATM   24  C5  UNL     1      14.211   7.014  -4.751  1.00  0.00     0.705 A
ATOM     25  H10 UNL     1      16.034   7.921  -4.412  1.00  0.00     0.203 HD
HETATM   26  N12 UNL     1      13.221   6.255  -4.210  1.00  0.00    -0.020 N
ATOM     27  H12 UNL     1      12.403   5.993  -4.759  1.00  0.00     0.203 HD
BRANCH  21  28
HETATM   28  N8  UNL     1      16.528   7.274  -1.905  1.00  0.00    -0.138 N
ATOM     29  H8  UNL     1      17.062   8.111  -2.137  1.00  0.00     0.205 HD
BRANCH  28  30
HETATM   30  N9  UNL     1      16.941   6.528  -0.804  1.00  0.00    -0.331 N
ATOM     31  H92 UNL     1      17.518   5.710  -0.997  1.00  0.00     0.177 HD
ATOM     32  H91 UNL     1      16.706   6.745   0.165  1.00  0.00     0.177 HD
ENDBRANCH  28  30
ENDBRANCH  21  28
BRANCH  24  33
HETATM   33  N11 UNL     1      14.113   7.404  -5.973  1.00  0.00    -0.234 N
ATOM     34 2H11 UNL     1      14.931   7.794  -6.442  1.00  0.00     0.174 HD
ATOM     35 1H11 UNL     1      13.228   7.329  -6.475  1.00  0.00     0.174 HD
ENDBRANCH  24  33
ENDBRANCH  16  19
ENDBRANCH   4  15
BRANCH   8  36
HETATM   36  C7  UNL     1      11.194   0.963   1.244  1.00  0.00     0.277 C
BRANCH  36  37
HETATM   37  N14 UNL     1       9.894   1.597   1.286  1.00  0.00    -0.066 N
ATOM     38 3H14 UNL     1       9.376   1.422   0.425  1.00  0.00     0.275 HD
ATOM     39 2H14 UNL     1       9.280   1.124   1.949  1.00  0.00     0.275 HD
ATOM     40 1H14 UNL     1       9.943   2.597   1.484  1.00  0.00     0.275 HD
ENDBRANCH  36  37
BRANCH  36  41
HETATM   41  C8  UNL     1      11.075  -0.390   1.893  1.00  0.00     0.069 C
BRANCH  41  42
HETATM   42  C9  UNL     1      11.945  -0.405   3.123  1.00  0.00     0.232 C
BRANCH  42  43
HETATM   43  N15 UNL     1      11.101  -0.383   4.272  1.00  0.00    -0.079 N
ATOM     44 3H15 UNL     1      11.504   0.147   5.045  1.00  0.00     0.274 HD
ATOM     45 2H15 UNL     1      10.265   0.186   4.134  1.00  0.00     0.274 HD
ATOM     46 1H15 UNL     1      10.882  -1.345   4.529  1.00  0.00     0.274 HD
ENDBRANCH  42  43
ENDBRANCH  41  42
ENDBRANCH  36  41
ENDBRANCH   8  36
TORSDOF 12
ENDMDL