MODEL 1
REMARK VINA RESULT: -7.330848912      0.000      0.000
REMARK  4 active torsions:
REMARK  status: ('A' for Active; 'I' for Inactive)
REMARK    1  A    between atoms: N1_1  and  C1_4
REMARK    2  A    between atoms: C2_7  and  C3_8
REMARK       I    between atoms: C3_8  and  N3_10
REMARK       I    between atoms: N3_10  and  C4_12
REMARK       I    between atoms: C4_12  and  N4_13
REMARK       I    between atoms: C4_12  and  N5_17
REMARK    3  A    between atoms: C5_21  and  C6_22
REMARK    4  A    between atoms: C7_27  and  N7_28
ROOT
HETATM    1  C1  UNL     1      67.052  85.499  59.248  1.00  0.00     0.151 A
HETATM    2  N2  UNL     1      68.031  84.686  59.658  1.00  0.00    -0.333 N
ATOM      3  H2  UNL     1      68.415  84.007  59.001  1.00  0.00     0.168 HD
HETATM    4  C2  UNL     1      68.534  84.735  60.925  1.00  0.00     0.136 A
HETATM    5  C5  UNL     1      68.062  85.611  61.819  1.00  0.00     0.144 A
HETATM    6  N6  UNL     1      67.052  86.446  61.403  1.00  0.00    -0.327 N
ATOM      7  H6  UNL     1      66.669  87.123  62.064  1.00  0.00     0.168 HD
HETATM    8  C7  UNL     1      66.552  86.402  60.153  1.00  0.00     0.218 A
ENDROOT
BRANCH   4   9
HETATM    9  C3  UNL     1      69.584  83.765  61.167  1.00  0.00     0.273 C
HETATM   10  O1  UNL     1      70.740  83.951  60.791  1.00  0.00    -0.266 OA
HETATM   11  N3  UNL     1      69.280  82.561  61.856  1.00  0.00    -0.306 N
HETATM   12  C4  UNL     1      70.325  81.558  62.117  1.00  0.00     0.483 C
ATOM     13  H3  UNL     1      68.326  82.390  62.173  1.00  0.00     0.166 HD
HETATM   14  N4  UNL     1      70.528  81.387  63.520  1.00  0.00    -0.033 N
HETATM   15  N5  UNL     1      69.996  80.351  61.405  1.00  0.00    -0.033 N
ATOM     16  H43 UNL     1      70.732  82.274  63.981  1.00  0.00     0.278 HD
ATOM     17  H42 UNL     1      69.659  81.159  64.001  1.00  0.00     0.278 HD
ATOM     18  H41 UNL     1      71.253  80.692  63.701  1.00  0.00     0.278 HD
ATOM     19  H53 UNL     1      69.062  80.008  61.630  1.00  0.00     0.278 HD
ATOM     20  H52 UNL     1      69.851  80.513  60.409  1.00  0.00     0.278 HD
ATOM     21  H51 UNL     1      70.720  79.656  61.587  1.00  0.00     0.278 HD
ENDBRANCH   4   9
BRANCH   5  22
HETATM   22  C6  UNL     1      68.534  85.863  63.168  1.00  0.00     0.229 C
HETATM   23  O2  UNL     1      67.453  85.887  64.100  1.00  0.00    -0.643 OA
HETATM   24  O3  UNL     1      69.674  85.346  63.636  1.00  0.00    -0.643 OA
ENDBRANCH   5  22
BRANCH   1  25
HETATM   25  N1  UNL     1      66.619  85.383  58.037  1.00  0.00    -0.382 N
ATOM     26  H12 UNL     1      66.519  86.168  57.394  1.00  0.00     0.157 HD
ATOM     27  H11 UNL     1      66.347  84.459  57.703  1.00  0.00     0.157 HD
ENDBRANCH   1  25
BRANCH   8  28
HETATM   28  N7  UNL     1      65.501  87.304  59.810  1.00  0.00    -0.094 N
HETATM   29  O4  UNL     1      65.071  87.448  58.680  1.00  0.00    -0.530 OA
HETATM   30  O5  UNL     1      64.971  88.078  60.839  1.00  0.00    -0.530 OA
ENDBRANCH   8  28
TORSDOF 4
ENDMDL