MODEL 2
REMARK VINA RESULT: -6.298167154      1.597      3.497
REMARK  2 active torsions:
REMARK  status: ('A' for Active; 'I' for Inactive)
REMARK    1  A    between atoms: C1_4  and  C2_5
REMARK       I    between atoms: N5_17  and  C7_18
REMARK       I    between atoms: C7_18  and  N6_20
REMARK    2  A    between atoms: N6_20  and  N7_22
REMARK       I    between atoms: N7_22  and  C8_23
REMARK       I    between atoms: C8_23  and  N8_24
REMARK       I    between atoms: C8_23  and  N9_28
ROOT
HETATM    1  C2  UNL     1      74.147  77.928  60.359  1.00  0.00     0.133 A
HETATM    2  N2  UNL     1      75.148  77.047  60.687  1.00  0.00    -0.333 N
ATOM      3  H2  UNL     1      76.050  76.977  60.216  1.00  0.00     0.168 HD
HETATM    4  C3  UNL     1      74.758  76.299  61.715  1.00  0.00     0.148 A
HETATM    5  C4  UNL     1      75.329  75.275  62.455  1.00  0.00     0.277 A
HETATM    6  O1  UNL     1      76.489  74.931  62.116  1.00  0.00    -0.266 OA
HETATM    7  N3  UNL     1      74.639  74.717  63.462  1.00  0.00    -0.318 N
ATOM      8  H3  UNL     1      75.057  73.963  64.006  1.00  0.00     0.169 HD
HETATM    9  C5  UNL     1      73.395  75.150  63.758  1.00  0.00     0.185 A
HETATM   10  N4  UNL     1      72.812  76.136  63.067  1.00  0.00    -0.336 N
ATOM     11  H4  UNL     1      71.871  76.451  63.304  1.00  0.00     0.168 HD
HETATM   12  C6  UNL     1      73.501  76.713  62.040  1.00  0.00     0.151 A
HETATM   13  N5  UNL     1      73.149  77.709  61.197  1.00  0.00    -0.230 N
HETATM   14  C7  UNL     1      71.910  78.427  61.205  1.00  0.00     0.345 C
HETATM   15  O2  UNL     1      71.719  79.351  60.368  1.00  0.00    -0.245 OA
HETATM   16  N6  UNL     1      70.836  78.192  62.098  1.00  0.00    -0.251 N
ATOM     17  H6  UNL     1      70.882  77.468  62.815  1.00  0.00     0.187 HD
ENDROOT
BRANCH   1  18
HETATM   18  C1  UNL     1      74.288  78.884  59.262  1.00  0.00     0.130 C
HETATM   19  N1  UNL     1      74.661  78.490  58.082  1.00  0.00    -0.405 N
ATOM     20  H12 UNL     1      74.854  77.499  57.936  1.00  0.00     0.155 HD
ATOM     21  H11 UNL     1      74.760  79.157  57.317  1.00  0.00     0.155 HD
ENDBRANCH   1  18
BRANCH  16  22
HETATM   22  N7  UNL     1      69.696  79.014  61.942  1.00  0.00    -0.077 NA
HETATM   23  C8  UNL     1      69.559  79.978  63.007  1.00  0.00     0.490 C
HETATM   24  N8  UNL     1      70.785  80.792  62.979  1.00  0.00    -0.035 N
HETATM   25  N9  UNL     1      68.456  80.883  62.662  1.00  0.00    -0.035 N
ATOM     26  H83 UNL     1      71.640  80.240  63.038  1.00  0.00     0.278 HD
ATOM     27  H82 UNL     1      70.971  81.214  62.070  1.00  0.00     0.278 HD
ATOM     28  H81 UNL     1      70.687  81.473  63.733  1.00  0.00     0.278 HD
ATOM     29  H93 UNL     1      68.575  81.319  61.748  1.00  0.00     0.278 HD
ATOM     30  H92 UNL     1      67.587  80.387  62.465  1.00  0.00     0.278 HD
ATOM     31  H91 UNL     1      68.359  81.564  63.416  1.00  0.00     0.278 HD
ENDBRANCH  16  22
TORSDOF 2
ENDMDL