MODEL 4
REMARK VINA RESULT: -6.595547115      2.497      6.807
REMARK  11 active torsions:
REMARK  status: ('A' for Active; 'I' for Inactive)
REMARK    1  A    between atoms: N1_1  and  C1_5
REMARK    2  A    between atoms: C1_5  and  O1_6
REMARK    3  A    between atoms: C1_5  and  C2_8
REMARK    4  A    between atoms: C2_8  and  N2_9
REMARK    5  A    between atoms: C2_8  and  C3_13
REMARK    6  A    between atoms: C3_13  and  C4_15
REMARK    7  A    between atoms: C5_22  and  C6_23
REMARK       I    between atoms: C6_23  and  N6_25
REMARK    8  A    between atoms: N6_25  and  C7_27
REMARK    9  A    between atoms: C7_27  and  O4_28
REMARK   10  A    between atoms: C7_27  and  N7_30
REMARK   11  A    between atoms: N7_30  and  O5_32
ROOT
HETATM    1  C4  UNL     1      69.228  82.083  62.589  1.00  0.00     0.131 A
HETATM    2  N3  UNL     1      67.883  82.104  62.879  1.00  0.00    -0.280 N
ATOM      3  H3  UNL     1      67.331  82.955  62.988  1.00  0.00     0.188 HD
HETATM    4  N4  UNL     1      67.404  80.899  62.997  1.00  0.00    -0.242 N
ATOM      5  H4  UNL     1      66.438  80.648  63.208  1.00  0.00     0.208 HD
HETATM    6  N5  UNL     1      68.383  80.079  62.795  1.00  0.00    -0.279 N
ATOM      7  H5  UNL     1      68.296  79.063  62.825  1.00  0.00     0.189 HD
HETATM    8  C5  UNL     1      69.559  80.750  62.533  1.00  0.00     0.149 A
ENDROOT
BRANCH   1   9
HETATM    9  C3  UNL     1      70.071  83.243  62.396  1.00  0.00     0.214 C
HETATM   10  O2  UNL     1      71.243  83.389  62.800  1.00  0.00    -0.288 OA
BRANCH   9  11
HETATM   11  C2  UNL     1      69.542  84.409  61.646  1.00  0.00     0.314 C
BRANCH  11  12
HETATM   12  C1  UNL     1      68.869  85.408  62.558  1.00  0.00     0.354 C
BRANCH  12  13
HETATM   13  N1  UNL     1      69.415  85.414  63.880  1.00  0.00    -0.051 N
ATOM     14  H13 UNL     1      69.488  86.365  64.239  1.00  0.00     0.277 HD
ATOM     15  H12 UNL     1      68.746  85.034  64.551  1.00  0.00     0.277 HD
ATOM     16  H11 UNL     1      70.310  84.929  63.946  1.00  0.00     0.277 HD
ENDBRANCH  12  13
BRANCH  12  17
HETATM   17  O1  UNL     1      68.949  86.649  61.929  1.00  0.00    -0.368 OA
ATOM     18  H1  UNL     1      69.512  86.643  61.163  1.00  0.00     0.212 HD
ENDBRANCH  12  17
ENDBRANCH  11  12
BRANCH  11  19
HETATM   19  N2  UNL     1      68.648  83.995  60.626  1.00  0.00    -0.064 N
ATOM     20  H23 UNL     1      67.985  84.730  60.380  1.00  0.00     0.275 HD
ATOM     21  H22 UNL     1      69.115  83.905  59.724  1.00  0.00     0.275 HD
ATOM     22  H21 UNL     1      68.177  83.132  60.898  1.00  0.00     0.275 HD
ENDBRANCH  11  19
ENDBRANCH   9  11
ENDBRANCH   1   9
BRANCH   8  23
HETATM   23  C6  UNL     1      70.836  80.101  62.266  1.00  0.00     0.279 C
HETATM   24  O3  UNL     1      71.891  80.521  62.715  1.00  0.00    -0.265 OA
HETATM   25  N6  UNL     1      70.810  78.951  61.453  1.00  0.00    -0.286 N
ATOM     26  H6  UNL     1      69.912  78.629  61.094  1.00  0.00     0.172 HD
BRANCH  25  27
HETATM   27  C7  UNL     1      71.963  78.229  61.115  1.00  0.00     0.244 C
BRANCH  27  28
HETATM   28  O4  UNL     1      72.762  78.743  60.226  1.00  0.00    -0.331 OA
ATOM     29  H4  UNL     1      73.694  78.732  60.408  1.00  0.00     0.221 HD
ENDBRANCH  27  28
BRANCH  27  30
HETATM   30  N7  UNL     1      72.378  76.995  61.626  1.00  0.00    -0.233 N
ATOM     31  H7  UNL     1      72.947  76.372  61.052  1.00  0.00     0.198 HD
BRANCH  30  32
HETATM   32  O5  UNL     1      72.014  76.612  62.920  1.00  0.00    -0.287 OA
ATOM     33  H5  UNL     1      72.164  77.201  63.651  1.00  0.00     0.244 HD
ENDBRANCH  30  32
ENDBRANCH  27  30
ENDBRANCH  25  27
ENDBRANCH   8  23
TORSDOF 11
ENDMDL