MODEL 3
REMARK VINA RESULT: -6.638371661      2.436      2.778
REMARK  5 active torsions:
REMARK  status: ('A' for Active; 'I' for Inactive)
REMARK    1  A    between atoms: N1_1  and  S1_4
REMARK    2  A    between atoms: S1_4  and  N2_5
REMARK    3  A    between atoms: S1_4  and  C1_9
REMARK    4  A    between atoms: C3_11  and  C4_12
REMARK    5  A    between atoms: C5_17  and  C6_18
ROOT
HETATM    1  C1  UNL     1      73.519  76.469  62.005  1.00  0.00     0.130 A
HETATM    2  C2  UNL     1      74.306  76.633  60.884  1.00  0.00     0.076 A
HETATM    3  C3  UNL     1      74.042  77.640  59.969  1.00  0.00     0.102 A
HETATM    4  N4  UNL     1      72.994  78.431  60.232  1.00  0.00    -0.339 N
ATOM      5  H4  UNL     1      72.774  79.181  59.577  1.00  0.00     0.167 HD
HETATM    6  C5  UNL     1      72.212  78.280  61.330  1.00  0.00     0.121 A
HETATM    7  N9  UNL     1      72.485  77.301  62.202  1.00  0.00    -0.334 N
ATOM      8  H9  UNL     1      71.897  77.186  63.028  1.00  0.00     0.168 HD
ENDROOT
BRANCH   1   9
HETATM    9  S1  UNL     1      73.910  75.177  63.120  1.00  0.00     0.147 S
HETATM   10  O1  UNL     1      73.718  73.825  62.485  1.00  0.00    -0.222 OA
BRANCH   9  11
HETATM   11  N1  UNL     1      75.385  75.328  63.573  1.00  0.00    -0.340 N
ATOM     12  H12 UNL     1      75.689  75.819  64.415  1.00  0.00     0.167 HD
ATOM     13  H11 UNL     1      75.986  74.860  62.895  1.00  0.00     0.167 HD
ENDBRANCH   9  11
BRANCH   9  14
HETATM   14  N2  UNL     1      72.890  75.253  64.512  1.00  0.00    -0.340 N
ATOM     15  H22 UNL     1      72.779  74.504  65.195  1.00  0.00     0.167 HD
ATOM     16  H21 UNL     1      72.429  76.163  64.531  1.00  0.00     0.167 HD
ENDBRANCH   9  14
ENDBRANCH   1   9
BRANCH   3  17
HETATM   17  C4  UNL     1      74.880  77.802  58.790  1.00  0.00     0.281 C
HETATM   18  N3  UNL     1      74.499  78.693  57.752  1.00  0.00    -0.056 NA
HETATM   19  O2  UNL     1      75.937  77.139  58.720  1.00  0.00    -0.269 OA
ENDBRANCH   3  17
BRANCH   6  20
HETATM   20  C6  UNL     1      71.094  79.230  61.482  1.00  0.00     0.274 C
HETATM   21  N5  UNL     1      71.239  80.096  62.633  1.00  0.00    -0.098 NA
HETATM   22  N6  UNL     1      69.941  80.382  63.012  1.00  0.00    -0.019 NA
HETATM   23  N7  UNL     1      69.076  79.626  62.249  1.00  0.00    -0.019 NA
HETATM   24  N8  UNL     1      69.862  78.514  61.839  1.00  0.00    -0.098 NA
ENDBRANCH   6  20
TORSDOF 5
ENDMDL