MODEL 5
REMARK VINA RESULT: -5.029400289      4.724      7.642
REMARK  5 active torsions:
REMARK  status: ('A' for Active; 'I' for Inactive)
REMARK    1  A    between atoms: C3_6  and  N3_7
REMARK    2  A    between atoms: C5_9  and  C6_10
REMARK    3  A    between atoms: C6_10  and  N4_11
REMARK    4  A    between atoms: C6_10  and  O1_15
REMARK    5  A    between atoms: C8_27  and  N9_28
ROOT
HETATM    1  N1  UNL     1      70.482  84.632  61.192  1.00  0.00    -0.188 NA
HETATM    2  C1  UNL     1      70.234  83.535  61.469  1.00  0.00     0.138 C
HETATM    3  C2  UNL     1      69.947  82.173  61.799  1.00  0.00     0.217 A
HETATM    4  N2  UNL     1      70.806  81.153  61.503  1.00  0.00    -0.164 N
ATOM      5  H2  UNL     1      71.682  81.370  61.030  1.00  0.00     0.186 HD
HETATM    6  C3  UNL     1      70.541  79.892  61.810  1.00  0.00     0.716 A
HETATM    7  N8  UNL     1      69.360  79.636  62.442  1.00  0.00    -0.021 N
ATOM      8  H8  UNL     1      69.134  78.673  62.688  1.00  0.00     0.203 HD
HETATM    9  C8  UNL     1      68.482  80.603  62.753  1.00  0.00     0.692 A
HETATM   10  N10 UNL     1      68.784  81.875  62.427  1.00  0.00    -0.166 N
ATOM     11  H10 UNL     1      68.129  82.623  62.655  1.00  0.00     0.186 HD
ENDROOT
BRANCH   6  12
HETATM   12  N3  UNL     1      71.376  78.770  61.525  1.00  0.00    -0.107 N
HETATM   13  C4  UNL     1      72.211  78.862  60.355  1.00  0.00     0.198 C
HETATM   14  C5  UNL     1      73.436  78.020  60.399  1.00  0.00     0.175 C
HETATM   15  N5  UNL     1      73.637  77.307  61.639  1.00  0.00    -0.215 N
HETATM   16  C7  UNL     1      72.562  76.860  62.449  1.00  0.00     0.687 C
ATOM     17  H5  UNL     1      74.592  77.116  61.945  1.00  0.00     0.178 HD
HETATM   18  N6  UNL     1      72.644  75.832  63.208  1.00  0.00    -0.234 N
HETATM   19  N7  UNL     1      71.360  77.657  62.373  1.00  0.00    -0.116 N
ATOM     20  H62 UNL     1      73.494  75.269  63.262  1.00  0.00     0.174 HD
ATOM     21  H61 UNL     1      71.872  75.511  63.790  1.00  0.00     0.174 HD
ATOM     22  H7  UNL     1      70.530  77.417  62.916  1.00  0.00     0.206 HD
BRANCH  14  23
HETATM   23  C6  UNL     1      73.502  77.094  59.197  1.00  0.00     0.341 C
BRANCH  23  24
HETATM   24  N4  UNL     1      72.338  76.242  59.099  1.00  0.00    -0.051 N
ATOM     25  H43 UNL     1      72.596  75.295  58.820  1.00  0.00     0.277 HD
ATOM     26  H42 UNL     1      71.950  76.039  60.020  1.00  0.00     0.277 HD
ATOM     27  H41 UNL     1      71.628  76.628  58.476  1.00  0.00     0.277 HD
ENDBRANCH  23  24
BRANCH  23  28
HETATM   28  O1  UNL     1      73.625  77.825  58.023  1.00  0.00    -0.368 OA
ATOM     29  H1  UNL     1      73.266  78.698  58.133  1.00  0.00     0.212 HD
ENDBRANCH  23  28
ENDBRANCH  14  23
ENDBRANCH   6  12
BRANCH   9  30
HETATM   30  N9  UNL     1      67.345  80.359  63.357  1.00  0.00    -0.234 N
ATOM     31  H92 UNL     1      67.139  80.842  64.232  1.00  0.00     0.174 HD
ATOM     32  H91 UNL     1      66.655  79.705  62.988  1.00  0.00     0.174 HD
ENDBRANCH   9  30
TORSDOF 5
ENDMDL