MODEL 4
REMARK VINA RESULT: -5.452323329      4.752      5.704
REMARK  6 active torsions:
REMARK  status: ('A' for Active; 'I' for Inactive)
REMARK    1  A    between atoms: C2_2  and  O1_3
REMARK    2  A    between atoms: C2_2  and  C8_22
REMARK    3  A    between atoms: O1_3  and  C3_4
REMARK    4  A    between atoms: N1_6  and  N2_7
REMARK    5  A    between atoms: N3_11  and  N4_13
REMARK       I    between atoms: C8_22  and  N8_24
REMARK    6  A    between atoms: N8_24  and  N9_25
ROOT
HETATM    1  C3  UNL     1      75.204  76.206  60.057  1.00  0.00     0.162 C
HETATM    2  C4  UNL     1      75.531  76.821  61.180  1.00  0.00     0.173 C
HETATM    3  N1  UNL     1      75.578  76.295  62.517  1.00  0.00    -0.251 N
HETATM    4  C5  UNL     1      74.816  75.150  62.958  1.00  0.00     0.168 C
HETATM    5  N3  UNL     1      74.674  75.127  64.217  1.00  0.00    -0.289 N
ATOM      6  H3  UNL     1      75.101  75.890  64.743  1.00  0.00     0.188 HD
HETATM    7  C6  UNL     1      74.215  74.062  62.165  1.00  0.00     0.134 C
HETATM    8  N5  UNL     1      73.567  73.027  62.855  1.00  0.00    -0.095 NA
HETATM    9  C7  UNL     1      74.226  73.958  60.847  1.00  0.00     0.146 C
HETATM   10  N6  UNL     1      73.567  72.804  60.356  1.00  0.00    -0.080 NA
HETATM   11  N7  UNL     1      74.808  74.843  59.877  1.00  0.00    -0.323 N
ATOM     12  H7  UNL     1      74.956  74.452  58.946  1.00  0.00     0.169 HD
ENDROOT
BRANCH   1  13
HETATM   13  O1  UNL     1      75.232  76.927  58.882  1.00  0.00    -0.319 OA
BRANCH  13  14
HETATM   14  C2  UNL     1      74.151  77.516  58.238  1.00  0.00     0.235 C
HETATM   15  C1  UNL     1      74.342  77.358  56.737  1.00  0.00     0.052 C
BRANCH  14  16
HETATM   16  C8  UNL     1      72.816  76.903  58.628  1.00  0.00     0.340 C
HETATM   17  O2  UNL     1      72.105  77.680  59.365  1.00  0.00    -0.252 OA
HETATM   18  N8  UNL     1      72.451  75.656  58.216  1.00  0.00    -0.291 NA
BRANCH  18  19
HETATM   19  N9  UNL     1      72.094  74.448  57.817  1.00  0.00    -0.277 N
ATOM     20  H92 UNL     1      72.431  75.346  58.164  1.00  0.00     0.191 HD
ATOM     21  H91 UNL     1      71.818  73.516  57.508  1.00  0.00     0.191 HD
ENDBRANCH  18  19
ENDBRANCH  14  16
ENDBRANCH  13  14
ENDBRANCH   1  13
BRANCH   3  22
HETATM   22  N2  UNL     1      76.405  76.918  63.446  1.00  0.00    -0.337 N
ATOM     23  H22 UNL     1      77.412  76.856  63.301  1.00  0.00     0.177 HD
ATOM     24  H21 UNL     1      75.972  77.409  64.228  1.00  0.00     0.177 HD
ENDBRANCH   3  22
BRANCH   5  25
HETATM   25  N4  UNL     1      74.000  74.176  64.943  1.00  0.00    -0.344 N
ATOM     26  H42 UNL     1      74.223  73.207  64.715  1.00  0.00     0.176 HD
ATOM     27  H41 UNL     1      73.312  74.350  65.675  1.00  0.00     0.176 HD
ENDBRANCH   5  25
TORSDOF 6
ENDMDL