MODEL 1
REMARK VINA RESULT: -6.265455850      0.000      0.000
REMARK  8 active torsions:
REMARK  status: ('A' for Active; 'I' for Inactive)
REMARK    1  A    between atoms: O1_2  and  C2_3
REMARK    2  A    between atoms: C4_12  and  N4_13
REMARK    3  A    between atoms: C5_16  and  C6_17
REMARK    4  A    between atoms: C6_17  and  N5_18
REMARK    5  A    between atoms: C6_17  and  C7_22
REMARK    6  A    between atoms: C7_22  and  O3_24
REMARK    7  A    between atoms: O3_24  and  C8_25
REMARK       I    between atoms: C8_25  and  N6_27
REMARK    8  A    between atoms: N6_27  and  N7_28
ROOT
HETATM    1  C2  UNL     1      74.630  75.452  60.998  1.00  0.00     0.169 A
HETATM    2  N1  UNL     1      75.752  74.800  61.406  1.00  0.00    -0.170 N
ATOM      3  H1  UNL     1      75.774  73.781  61.357  1.00  0.00     0.186 HD
HETATM    4  C3  UNL     1      76.808  75.437  61.859  1.00  0.00     0.679 A
HETATM    5  N2  UNL     1      77.915  74.827  62.280  1.00  0.00    -0.234 N
ATOM      6  H21 UNL     1      78.734  75.321  62.632  1.00  0.00     0.174 HD
ATOM      7  H22 UNL     1      77.969  73.809  62.243  1.00  0.00     0.174 HD
HETATM    8  N3  UNL     1      76.736  76.816  61.909  1.00  0.00    -0.177 N
ATOM      9  H3  UNL     1      77.539  77.340  62.255  1.00  0.00     0.186 HD
HETATM   10  C4  UNL     1      75.630  77.494  61.512  1.00  0.00     0.128 A
HETATM   11  C5  UNL     1      74.537  76.859  61.042  1.00  0.00     0.077 A
ENDROOT
BRANCH  11  12
HETATM   12  C6  UNL     1      73.287  77.461  60.651  1.00  0.00     0.323 C
BRANCH  12  13
HETATM   13  N5  UNL     1      72.595  76.748  59.552  1.00  0.00    -0.061 N
ATOM     14  H53 UNL     1      73.130  75.931  59.261  1.00  0.00     0.275 HD
ATOM     15  H52 UNL     1      71.753  76.288  59.897  1.00  0.00     0.275 HD
ATOM     16  H51 UNL     1      72.377  77.338  58.749  1.00  0.00     0.275 HD
ENDBRANCH  12  13
BRANCH  12  17
HETATM   17  C7  UNL     1      72.272  77.757  61.666  1.00  0.00     0.304 C
HETATM   18  O2  UNL     1      71.677  76.880  62.389  1.00  0.00    -0.262 OA
BRANCH  17  19
HETATM   19  O3  UNL     1      71.965  79.063  61.859  1.00  0.00    -0.212 OA
BRANCH  19  20
HETATM   20  C8  UNL     1      70.646  79.609  61.815  1.00  0.00     0.465 C
HETATM   21  O4  UNL     1      70.243  79.781  60.647  1.00  0.00    -0.219 OA
HETATM   22  N6  UNL     1      70.051  79.829  63.003  1.00  0.00    -0.266 NA
BRANCH  22  23
HETATM   23  N7  UNL     1      69.461  80.046  64.169  1.00  0.00    -0.275 N
ATOM     24  H72 UNL     1      69.752  79.848  63.211  1.00  0.00     0.191 HD
ATOM     25  H71 UNL     1      69.010  80.214  65.068  1.00  0.00     0.191 HD
ENDBRANCH  22  23
ENDBRANCH  19  20
ENDBRANCH  17  19
ENDBRANCH  12  17
ENDBRANCH  11  12
BRANCH   1  26
HETATM   26  O1  UNL     1      73.559  74.707  60.548  1.00  0.00    -0.340 OA
HETATM   27  C1  UNL     1      73.741  73.496  59.897  1.00  0.00     0.211 C
ENDBRANCH   1  26
BRANCH  10  28
HETATM   28  N4  UNL     1      75.621  78.783  61.577  1.00  0.00    -0.384 N
ATOM     29  H42 UNL     1      75.611  79.229  62.494  1.00  0.00     0.157 HD
ATOM     30  H41 UNL     1      75.617  79.327  60.715  1.00  0.00     0.157 HD
ENDBRANCH  10  28
TORSDOF 8
ENDMDL