MODEL 2
REMARK VINA RESULT: -5.205908617      2.068      2.321
REMARK  6 active torsions:
REMARK  status: ('A' for Active; 'I' for Inactive)
REMARK    1  A    between atoms: C1_2  and  C2_4
REMARK    2  A    between atoms: C3_7  and  N3_8
REMARK    3  A    between atoms: C4_11  and  N4_12
REMARK       I    between atoms: N4_12  and  C5_14
REMARK       I    between atoms: C5_14  and  N5_15
REMARK       I    between atoms: C5_14  and  N6_19
REMARK    4  A    between atoms: C6_25  and  C7_26
REMARK    5  A    between atoms: C7_26  and  O4_27
REMARK    6  A    between atoms: C7_26  and  O5_29
ROOT
HETATM    1  C2  UNL     1      74.856  77.016  59.380  1.00  0.00     0.127 A
HETATM    2  N2  UNL     1      75.811  76.931  60.369  1.00  0.00    -0.329 N
ATOM      3  H2  UNL     1      76.587  77.593  60.376  1.00  0.00     0.168 HD
HETATM    4  C3  UNL     1      75.737  75.993  61.319  1.00  0.00     0.218 A
HETATM    5  C4  UNL     1      74.718  75.067  61.369  1.00  0.00     0.155 A
HETATM    6  N7  UNL     1      73.794  75.151  60.414  1.00  0.00    -0.337 N
ATOM      7  H7  UNL     1      73.023  74.482  60.418  1.00  0.00     0.167 HD
HETATM    8  C6  UNL     1      73.836  76.108  59.416  1.00  0.00     0.098 A
ENDROOT
BRANCH   5   9
HETATM    9  N4  UNL     1      74.655  74.170  62.282  1.00  0.00    -0.324 N
HETATM   10  C5  UNL     1      73.761  74.167  63.389  1.00  0.00     0.481 C
HETATM   11  N5  UNL     1      73.902  72.876  64.064  1.00  0.00    -0.033 N
HETATM   12  N6  UNL     1      74.069  75.177  64.383  1.00  0.00    -0.033 N
ATOM     13  H53 UNL     1      73.764  72.082  63.439  1.00  0.00     0.278 HD
ATOM     14  H52 UNL     1      74.865  72.670  64.330  1.00  0.00     0.278 HD
ATOM     15  H51 UNL     1      73.261  72.874  64.857  1.00  0.00     0.278 HD
ATOM     16  H63 UNL     1      75.035  75.090  64.699  1.00  0.00     0.278 HD
ATOM     17  H62 UNL     1      74.113  76.103  63.957  1.00  0.00     0.278 HD
ATOM     18  H61 UNL     1      73.428  75.174  65.176  1.00  0.00     0.278 HD
ATOM     19  H4  UNL     1      75.305  73.388  62.208  1.00  0.00     0.165 HD
ENDBRANCH   5   9
BRANCH   4  20
HETATM   20  N3  UNL     1      76.742  75.941  62.319  1.00  0.00    -0.094 N
HETATM   21  O2  UNL     1      76.578  76.619  63.347  1.00  0.00    -0.530 OA
HETATM   22  O3  UNL     1      77.881  75.188  62.213  1.00  0.00    -0.530 OA
ENDBRANCH   4  20
BRANCH   8  23
HETATM   23  C7  UNL     1      72.721  76.175  58.450  1.00  0.00     0.307 C
BRANCH  23  24
HETATM   24  O4  UNL     1      71.936  75.063  58.347  1.00  0.00    -0.366 OA
ATOM     25  H4  UNL     1      71.699  74.791  57.468  1.00  0.00     0.213 HD
ENDBRANCH  23  24
BRANCH  23  26
HETATM   26  O5  UNL     1      71.960  77.350  58.637  1.00  0.00    -0.366 OA
ATOM     27  H5  UNL     1      71.030  77.157  58.632  1.00  0.00     0.213 HD
ENDBRANCH  23  26
ENDBRANCH   8  23
BRANCH   1  28
HETATM   28  C1  UNL     1      75.015  78.032  58.350  1.00  0.00     0.283 C
HETATM   29  N1  UNL     1      74.342  79.293  58.588  1.00  0.00    -0.056 NA
HETATM   30  O1  UNL     1      75.639  77.981  57.297  1.00  0.00    -0.269 OA
ENDBRANCH   1  28
TORSDOF 6
ENDMDL