MODEL 5
REMARK VINA RESULT: -6.617958244      9.636     12.944
REMARK  7 active torsions:
REMARK  status: ('A' for Active; 'I' for Inactive)
REMARK    1  A    between atoms: N1_1  and  C1_4
REMARK    2  A    between atoms: C3_10  and  N4_11
REMARK    3  A    between atoms: C4_16  and  N6_17
REMARK    4  A    between atoms: N6_17  and  N7_19
REMARK    5  A    between atoms: C5_21  and  C6_22
REMARK    6  A    between atoms: C6_22  and  O1_23
REMARK    7  A    between atoms: C6_22  and  C7_25
ROOT
HETATM    1  C1  UNL     1      73.981  75.054  63.837  1.00  0.00     0.706 A
HETATM    2  N2  UNL     1      75.084  75.329  63.116  1.00  0.00    -0.018 N
ATOM      3  H2  UNL     1      76.015  74.956  63.302  1.00  0.00     0.203 HD
HETATM    4  C2  UNL     1      74.769  76.175  62.109  1.00  0.00     0.748 A
HETATM    5  N3  UNL     1      75.504  76.737  61.134  1.00  0.00    -0.019 N
ATOM      6  H3  UNL     1      76.504  76.543  61.064  1.00  0.00     0.203 HD
HETATM    7  C3  UNL     1      74.906  77.561  60.247  1.00  0.00     0.705 A
HETATM    8  N5  UNL     1      73.590  77.791  60.372  1.00  0.00    -0.018 N
ATOM      9  H5  UNL     1      73.147  78.415  59.697  1.00  0.00     0.203 HD
HETATM   10  C4  UNL     1      72.821  77.253  61.330  1.00  0.00     0.748 A
HETATM   11  N8  UNL     1      73.436  76.430  62.209  1.00  0.00     0.107 N
HETATM   12  N9  UNL     1      72.992  75.748  63.247  1.00  0.00    -0.096 N
ATOM     13  H9  UNL     1      72.022  75.748  63.563  1.00  0.00     0.207 HD
ENDROOT
BRANCH  10  14
HETATM   14  N6  UNL     1      71.577  77.466  61.453  1.00  0.00    -0.130 N
ATOM     15  H6  UNL     1      70.950  76.815  60.980  1.00  0.00     0.205 HD
BRANCH  14  16
HETATM   16  N7  UNL     1      70.988  78.490  62.160  1.00  0.00    -0.298 N
HETATM   17  C5  UNL     1      70.780  79.629  61.600  1.00  0.00     0.123 C
ATOM     18  H7  UNL     1      70.717  78.344  63.132  1.00  0.00     0.186 HD
BRANCH  17  19
HETATM   19  C6  UNL     1      70.148  80.770  62.316  1.00  0.00     0.258 C
BRANCH  19  20
HETATM   20  O1  UNL     1      71.088  81.594  62.928  1.00  0.00    -0.380 OA
ATOM     21  H1  UNL     1      70.798  82.498  62.975  1.00  0.00     0.211 HD
ENDBRANCH  19  20
BRANCH  19  22
HETATM   22  C7  UNL     1      69.124  80.302  63.281  1.00  0.00     0.208 C
HETATM   23  O2  UNL     1      69.484  79.958  64.430  1.00  0.00    -0.646 OA
HETATM   24  O3  UNL     1      67.789  80.235  62.947  1.00  0.00    -0.646 OA
ENDBRANCH  19  22
ENDBRANCH  17  19
ENDBRANCH  14  16
ENDBRANCH  10  14
BRANCH   7  25
HETATM   25  N4  UNL     1      75.641  78.080  59.328  1.00  0.00    -0.234 N
ATOM     26  H42 UNL     1      76.057  77.549  58.564  1.00  0.00     0.174 HD
ATOM     27  H41 UNL     1      75.812  79.085  59.374  1.00  0.00     0.174 HD
ENDBRANCH   7  25
BRANCH   1  28
HETATM   28  N1  UNL     1      73.854  74.288  64.882  1.00  0.00    -0.233 N
ATOM     29  H12 UNL     1      74.187  73.328  64.961  1.00  0.00     0.174 HD
ATOM     30  H11 UNL     1      73.417  74.495  65.780  1.00  0.00     0.174 HD
ENDBRANCH   1  28
TORSDOF 7
ENDMDL