MODEL 2
REMARK VINA RESULT: -5.626636539      3.796      7.420
REMARK  5 active torsions:
REMARK  status: ('A' for Active; 'I' for Inactive)
REMARK    1  A    between atoms: C5_12  and  N4_13
REMARK    2  A    between atoms: N4_13  and  N5_14
REMARK    3  A    between atoms: N5_14  and  C6_16
REMARK    4  A    between atoms: C8_23  and  N8_24
REMARK    5  A    between atoms: N9_27  and  N10_28
ROOT
HETATM    1  C6  UNL     1      64.066  88.204  55.922  1.00  0.00     0.731 A
HETATM    2  N6  UNL     1      62.937  88.594  56.545  1.00  0.00    -0.126 N
ATOM      3  H6  UNL     1      62.899  88.546  57.563  1.00  0.00     0.206 HD
HETATM    4  N7  UNL     1      61.878  89.036  55.892  1.00  0.00    -0.249 N
ATOM      5  H7  UNL     1      61.037  89.324  56.392  1.00  0.00     0.191 HD
HETATM    6  C7  UNL     1      61.937  89.097  54.554  1.00  0.00     0.306 A
HETATM    7  O1  UNL     1      60.925  89.520  53.916  1.00  0.00    -0.263 OA
HETATM    8  C8  UNL     1      63.060  88.712  53.869  1.00  0.00     0.208 A
HETATM    9  N9  UNL     1      64.116  88.268  54.587  1.00  0.00    -0.069 N
ENDROOT
BRANCH   1  10
HETATM   10  N5  UNL     1      65.209  87.727  56.616  1.00  0.00    -0.131 N
ATOM     11  H5  UNL     1      66.154  87.913  56.281  1.00  0.00     0.201 HD
BRANCH  10  12
HETATM   12  N4  UNL     1      64.977  86.991  57.781  1.00  0.00    -0.085 NA
BRANCH  12  13
HETATM   13  C5  UNL     1      66.160  86.889  58.614  1.00  0.00     0.364 C
HETATM   14  C2  UNL     1      65.710  87.018  60.024  1.00  0.00     0.121 C
HETATM   15  N1  UNL     1      64.857  87.904  60.434  1.00  0.00    -0.381 N
HETATM   16  N2  UNL     1      66.260  86.106  60.965  1.00  0.00    -0.376 N
HETATM   17  C1  UNL     1      64.228  88.885  59.582  1.00  0.00     0.147 C
ATOM     18  H1  UNL     1      64.614  87.909  61.424  1.00  0.00     0.160 HD
HETATM   19  C3  UNL     1      67.599  85.622  60.708  1.00  0.00     0.148 C
ATOM     20  H2  UNL     1      65.733  85.806  61.784  1.00  0.00     0.160 HD
HETATM   21  C4  UNL     1      67.758  85.220  59.273  1.00  0.00     0.254 C
HETATM   22  N3  UNL     1      66.639  85.514  58.442  1.00  0.00    -0.047 N
ATOM     23  H32 UNL     1      66.846  85.317  57.463  1.00  0.00     0.279 HD
ATOM     24  H31 UNL     1      65.886  84.842  58.588  1.00  0.00     0.279 HD
ENDBRANCH  12  13
ENDBRANCH  10  12
ENDBRANCH   1  10
BRANCH   9  25
HETATM   25  N10 UNL     1      65.258  87.879  53.858  1.00  0.00    -0.322 N
ATOM     26 2H10 UNL     1      65.159  87.065  53.251  1.00  0.00     0.178 HD
ATOM     27 1H10 UNL     1      66.143  88.380  53.927  1.00  0.00     0.178 HD
ENDBRANCH   9  25
BRANCH   8  28
HETATM   28  N8  UNL     1      63.135  88.763  52.575  1.00  0.00    -0.379 N
ATOM     29  H82 UNL     1      63.912  88.310  52.094  1.00  0.00     0.158 HD
ATOM     30  H81 UNL     1      62.439  89.246  52.006  1.00  0.00     0.158 HD
ENDBRANCH   8  28
TORSDOF 5
ENDMDL