MODEL 3
REMARK VINA RESULT: -5.972938795      2.630      5.398
REMARK  4 active torsions:
REMARK  status: ('A' for Active; 'I' for Inactive)
REMARK       I    between atoms: C2_2  and  N1_4
REMARK    1  A    between atoms: N1_4  and  N2_5
REMARK    2  A    between atoms: N2_5  and  N3_6
REMARK    3  A    between atoms: C4_12  and  N5_13
REMARK    4  A    between atoms: C6_20  and  N7_21
REMARK       I    between atoms: N8_23  and  C7_25
REMARK       I    between atoms: C7_25  and  N9_26
REMARK       I    between atoms: C7_25  and  N10_30
ROOT
HETATM    1  N2  UNL     1      74.558  78.864  61.695  1.00  0.00    -0.113 N
HETATM    2  C3  UNL     1      73.307  79.256  61.919  1.00  0.00     0.206 A
HETATM    3  N4  UNL     1      73.110  80.647  62.139  1.00  0.00    -0.170 N
ATOM      4  H4  UNL     1      73.899  81.291  62.201  1.00  0.00     0.186 HD
HETATM    5  C4  UNL     1      71.855  81.080  62.260  1.00  0.00     0.680 A
HETATM    6  N6  UNL     1      70.755  80.331  62.188  1.00  0.00    -0.154 N
ATOM      7  H6  UNL     1      69.827  80.739  62.287  1.00  0.00     0.187 HD
HETATM    8  C5  UNL     1      70.926  78.982  61.974  1.00  0.00     0.291 A
HETATM    9  O2  UNL     1      69.925  78.277  61.896  1.00  0.00    -0.265 OA
HETATM   10  C6  UNL     1      72.222  78.488  61.850  1.00  0.00     0.166 A
ENDROOT
BRANCH  10  11
HETATM   11  N7  UNL     1      72.307  77.067  61.794  1.00  0.00    -0.293 N
HETATM   12  N8  UNL     1      73.053  76.535  62.593  1.00  0.00    -0.283 N
HETATM   13  C7  UNL     1      73.614  75.378  63.122  1.00  0.00     0.494 C
ATOM     14  H8  UNL     1      73.460  77.300  63.130  1.00  0.00     0.184 HD
HETATM   15  N9  UNL     1      73.672  75.398  64.622  1.00  0.00    -0.032 N
HETATM   16  N10 UNL     1      74.987  75.274  62.734  1.00  0.00    -0.032 N
ATOM     17  H93 UNL     1      74.159  76.229  64.958  1.00  0.00     0.279 HD
ATOM     18  H92 UNL     1      72.750  75.575  65.022  1.00  0.00     0.279 HD
ATOM     19  H91 UNL     1      74.083  74.550  65.010  1.00  0.00     0.279 HD
ATOM     20 3H10 UNL     1      75.102  75.326  61.721  1.00  0.00     0.279 HD
ATOM     21 2H10 UNL     1      75.519  76.107  62.988  1.00  0.00     0.279 HD
ATOM     22 1H10 UNL     1      75.398  74.425  63.122  1.00  0.00     0.279 HD
ATOM     23  H7  UNL     1      71.769  76.525  61.118  1.00  0.00     0.187 HD
ENDBRANCH  10  11
BRANCH   1  24
HETATM   24  N1  UNL     1      75.731  78.511  61.967  1.00  0.00    -0.263 NA
HETATM   25  C2  UNL     1      77.058  78.122  62.301  1.00  0.00     0.311 C
HETATM   26  C1  UNL     1      77.866  77.501  61.165  1.00  0.00     0.137 C
HETATM   27  O1  UNL     1      77.578  78.240  63.340  1.00  0.00    -0.256 OA
ENDBRANCH   1  24
BRANCH   1  28
HETATM   28  N3  UNL     1      74.541  78.671  60.087  1.00  0.00    -0.312 N
ATOM     29  H32 UNL     1      73.552  78.811  59.881  1.00  0.00     0.179 HD
ATOM     30  H31 UNL     1      75.520  78.450  59.906  1.00  0.00     0.179 HD
ENDBRANCH   1  28
BRANCH   5  31
HETATM   31  N5  UNL     1      71.705  82.365  62.518  1.00  0.00    -0.234 N
ATOM     32  H52 UNL     1      71.747  83.013  61.733  1.00  0.00     0.174 HD
ATOM     33  H51 UNL     1      71.523  82.611  63.491  1.00  0.00     0.174 HD
ENDBRANCH   5  31
TORSDOF 4
ENDMDL