MODEL 3
REMARK VINA RESULT: -6.334227676      1.885      6.795
REMARK  8 active torsions:
REMARK  status: ('A' for Active; 'I' for Inactive)
REMARK    1  A    between atoms: N1_1  and  C1_4
REMARK    2  A    between atoms: C2_7  and  C3_8
REMARK    3  A    between atoms: C3_8  and  N3_9
REMARK    4  A    between atoms: C4_13  and  C5_14
REMARK       I    between atoms: C5_14  and  N4_16
REMARK    5  A    between atoms: N4_16  and  C6_18
REMARK    6  A    between atoms: C6_18  and  N5_19
REMARK    7  A    between atoms: C6_18  and  C7_23
REMARK    8  A    between atoms: N10_32  and  N11_33
ROOT
HETATM    1  C5  UNL     1      68.454  83.928  62.456  1.00  0.00     0.274 C
HETATM    2  O1  UNL     1      67.823  84.330  63.510  1.00  0.00    -0.266 OA
HETATM    3  N4  UNL     1      68.168  84.599  61.260  1.00  0.00    -0.322 N
ATOM      4  H4  UNL     1      68.627  84.340  60.387  1.00  0.00     0.165 HD
ENDROOT
BRANCH   1   5
HETATM    5  C4  UNL     1      69.371  82.841  62.649  1.00  0.00     0.166 A
HETATM    6  C2  UNL     1      69.082  81.521  62.890  1.00  0.00     0.086 A
HETATM    7  N2  UNL     1      70.297  80.898  62.997  1.00  0.00    -0.190 N
HETATM    8  C1  UNL     1      71.272  81.803  62.828  1.00  0.00     0.697 A
ATOM      9  H2  UNL     1      70.438  79.904  63.176  1.00  0.00     0.184 HD
HETATM   10  N10 UNL     1      70.733  83.005  62.613  1.00  0.00    -0.086 N
BRANCH   6  11
HETATM   11  C3  UNL     1      67.775  80.815  63.038  1.00  0.00     0.289 C
BRANCH  11  12
HETATM   12  N3  UNL     1      67.778  80.028  64.282  1.00  0.00    -0.074 N
ATOM     13  H33 UNL     1      67.868  79.028  64.104  1.00  0.00     0.274 HD
ATOM     14  H32 UNL     1      68.637  80.159  64.817  1.00  0.00     0.274 HD
ATOM     15  H31 UNL     1      66.946  80.249  64.828  1.00  0.00     0.274 HD
ENDBRANCH  11  12
ENDBRANCH   6  11
BRANCH   8  16
HETATM   16  N1  UNL     1      72.556  81.548  62.868  1.00  0.00    -0.233 N
ATOM     17  H12 UNL     1      72.970  80.663  63.163  1.00  0.00     0.174 HD
ATOM     18  H11 UNL     1      73.294  82.201  62.608  1.00  0.00     0.174 HD
ENDBRANCH   8  16
BRANCH  10  19
HETATM   19  N11 UNL     1      71.481  84.162  62.401  1.00  0.00    -0.324 N
ATOM     20 2H11 UNL     1      72.458  84.261  62.125  1.00  0.00     0.178 HD
ATOM     21 1H11 UNL     1      71.108  85.105  62.505  1.00  0.00     0.178 HD
ENDBRANCH  10  19
ENDBRANCH   1   5
BRANCH   3  22
HETATM   22  C6  UNL     1      67.183  85.693  61.306  1.00  0.00     0.355 C
BRANCH  22  23
HETATM   23  N5  UNL     1      67.853  86.881  61.852  1.00  0.00    -0.051 N
ATOM     24  H53 UNL     1      67.263  87.712  61.833  1.00  0.00     0.277 HD
ATOM     25  H52 UNL     1      67.985  86.831  62.862  1.00  0.00     0.277 HD
ATOM     26  H51 UNL     1      68.729  87.006  61.345  1.00  0.00     0.277 HD
ENDBRANCH  22  23
BRANCH  22  27
HETATM   27  C7  UNL     1      66.636  85.978  59.975  1.00  0.00     0.164 A
HETATM   28  N6  UNL     1      66.900  85.363  58.801  1.00  0.00    -0.269 N
HETATM   29  N7  UNL     1      66.181  85.953  57.862  1.00  0.00    -0.227 N
ATOM     30  H6  UNL     1      67.541  84.581  58.664  1.00  0.00     0.190 HD
HETATM   31  N8  UNL     1      65.472  86.921  58.413  1.00  0.00    -0.227 N
ATOM     32  H7  UNL     1      66.174  85.702  56.874  1.00  0.00     0.210 HD
HETATM   33  N9  UNL     1      65.744  86.942  59.697  1.00  0.00    -0.269 N
ATOM     34  H8  UNL     1      64.827  87.544  57.926  1.00  0.00     0.210 HD
ATOM     35  H9  UNL     1      65.342  87.589  60.376  1.00  0.00     0.190 HD
ENDBRANCH  22  27
ENDBRANCH   3  22
TORSDOF 8
ENDMDL