MODEL 3
REMARK VINA RESULT: -7.150812569      0.834      2.157
REMARK  6 active torsions:
REMARK  status: ('A' for Active; 'I' for Inactive)
REMARK    1  A    between atoms: N1_1  and  C1_4
REMARK    2  A    between atoms: C2_7  and  C3_8
REMARK    3  A    between atoms: N3_9  and  N4_11
REMARK       I    between atoms: N4_11  and  C4_13
REMARK       I    between atoms: C4_13  and  N7_19
REMARK    4  A    between atoms: N5_14  and  N6_16
REMARK    5  A    between atoms: N7_19  and  N8_21
REMARK    6  A    between atoms: C5_26  and  N10_27
ROOT
HETATM    1  C3  UNL     1      67.990  85.098  59.886  1.00  0.00     0.157 C
HETATM    2  N3  UNL     1      67.911  84.424  60.981  1.00  0.00    -0.294 N
ATOM      3  H3  UNL     1      67.094  84.539  61.580  1.00  0.00     0.186 HD
ENDROOT
BRANCH   1   4
HETATM    4  C2  UNL     1      66.911  86.023  59.509  1.00  0.00     0.153 A
HETATM    5  N2  UNL     1      66.583  86.194  58.209  1.00  0.00    -0.174 N
HETATM    6  C1  UNL     1      65.600  87.034  57.846  1.00  0.00     0.692 A
ATOM      7  H2  UNL     1      67.091  85.676  57.491  1.00  0.00     0.186 HD
HETATM    8  N11 UNL     1      64.959  87.695  58.826  1.00  0.00    -0.023 N
HETATM    9  C5  UNL     1      65.273  87.537  60.127  1.00  0.00     0.692 A
ATOM     10  H11 UNL     1      64.208  88.339  58.576  1.00  0.00     0.203 HD
HETATM   11  N9  UNL     1      66.261  86.690  60.466  1.00  0.00    -0.174 N
ATOM     12  H9  UNL     1      66.513  86.558  61.446  1.00  0.00     0.186 HD
BRANCH   6  13
HETATM   13  N1  UNL     1      65.249  87.233  56.632  1.00  0.00    -0.234 N
ATOM     14  H12 UNL     1      64.896  88.151  56.364  1.00  0.00     0.174 HD
ATOM     15  H11 UNL     1      65.304  86.522  55.904  1.00  0.00     0.174 HD
ENDBRANCH   6  13
BRANCH   9  16
HETATM   16  N10 UNL     1      64.646  88.184  61.077  1.00  0.00    -0.234 N
ATOM     17 2H10 UNL     1      65.141  88.759  61.758  1.00  0.00     0.174 HD
ATOM     18 1H10 UNL     1      63.631  88.107  61.134  1.00  0.00     0.174 HD
ENDBRANCH   9  16
ENDBRANCH   1   4
BRANCH   2  19
HETATM   19  N4  UNL     1      68.915  83.543  61.363  1.00  0.00    -0.130 N
HETATM   20  C4  UNL     1      69.573  83.709  62.612  1.00  0.00     0.730 C
HETATM   21  N5  UNL     1      69.860  84.919  62.966  1.00  0.00    -0.136 N
HETATM   22  N7  UNL     1      69.903  82.586  63.448  1.00  0.00    -0.069 N
ATOM     23  H5  UNL     1      69.620  85.707  62.365  1.00  0.00     0.205 HD
ATOM     24  H7  UNL     1      70.433  82.708  64.311  1.00  0.00     0.212 HD
ATOM     25  H4  UNL     1      69.180  82.776  60.746  1.00  0.00     0.205 HD
BRANCH  21  26
HETATM   26  N6  UNL     1      70.509  85.125  64.187  1.00  0.00    -0.331 N
ATOM     27  H62 UNL     1      69.959  85.313  65.025  1.00  0.00     0.177 HD
ATOM     28  H61 UNL     1      71.528  85.083  64.214  1.00  0.00     0.177 HD
ENDBRANCH  21  26
BRANCH  22  29
HETATM   29  N8  UNL     1      69.475  81.324  63.036  1.00  0.00    -0.024 N
HETATM   30  O1  UNL     1      70.281  80.405  62.771  1.00  0.00    -0.516 OA
HETATM   31  O2  UNL     1      68.103  81.124  62.930  1.00  0.00    -0.516 OA
ENDBRANCH  22  29
ENDBRANCH   2  19
TORSDOF 6
ENDMDL