MODEL 2
REMARK VINA RESULT: -7.831750344      1.047      2.134
REMARK  7 active torsions:
REMARK  status: ('A' for Active; 'I' for Inactive)
REMARK    1  A    between atoms: C1_4  and  C2_6
REMARK    2  A    between atoms: N5_11  and  C3_12
REMARK    3  A    between atoms: C3_12  and  C4_13
REMARK    4  A    between atoms: C4_13  and  N6_14
REMARK    5  A    between atoms: C4_13  and  C5_18
REMARK    6  A    between atoms: C6_21  and  N8_22
REMARK    7  A    between atoms: C7_27  and  N10_28
ROOT
HETATM    1  C4  UNL     1      66.999  85.631  60.422  1.00  0.00     0.273 C
ENDROOT
BRANCH   1   2
HETATM    2  C3  UNL     1      67.765  86.115  61.647  1.00  0.00     0.211 C
BRANCH   2   3
HETATM    3  N5  UNL     1      68.615  84.997  62.063  1.00  0.00    -0.216 N
HETATM    4  N4  UNL     1      69.934  84.982  62.165  1.00  0.00    -0.224 N
HETATM    5  N3  UNL     1      70.285  83.779  62.571  1.00  0.00    -0.266 N
ATOM      6  H4  UNL     1      70.565  85.759  61.965  1.00  0.00     0.210 HD
HETATM    7  C2  UNL     1      69.165  83.015  62.729  1.00  0.00     0.178 A
ATOM      8  H3  UNL     1      71.241  83.468  62.741  1.00  0.00     0.190 HD
HETATM    9  N12 UNL     1      68.137  83.810  62.402  1.00  0.00    -0.264 N
ATOM     10  H12 UNL     1      67.152  83.545  62.412  1.00  0.00     0.190 HD
BRANCH   7  11
HETATM   11  C1  UNL     1      69.087  81.641  63.156  1.00  0.00     0.157 C
HETATM   12  N1  UNL     1      68.037  80.950  62.921  1.00  0.00    -0.385 N
ATOM     13  H12 UNL     1      67.982  79.977  63.224  1.00  0.00     0.157 HD
ATOM     14  H11 UNL     1      67.254  81.380  62.428  1.00  0.00     0.157 HD
HETATM   15  N2  UNL     1      70.174  81.043  63.840  1.00  0.00    -0.079 NA
ENDBRANCH   7  11
ENDBRANCH   2   3
ENDBRANCH   1   2
BRANCH   1  16
HETATM   16  N6  UNL     1      67.977  85.493  59.357  1.00  0.00    -0.067 N
ATOM     17  H63 UNL     1      68.939  85.609  59.674  1.00  0.00     0.275 HD
ATOM     18  H62 UNL     1      68.071  84.536  59.015  1.00  0.00     0.275 HD
ATOM     19  H61 UNL     1      67.708  86.157  58.632  1.00  0.00     0.275 HD
ENDBRANCH   1  16
BRANCH   1  20
HETATM   20  C5  UNL     1      66.034  86.690  60.021  1.00  0.00     0.145 A
HETATM   21  N7  UNL     1      65.749  86.939  58.720  1.00  0.00    -0.178 N
HETATM   22  C6  UNL     1      64.872  87.904  58.387  1.00  0.00     0.691 A
ATOM     23  H7  UNL     1      66.202  86.391  57.989  1.00  0.00     0.185 HD
HETATM   24  N9  UNL     1      64.246  88.656  59.310  1.00  0.00    -0.023 N
HETATM   25  C7  UNL     1      64.527  88.411  60.603  1.00  0.00     0.691 A
ATOM     26  H9  UNL     1      63.583  89.383  59.040  1.00  0.00     0.203 HD
HETATM   27  N11 UNL     1      65.403  87.447  60.939  1.00  0.00    -0.178 N
ATOM     28  H11 UNL     1      65.597  87.283  61.928  1.00  0.00     0.185 HD
BRANCH  22  29
HETATM   29  N8  UNL     1      64.579  88.163  57.140  1.00  0.00    -0.234 N
ATOM     30  H82 UNL     1      65.346  88.502  56.560  1.00  0.00     0.174 HD
ATOM     31  H81 UNL     1      63.635  88.032  56.774  1.00  0.00     0.174 HD
ENDBRANCH  22  29
BRANCH  25  32
HETATM   32  N10 UNL     1      63.932  89.127  61.495  1.00  0.00    -0.234 N
ATOM     33 2H10 UNL     1      63.017  89.544  61.324  1.00  0.00     0.174 HD
ATOM     34 1H10 UNL     1      64.405  89.268  62.388  1.00  0.00     0.174 HD
ENDBRANCH  25  32
ENDBRANCH   1  20
TORSDOF 7
ENDMDL