MODEL 5
REMARK VINA RESULT: -8.129039731      1.919      2.635
REMARK  4 active torsions:
REMARK  status: ('A' for Active; 'I' for Inactive)
REMARK    1  A    between atoms: C3_4  and  N2_5
REMARK    2  A    between atoms: N2_5  and  N3_7
REMARK    3  A    between atoms: N3_7  and  C4_9
REMARK    4  A    between atoms: C5_14  and  N6_15
ROOT
HETATM    1  N3  UNL     1      70.807  82.468  63.352  1.00  0.00    -0.279 N
ATOM      2  H3  UNL     1      70.878  82.185  64.329  1.00  0.00     0.189 HD
ENDROOT
BRANCH   1   3
HETATM    3  N2  UNL     1      71.525  81.783  62.398  1.00  0.00    -0.294 N
ATOM      4  H2  UNL     1      72.046  82.378  61.753  1.00  0.00     0.187 HD
BRANCH   3   5
HETATM    5  C3  UNL     1      71.663  80.414  62.161  1.00  0.00     0.107 A
HETATM    6  C2  UNL     1      72.949  79.953  61.797  1.00  0.00     0.130 A
HETATM    7  N1  UNL     1      73.182  78.661  61.551  1.00  0.00    -0.312 N
HETATM    8  C1  UNL     1      74.508  78.197  61.178  1.00  0.00     0.160 C
HETATM    9  C8  UNL     1      72.163  77.793  61.654  1.00  0.00     0.327 A
HETATM   10  N9  UNL     1      70.932  78.185  61.994  1.00  0.00    -0.293 N
HETATM   11  O2  UNL     1      72.415  76.583  61.415  1.00  0.00    -0.246 OA
HETATM   12  C7  UNL     1      70.639  79.513  62.260  1.00  0.00     0.132 A
ATOM     13  H9  UNL     1      70.189  77.489  62.061  1.00  0.00     0.172 HD
HETATM   14  N8  UNL     1      69.469  79.801  62.572  1.00  0.00    -0.383 N
ATOM     15  H82 UNL     1      69.254  80.779  62.768  1.00  0.00     0.157 HD
ATOM     16  H81 UNL     1      68.705  79.129  62.646  1.00  0.00     0.157 HD
ENDBRANCH   3   5
ENDBRANCH   1   3
BRANCH   1  17
HETATM   17  C4  UNL     1      69.956  83.578  62.998  1.00  0.00     0.205 A
HETATM   18  N4  UNL     1      69.961  84.716  63.696  1.00  0.00    -0.266 N
HETATM   19  N5  UNL     1      69.187  85.752  63.390  1.00  0.00    -0.131 N
ATOM     20  H4  UNL     1      70.585  84.794  64.500  1.00  0.00     0.189 HD
HETATM   21  C5  UNL     1      68.352  85.684  62.338  1.00  0.00     0.693 A
ATOM     22  H5  UNL     1      69.226  86.601  63.954  1.00  0.00     0.205 HD
HETATM   23  N7  UNL     1      68.319  84.563  61.617  1.00  0.00    -0.152 N
HETATM   24  C6  UNL     1      69.103  83.497  61.917  1.00  0.00     0.306 A
ATOM     25  H7  UNL     1      67.688  84.505  60.819  1.00  0.00     0.188 HD
HETATM   26  O1  UNL     1      69.063  82.445  61.228  1.00  0.00    -0.263 OA
BRANCH  21  27
HETATM   27  N6  UNL     1      67.586  86.700  62.030  1.00  0.00    -0.233 N
ATOM     28  H62 UNL     1      67.696  87.598  62.503  1.00  0.00     0.174 HD
ATOM     29  H61 UNL     1      66.868  86.609  61.312  1.00  0.00     0.174 HD
ENDBRANCH  21  27
ENDBRANCH   1  17
TORSDOF 4
ENDMDL