MODEL 4
REMARK VINA RESULT: -7.262614058      2.049      3.528
REMARK  7 active torsions:
REMARK  status: ('A' for Active; 'I' for Inactive)
REMARK    1  A    between atoms: N1_1  and  C1_4
REMARK    2  A    between atoms: C2_7  and  C3_8
REMARK    3  A    between atoms: C3_8  and  N3_9
REMARK    4  A    between atoms: N3_9  and  N4_10
REMARK    5  A    between atoms: N4_10  and  C4_12
REMARK    6  A    between atoms: C7_19  and  N7_20
REMARK    7  A    between atoms: N7_20  and  N8_22
ROOT
HETATM    1  C1  UNL     1      69.530  85.125  63.405  1.00  0.00     0.680 C
HETATM    2  N2  UNL     1      68.971  86.159  62.692  1.00  0.00    -0.191 N
ATOM      3  H2  UNL     1      69.217  87.119  62.932  1.00  0.00     0.184 HD
HETATM    4  C2  UNL     1      68.087  85.927  61.663  1.00  0.00     0.088 C
HETATM    5  C7  UNL     1      68.217  84.839  60.773  1.00  0.00     0.148 C
HETATM    6  N9  UNL     1      68.529  83.563  60.981  1.00  0.00    -0.291 N
ATOM      7  H9  UNL     1      68.291  82.888  60.253  1.00  0.00     0.172 HD
HETATM    8  C8  UNL     1      69.155  83.092  62.121  1.00  0.00     0.340 C
HETATM    9  O1  UNL     1      69.355  81.889  62.068  1.00  0.00    -0.246 OA
HETATM   10  N10 UNL     1      69.517  83.796  63.231  1.00  0.00    -0.141 N
ATOM     11  H10 UNL     1      69.816  83.240  64.032  1.00  0.00     0.189 HD
ENDROOT
BRANCH   4  12
HETATM   12  C3  UNL     1      66.890  86.768  61.475  1.00  0.00     0.196 C
BRANCH  12  13
HETATM   13  N3  UNL     1      66.034  86.411  60.403  1.00  0.00    -0.134 NA
BRANCH  13  14
HETATM   14  N4  UNL     1      65.284  87.498  60.058  1.00  0.00    -0.288 N
ATOM     15  H4  UNL     1      64.902  88.132  60.760  1.00  0.00     0.184 HD
BRANCH  14  16
HETATM   16  C4  UNL     1      65.060  87.704  58.646  1.00  0.00     0.132 A
HETATM   17  C5  UNL     1      65.668  87.071  57.619  1.00  0.00     0.069 A
HETATM   18  C6  UNL     1      65.141  87.576  56.441  1.00  0.00     0.111 A
HETATM   19  N5  UNL     1      64.211  88.517  56.813  1.00  0.00    -0.310 N
HETATM   20  N6  UNL     1      64.189  88.567  58.162  1.00  0.00    -0.285 N
ATOM     21  H5  UNL     1      63.640  89.079  56.183  1.00  0.00     0.186 HD
ATOM     22  H6  UNL     1      63.592  89.177  58.720  1.00  0.00     0.188 HD
ENDBRANCH  14  16
ENDBRANCH  13  14
ENDBRANCH  12  13
ENDBRANCH   4  12
BRANCH   5  23
HETATM   23  N7  UNL     1      68.086  85.313  59.560  1.00  0.00    -0.290 N
ATOM     24  H7  UNL     1      68.482  86.212  59.285  1.00  0.00     0.188 HD
BRANCH  23  25
HETATM   25  N8  UNL     1      67.368  84.511  58.662  1.00  0.00    -0.344 N
ATOM     26  H82 UNL     1      67.037  83.584  58.931  1.00  0.00     0.176 HD
ATOM     27  H81 UNL     1      67.205  84.912  57.739  1.00  0.00     0.176 HD
ENDBRANCH  23  25
ENDBRANCH   5  23
BRANCH   1  28
HETATM   28  N1  UNL     1      70.182  85.476  64.472  1.00  0.00    -0.234 N
ATOM     29  H12 UNL     1      69.860  84.981  65.304  1.00  0.00     0.174 HD
ATOM     30  H11 UNL     1      70.891  86.196  64.331  1.00  0.00     0.174 HD
ENDBRANCH   1  28
TORSDOF 7
ENDMDL