MODEL 3
REMARK VINA RESULT: -9.342045749      2.068      3.216
REMARK  5 active torsions:
REMARK  status: ('A' for Active; 'I' for Inactive)
REMARK    1  A    between atoms: C3_6  and  N3_7
REMARK    2  A    between atoms: C4_10  and  N4_11
REMARK    3  A    between atoms: N4_11  and  C5_13
REMARK    4  A    between atoms: C5_13  and  O1_14
REMARK    5  A    between atoms: C7_19  and  C8_20
ROOT
HETATM    1  N1  UNL     1      66.122  87.000  58.086  1.00  0.00    -0.188 NA
HETATM    2  C1  UNL     1      66.639  86.442  58.964  1.00  0.00     0.138 C
HETATM    3  C2  UNL     1      67.270  85.732  60.058  1.00  0.00     0.204 A
HETATM    4  N2  UNL     1      67.198  86.163  61.321  1.00  0.00    -0.316 N
ATOM      5  H2  UNL     1      66.683  87.020  61.521  1.00  0.00     0.170 HD
HETATM    6  C3  UNL     1      67.797  85.489  62.361  1.00  0.00     0.147 A
HETATM    7  C4  UNL     1      68.494  84.335  62.112  1.00  0.00     0.166 A
HETATM    8  N9  UNL     1      68.549  83.922  60.808  1.00  0.00    -0.280 N
ATOM      9  H9  UNL     1      69.058  83.069  60.578  1.00  0.00     0.188 HD
HETATM   10  N10 UNL     1      67.961  84.598  59.845  1.00  0.00    -0.275 N
ATOM     11  H10 UNL     1      68.033  84.246  58.890  1.00  0.00     0.189 HD
ENDROOT
BRANCH   6  12
HETATM   12  N3  UNL     1      67.698  85.942  63.549  1.00  0.00    -0.382 N
ATOM     13  H32 UNL     1      68.173  86.806  63.816  1.00  0.00     0.157 HD
ATOM     14  H31 UNL     1      67.141  85.438  64.238  1.00  0.00     0.157 HD
ENDBRANCH   6  12
BRANCH   7  15
HETATM   15  N4  UNL     1      69.145  83.571  63.121  1.00  0.00    -0.316 N
ATOM     16  H4  UNL     1      68.580  83.132  63.849  1.00  0.00     0.169 HD
BRANCH  15  17
HETATM   17  C5  UNL     1      70.554  83.402  63.149  1.00  0.00     0.188 C
HETATM   18  C6  UNL     1      71.127  82.270  62.787  1.00  0.00     0.173 A
HETATM   19  N5  UNL     1      70.456  81.089  62.332  1.00  0.00    -0.319 N
HETATM   20  N8  UNL     1      72.507  81.931  62.751  1.00  0.00    -0.280 N
HETATM   21  C7  UNL     1      71.307  80.157  62.056  1.00  0.00     0.188 A
ATOM     22  H5  UNL     1      69.445  80.996  62.238  1.00  0.00     0.169 HD
HETATM   23  N7  UNL     1      72.630  80.614  62.298  1.00  0.00    -0.280 N
ATOM     24  H7  UNL     1      73.495  80.088  62.166  1.00  0.00     0.189 HD
ATOM     25  H8  UNL     1      73.278  82.545  63.013  1.00  0.00     0.188 HD
BRANCH  17  26
HETATM   26  O1  UNL     1      71.328  84.468  63.570  1.00  0.00    -0.343 OA
ATOM     27  H1  UNL     1      72.099  84.281  64.093  1.00  0.00     0.219 HD
ENDBRANCH  17  26
BRANCH  21  28
HETATM   28  C8  UNL     1      70.999  78.812  61.566  1.00  0.00     0.300 C
HETATM   29  N6  UNL     1      71.237  77.667  62.362  1.00  0.00    -0.054 NA
HETATM   30  O2  UNL     1      70.507  78.703  60.397  1.00  0.00    -0.268 OA
ENDBRANCH  21  28
ENDBRANCH  15  17
ENDBRANCH   7  15
TORSDOF 5
ENDMDL