MODEL 1
REMARK VINA RESULT: -8.151869476      0.000      0.000
REMARK  9 active torsions:
REMARK  status: ('A' for Active; 'I' for Inactive)
REMARK    1  A    between atoms: N1_1  and  C1_4
REMARK    2  A    between atoms: C3_8  and  N3_9
REMARK    3  A    between atoms: N3_9  and  N4_11
REMARK    4  A    between atoms: N4_11  and  O1_12
REMARK    5  A    between atoms: N5_14  and  O2_16
REMARK    6  A    between atoms: O2_16  and  C4_17
REMARK    7  A    between atoms: C4_17  and  C5_19
REMARK       I    between atoms: C5_19  and  N6_21
REMARK    8  A    between atoms: N6_21  and  N7_23
REMARK    9  A    between atoms: N7_23  and  N8_24
ROOT
HETATM    1  N4  UNL     1      68.216  85.800  63.167  1.00  0.00    -0.074 N
HETATM    2  N5  UNL     1      67.579  86.435  62.270  1.00  0.00    -0.156 N
ATOM      3  H5  UNL     1      66.712  86.899  62.542  1.00  0.00     0.221 HD
ENDROOT
BRANCH   1   4
HETATM    4  N3  UNL     1      69.399  85.129  62.932  1.00  0.00    -0.255 N
ATOM      5  H3  UNL     1      70.224  85.695  62.737  1.00  0.00     0.191 HD
BRANCH   4   6
HETATM    6  C3  UNL     1      69.566  83.740  62.938  1.00  0.00     0.084 A
HETATM    7  C2  UNL     1      68.495  82.909  62.688  1.00  0.00     0.138 A
HETATM    8  N2  UNL     1      68.634  81.554  62.688  1.00  0.00    -0.200 N
HETATM    9  C1  UNL     1      69.846  80.999  62.940  1.00  0.00     0.675 A
ATOM     10  H2  UNL     1      67.829  80.957  62.499  1.00  0.00     0.183 HD
HETATM   11  N9  UNL     1      70.896  81.777  63.184  1.00  0.00    -0.200 N
HETATM   12  C6  UNL     1      70.776  83.126  63.187  1.00  0.00     0.138 A
ATOM     13  H9  UNL     1      71.804  81.353  63.372  1.00  0.00     0.183 HD
BRANCH   9  14
HETATM   14  N1  UNL     1      69.888  79.712  62.921  1.00  0.00    -0.234 N
ATOM     15  H12 UNL     1      70.464  79.166  62.280  1.00  0.00     0.174 HD
ATOM     16  H11 UNL     1      69.295  79.238  63.603  1.00  0.00     0.174 HD
ENDBRANCH   9  14
ENDBRANCH   4   6
ENDBRANCH   1   4
BRANCH   1  17
HETATM   17  O1  UNL     1      67.618  85.832  64.429  1.00  0.00    -0.252 OA
ATOM     18  H1  UNL     1      67.557  86.631  64.939  1.00  0.00     0.248 HD
ENDBRANCH   1  17
BRANCH   2  19
HETATM   19  O2  UNL     1      67.973  86.539  60.962  1.00  0.00    -0.172 OA
BRANCH  19  20
HETATM   20  C4  UNL     1      67.208  85.893  59.976  1.00  0.00     0.375 C
HETATM   21  O3  UNL     1      67.543  84.734  59.616  1.00  0.00    -0.252 OA
BRANCH  20  22
HETATM   22  C5  UNL     1      66.056  86.522  59.371  1.00  0.00     0.335 C
HETATM   23  O4  UNL     1      65.178  87.027  60.104  1.00  0.00    -0.260 OA
HETATM   24  N6  UNL     1      65.928  86.563  57.972  1.00  0.00    -0.245 N
ATOM     25  H6  UNL     1      66.663  86.142  57.405  1.00  0.00     0.187 HD
BRANCH  24  26
HETATM   26  N7  UNL     1      64.837  87.157  57.318  1.00  0.00    -0.027 NA
BRANCH  26  27
HETATM   27  N8  UNL     1      64.631  88.471  57.755  1.00  0.00    -0.329 N
ATOM     28  H82 UNL     1      64.006  88.716  58.522  1.00  0.00     0.174 HD
ATOM     29  H81 UNL     1      65.181  89.135  57.212  1.00  0.00     0.174 HD
ENDBRANCH  26  27
ENDBRANCH  24  26
ENDBRANCH  20  22
ENDBRANCH  19  20
ENDBRANCH   2  19
TORSDOF 9
ENDMDL