MODEL 1
REMARK VINA RESULT: -7.904388722      0.000      0.000
REMARK  8 active torsions:
REMARK  status: ('A' for Active; 'I' for Inactive)
REMARK    1  A    between atoms: N1_1  and  C1_4
REMARK    2  A    between atoms: C2_7  and  C3_8
REMARK    3  A    between atoms: C3_8  and  C4_10
REMARK    4  A    between atoms: C4_10  and  O2_11
REMARK    5  A    between atoms: C4_10  and  C5_13
REMARK    6  A    between atoms: C6_18  and  N5_19
REMARK    7  A    between atoms: N5_19  and  N6_21
REMARK    8  A    between atoms: C7_24  and  N7_25
ROOT
HETATM    1  C1  UNL     1      68.205  84.830  63.176  1.00  0.00     0.138 A
HETATM    2  N2  UNL     1      68.630  83.554  63.337  1.00  0.00    -0.324 N
ATOM      3  H2  UNL     1      68.713  83.177  64.281  1.00  0.00     0.169 HD
HETATM    4  C2  UNL     1      68.945  82.769  62.295  1.00  0.00     0.158 A
HETATM    5  N4  UNL     1      68.826  83.292  61.069  1.00  0.00    -0.322 N
ATOM      6  H4  UNL     1      69.063  82.708  60.268  1.00  0.00     0.169 HD
HETATM    7  C6  UNL     1      68.410  84.551  60.840  1.00  0.00     0.158 A
HETATM    8  C7  UNL     1      68.089  85.350  61.904  1.00  0.00     0.191 A
ENDROOT
BRANCH   4   9
HETATM    9  C3  UNL     1      69.402  81.430  62.531  1.00  0.00     0.230 C
HETATM   10  O1  UNL     1      68.597  80.623  63.119  1.00  0.00    -0.286 OA
BRANCH   9  11
HETATM   11  C4  UNL     1      70.715  80.857  62.174  1.00  0.00     0.284 C
BRANCH  11  12
HETATM   12  O2  UNL     1      71.568  80.955  63.304  1.00  0.00    -0.379 OA
ATOM     13  H2  UNL     1      72.099  80.168  63.348  1.00  0.00     0.211 HD
ENDBRANCH  11  12
BRANCH  11  14
HETATM   14  C5  UNL     1      70.706  79.465  61.741  1.00  0.00     0.267 C
HETATM   15  N3  UNL     1      71.058  78.320  62.477  1.00  0.00    -0.059 NA
HETATM   16  O3  UNL     1      70.332  79.232  60.537  1.00  0.00    -0.273 OA
ENDBRANCH  11  14
ENDBRANCH   9  11
ENDBRANCH   4   9
BRANCH   1  17
HETATM   17  N1  UNL     1      67.898  85.594  64.163  1.00  0.00    -0.383 N
ATOM     18  H12 UNL     1      67.127  86.250  64.033  1.00  0.00     0.157 HD
ATOM     19  H11 UNL     1      68.388  85.567  65.057  1.00  0.00     0.157 HD
ENDBRANCH   1  17
BRANCH   7  20
HETATM   20  N5  UNL     1      68.308  85.040  59.501  1.00  0.00    -0.290 N
ATOM     21  H5  UNL     1      69.139  85.380  59.017  1.00  0.00     0.188 HD
BRANCH  20  22
HETATM   22  N6  UNL     1      67.077  85.049  58.860  1.00  0.00    -0.344 N
ATOM     23  H62 UNL     1      66.681  84.169  58.532  1.00  0.00     0.176 HD
ATOM     24  H61 UNL     1      66.583  85.931  58.726  1.00  0.00     0.176 HD
ENDBRANCH  20  22
ENDBRANCH   7  20
BRANCH   8  25
HETATM   25  N7  UNL     1      67.645  86.688  61.672  1.00  0.00    -0.108 N
HETATM   26  O4  UNL     1      68.316  87.689  61.996  1.00  0.00    -0.531 OA
HETATM   27  O5  UNL     1      66.427  86.922  61.064  1.00  0.00    -0.531 OA
ENDBRANCH   8  25
TORSDOF 8
ENDMDL