MODEL 3
REMARK VINA RESULT: -5.729664360      1.596      2.184
REMARK  7 active torsions:
REMARK  status: ('A' for Active; 'I' for Inactive)
REMARK    1  A    between atoms: C2_2  and  N1_3
REMARK    2  A    between atoms: C2_2  and  N2_7
REMARK       I    between atoms: N2_7  and  C3_8
REMARK    3  A    between atoms: N2_7  and  C4_15
REMARK    4  A    between atoms: N4_10  and  N5_12
REMARK    5  A    between atoms: C5_18  and  C6_19
REMARK       I    between atoms: C6_19  and  N7_21
REMARK    6  A    between atoms: N7_21  and  N8_23
REMARK    7  A    between atoms: C7_28  and  N10_29
ROOT
HETATM    1  C4  UNL     1      73.774  76.521  61.874  1.00  0.00     0.705 A
HETATM    2  N6  UNL     1      72.664  77.244  62.107  1.00  0.00    -0.169 N
ATOM      3  H6  UNL     1      72.030  76.930  62.842  1.00  0.00     0.186 HD
HETATM    4  C5  UNL     1      72.344  78.361  61.423  1.00  0.00     0.205 A
HETATM    5  N9  UNL     1      73.209  78.733  60.467  1.00  0.00    -0.170 N
ATOM      6  H9  UNL     1      73.013  79.572  59.920  1.00  0.00     0.186 HD
HETATM    7  C7  UNL     1      74.331  78.030  60.209  1.00  0.00     0.692 A
HETATM    8  N11 UNL     1      74.622  76.919  60.909  1.00  0.00    -0.022 N
ATOM      9  H11 UNL     1      75.470  76.388  60.711  1.00  0.00     0.203 HD
ENDROOT
BRANCH   1  10
HETATM   10  N2  UNL     1      74.029  75.355  62.645  1.00  0.00    -0.123 N
HETATM   11  C3  UNL     1      74.567  74.219  61.987  1.00  0.00     0.225 C
HETATM   12  N3  UNL     1      73.793  73.333  61.202  1.00  0.00    -0.061 NA
HETATM   13  N4  UNL     1      75.824  73.967  62.098  1.00  0.00    -0.279 N
ATOM     14  H4  UNL     1      76.398  74.597  62.659  1.00  0.00     0.189 HD
BRANCH  10  15
HETATM   15  C2  UNL     1      73.781  75.239  64.051  1.00  0.00     0.304 C
HETATM   16  C1  UNL     1      73.354  73.891  64.506  1.00  0.00     0.064 C
BRANCH  15  17
HETATM   17  N1  UNL     1      75.042  75.556  64.733  1.00  0.00    -0.058 N
ATOM     18  H13 UNL     1      75.535  74.726  65.064  1.00  0.00     0.276 HD
ATOM     19  H12 UNL     1      75.764  75.894  64.097  1.00  0.00     0.276 HD
ATOM     20  H11 UNL     1      74.829  76.216  65.481  1.00  0.00     0.276 HD
ENDBRANCH  15  17
ENDBRANCH  10  15
BRANCH  13  21
HETATM   21  N5  UNL     1      76.439  72.875  61.487  1.00  0.00    -0.343 N
ATOM     22  H52 UNL     1      76.569  72.035  62.050  1.00  0.00     0.176 HD
ATOM     23  H51 UNL     1      76.756  72.885  60.518  1.00  0.00     0.176 HD
ENDBRANCH  13  21
ENDBRANCH   1  10
BRANCH   4  24
HETATM   24  C6  UNL     1      71.129  79.097  61.726  1.00  0.00     0.304 C
HETATM   25  O1  UNL     1      70.049  78.503  61.947  1.00  0.00    -0.263 OA
HETATM   26  N7  UNL     1      71.139  80.506  61.778  1.00  0.00    -0.270 N
ATOM     27  H7  UNL     1      72.013  81.000  61.600  1.00  0.00     0.189 HD
BRANCH  26  28
HETATM   28  N8  UNL     1      69.993  81.246  62.065  1.00  0.00    -0.342 N
ATOM     29  H82 UNL     1      69.236  80.779  62.564  1.00  0.00     0.176 HD
ATOM     30  H81 UNL     1      69.896  82.224  61.792  1.00  0.00     0.176 HD
ENDBRANCH  26  28
ENDBRANCH   4  24
BRANCH   7  31
HETATM   31  N10 UNL     1      75.100  78.450  59.285  1.00  0.00    -0.234 N
ATOM     32 2H10 UNL     1      74.811  78.435  58.307  1.00  0.00     0.174 HD
ATOM     33 1H10 UNL     1      76.019  78.805  59.551  1.00  0.00     0.174 HD
ENDBRANCH   7  31
TORSDOF 7
ENDMDL