MODEL 2
REMARK VINA RESULT: -8.702619265      1.851      2.362
REMARK  8 active torsions:
REMARK  status: ('A' for Active; 'I' for Inactive)
REMARK    1  A    between atoms: C4_6  and  S1_7
REMARK    2  A    between atoms: S1_7  and  C5_8
REMARK    3  A    between atoms: C5_8  and  C6_9
REMARK    4  A    between atoms: C6_9  and  O1_10
REMARK    5  A    between atoms: O1_10  and  C7_11
REMARK    6  A    between atoms: N4_19  and  N5_21
REMARK    7  A    between atoms: C11_23  and  C12_24
REMARK    8  A    between atoms: C17_31  and  O2_32
ROOT
HETATM    1  C7  UNL     1       0.153   9.030  54.192  1.00  0.00     0.239 A
HETATM    2  N2  UNL     1       0.959   8.512  55.129  1.00  0.00    -0.311 N
ATOM      3  H2  UNL     1       1.418   9.164  55.765  1.00  0.00     0.170 HD
HETATM    4  C8  UNL     1       1.209   7.208  55.297  1.00  0.00     0.096 A
HETATM    5  C9  UNL     1       2.102   6.642  56.336  1.00  0.00     0.089 C
HETATM    6  N3  UNL     1       0.597   6.366  54.454  1.00  0.00    -0.179 N
ATOM      7  H3  UNL     1       0.764   5.364  54.554  1.00  0.00     0.185 HD
HETATM    8  C10 UNL     1      -0.226   6.791  53.484  1.00  0.00     0.701 A
HETATM    9  N4  UNL     1      -0.833   6.043  52.663  1.00  0.00    -0.132 N
ATOM     10  H4  UNL     1      -1.415   6.553  51.998  1.00  0.00     0.205 HD
HETATM   11  N6  UNL     1      -0.433   8.113  53.370  1.00  0.00    -0.153 N
ATOM     12  H6  UNL     1      -1.057   8.447  52.636  1.00  0.00     0.188 HD
ENDROOT
BRANCH   9  13
HETATM   13  N5  UNL     1      -0.863   4.706  52.492  1.00  0.00    -0.297 N
HETATM   14  C11 UNL     1      -1.736   3.830  52.757  1.00  0.00     0.122 C
ATOM     15  H5  UNL     1      -0.016   4.327  52.067  1.00  0.00     0.186 HD
BRANCH  14  16
HETATM   16  C12 UNL     1      -1.449   2.436  52.440  1.00  0.00     0.017 A
HETATM   17  C13 UNL     1      -0.792   2.064  51.286  1.00  0.00     0.034 A
HETATM   18  C14 UNL     1      -0.509   0.753  50.967  1.00  0.00     0.013 A
HETATM   19 BR1  UNL     1       0.412   0.314  49.339  1.00  0.00    -0.051 Br
HETATM   20  C15 UNL     1      -0.891  -0.263  51.824  1.00  0.00     0.041 A
HETATM   21  C16 UNL     1      -1.547   0.094  52.978  1.00  0.00     0.046 A
HETATM   22 BR2  UNL     1      -2.088  -1.277  54.181  1.00  0.00    -0.048 Br
HETATM   23  C17 UNL     1      -1.831   1.404  53.302  1.00  0.00     0.094 A
BRANCH  23  24
HETATM   24  O2  UNL     1      -2.496   1.762  54.468  1.00  0.00    -0.358 OA
ATOM     25  H2  UNL     1      -1.963   1.951  55.232  1.00  0.00     0.217 HD
ENDBRANCH  23  24
ENDBRANCH  14  16
ENDBRANCH   9  13
BRANCH   1  26
HETATM   26  O1  UNL     1      -0.097  10.378  54.029  1.00  0.00    -0.321 OA
BRANCH  26  27
HETATM   27  C6  UNL     1      -1.283  10.983  54.410  1.00  0.00     0.189 C
BRANCH  27  28
HETATM   28  C5  UNL     1      -1.806  10.571  55.763  1.00  0.00     0.109 C
BRANCH  28  29
HETATM   29  S1  UNL     1      -2.629  12.002  56.571  1.00  0.00    -0.092 SA
BRANCH  29  30
HETATM   30  C4  UNL     1      -1.398  13.078  57.285  1.00  0.00     0.144 A
HETATM   31  N1  UNL     1      -1.421  13.629  58.510  1.00  0.00    -0.345 N
HETATM   32  C3  UNL     1      -0.303  14.388  58.686  1.00  0.00     0.114 A
ATOM     33  H1  UNL     1      -2.160  13.499  59.201  1.00  0.00     0.167 HD
HETATM   34  C2  UNL     1       0.427  14.290  57.514  1.00  0.00     0.022 A
HETATM   35  C1  UNL     1       1.745  14.965  57.243  1.00  0.00     0.069 C
HETATM   36  N7  UNL     1      -0.265  13.491  56.689  1.00  0.00    -0.339 N
ATOM     37  H7  UNL     1       0.026  13.232  55.746  1.00  0.00     0.168 HD
ENDBRANCH  29  30
ENDBRANCH  28  29
ENDBRANCH  27  28
ENDBRANCH  26  27
ENDBRANCH   1  26
TORSDOF 8
ENDMDL