MODEL 3
REMARK VINA RESULT: -7.454262364      4.380      7.556
REMARK  14 active torsions:
REMARK  status: ('A' for Active; 'I' for Inactive)
REMARK    1  A    between atoms: C3_3  and  C4_4
REMARK    2  A    between atoms: C5_5  and  O1_6
REMARK    3  A    between atoms: C12_14  and  O2_15
REMARK    4  A    between atoms: C12_14  and  C13_17
REMARK    5  A    between atoms: C13_17  and  C15_19
REMARK    6  A    between atoms: C15_19  and  N1_21
REMARK    7  A    between atoms: N1_21  and  C16_23
REMARK    8  A    between atoms: C16_23  and  C17_24
REMARK    9  A    between atoms: C20_28  and  O3_29
REMARK   10  A    between atoms: O3_29  and  C21_30
REMARK   11  A    between atoms: C23_33  and  O5_34
REMARK   12  A    between atoms: O5_34  and  C24_35
REMARK   13  A    between atoms: C24_35  and  O7_37
REMARK   14  A    between atoms: O7_37  and  C25_38
ROOT
HETATM    1  C4  UNL     1       2.277   4.768  47.591  1.00  0.00     0.028 C
HETATM    2  C5  UNL     1       2.450   4.015  48.923  1.00  0.00     0.124 C
HETATM    3  C6  UNL     1       2.743   2.617  48.396  1.00  0.00     0.044 C
HETATM    4  C7  UNL     1       3.825   2.939  47.386  1.00  0.00    -0.006 C
HETATM    5  C8  UNL     1       5.135   3.182  48.094  1.00  0.00     0.019 C
HETATM    6  C9  UNL     1       3.310   4.219  46.699  1.00  0.00     0.004 C
HETATM    7  C10 UNL     1       2.710   3.740  45.382  1.00  0.00     0.009 C
HETATM    8  C11 UNL     1       2.756   2.232  45.386  1.00  0.00     0.040 C
HETATM    9  C12 UNL     1       3.885   1.901  46.327  1.00  0.00     0.075 C
ENDROOT
BRANCH   1  10
HETATM   10  C3  UNL     1       2.296   6.211  47.928  1.00  0.00     0.026 C
HETATM   11  C2  UNL     1       1.625   7.139  47.077  1.00  0.00    -0.053 C
HETATM   12  C1  UNL     1       0.507   7.037  46.317  1.00  0.00     0.017 C
HETATM   13  C23 UNL     1       2.341   8.424  47.113  1.00  0.00     0.192 C
HETATM   14  C20 UNL     1       3.397   8.268  48.133  1.00  0.00     0.166 C
HETATM   15  C19 UNL     1       3.686   6.752  48.146  1.00  0.00     0.045 C
BRANCH  13  16
HETATM   16  O5  UNL     1       2.750   8.901  45.876  1.00  0.00    -0.286 OA
BRANCH  16  17
HETATM   17  C24 UNL     1       3.279   8.158  44.840  1.00  0.00     0.407 C
HETATM   18  O6  UNL     1       2.779   8.302  43.709  1.00  0.00    -0.229 OA
BRANCH  17  19
HETATM   19  O7  UNL     1       4.326   7.267  44.993  1.00  0.00    -0.298 OA
BRANCH  19  20
HETATM   20  C25 UNL     1       4.772   6.540  43.868  1.00  0.00     0.176 C
HETATM   21  C26 UNL     1       5.772   5.506  44.381  1.00  0.00     0.034 C
ENDBRANCH  19  20
ENDBRANCH  17  19
ENDBRANCH  16  17
ENDBRANCH  13  16
BRANCH  14  22
HETATM   22  O3  UNL     1       4.567   9.008  47.889  1.00  0.00    -0.313 OA
BRANCH  22  23
HETATM   23  C21 UNL     1       5.046  10.000  48.685  1.00  0.00     0.255 C
HETATM   24  C22 UNL     1       4.130  11.025  49.224  1.00  0.00     0.126 C
HETATM   25  O4  UNL     1       6.263  10.049  48.964  1.00  0.00    -0.266 OA
ENDBRANCH  22  23
ENDBRANCH  14  22
ENDBRANCH   1  10
BRANCH   2  26
HETATM   26  O1  UNL     1       1.260   4.010  49.609  1.00  0.00    -0.395 OA
ATOM     27  H1  UNL     1       0.680   3.357  49.237  1.00  0.00     0.210 HD
ENDBRANCH   2  26
BRANCH   9  28
HETATM   28  O2  UNL     1       5.130   2.065  45.679  1.00  0.00    -0.388 OA
ATOM     29  H2  UNL     1       5.030   1.696  44.810  1.00  0.00     0.210 HD
ENDBRANCH   9  28
BRANCH   9  30
HETATM   30  C13 UNL     1       3.785   0.483  46.772  1.00  0.00     0.078 C
HETATM   31  C14 UNL     1       5.062  -0.311  46.546  1.00  0.00     0.020 C
BRANCH  30  32
HETATM   32  C15 UNL     1       2.700  -0.272  46.098  1.00  0.00     0.080 C
HETATM   33  S1  UNL     1       2.998  -1.000  44.644  1.00  0.00    -0.065 SA
BRANCH  32  34
HETATM   34  N1  UNL     1       1.395  -0.413  46.631  1.00  0.00    -0.381 N
ATOM     35  H1  UNL     1       0.684   0.278  46.390  1.00  0.00     0.160 HD
BRANCH  34  36
HETATM   36  C16 UNL     1       1.037  -1.516  47.515  1.00  0.00     0.157 C
BRANCH  36  37
HETATM   37  C17 UNL     1       0.989  -1.115  48.950  1.00  0.00     0.183 C
HETATM   38  C18 UNL     1       0.179   0.143  49.119  1.00  0.00     0.046 C
HETATM   39  F1  UNL     1       2.283  -0.819  49.346  1.00  0.00    -0.248 F
ENDBRANCH  36  37
ENDBRANCH  34  36
ENDBRANCH  32  34
ENDBRANCH  30  32
ENDBRANCH   9  30
TORSDOF 14
ENDMDL