MODEL 1
REMARK VINA RESULT: -6.573318306      0.000      0.000
REMARK  10 active torsions:
REMARK  status: ('A' for Active; 'I' for Inactive)
REMARK    1  A    between atoms: C3_6  and  C4_7
REMARK    2  A    between atoms: C5_8  and  S1_9
REMARK    3  A    between atoms: S1_9  and  C6_10
REMARK    4  A    between atoms: C6_10  and  O2_12
REMARK    5  A    between atoms: C11_19  and  C12_20
REMARK    6  A    between atoms: C14_22  and  C15_23
REMARK    7  A    between atoms: C15_23  and  O3_24
REMARK    8  A    between atoms: O3_24  and  S2_25
REMARK    9  A    between atoms: S2_25  and  N2_26
REMARK   10  A    between atoms: C16_31  and  O6_32
ROOT
HETATM    1  C4  UNL     1       1.713  13.324  57.908  1.00  0.00     0.044 A
HETATM    2  C5  UNL     1       0.463  13.032  57.380  1.00  0.00     0.040 A
HETATM    3  C8  UNL     1      -0.628  13.760  57.797  1.00  0.00     0.053 A
HETATM    4 CL1  UNL     1      -2.215  13.397  57.138  1.00  0.00    -0.083 Cl
HETATM    5  C9  UNL     1      -0.481  14.763  58.721  1.00  0.00     0.049 A
HETATM    6  C10 UNL     1       0.794  15.037  59.237  1.00  0.00     0.043 A
HETATM    7 CL2  UNL     1       0.899  16.286  60.434  1.00  0.00    -0.084 Cl
HETATM    8  C11 UNL     1       1.905  14.342  58.855  1.00  0.00    -0.016 A
ENDROOT
BRANCH   8   9
HETATM    9  C12 UNL     1       3.221  14.588  59.410  1.00  0.00     0.022 C
HETATM   10  C13 UNL     1       4.070  15.669  58.837  1.00  0.00     0.018 C
HETATM   11  C14 UNL     1       5.544  15.307  59.206  1.00  0.00     0.041 C
HETATM   12  C16 UNL     1       5.663  14.791  60.581  1.00  0.00     0.132 C
HETATM   13  C17 UNL     1       4.494  15.084  61.480  1.00  0.00    -0.021 C
HETATM   14  C18 UNL     1       4.692  16.476  62.102  1.00  0.00     0.017 C
HETATM   15  C19 UNL     1       4.601  14.124  62.676  1.00  0.00     0.017 C
HETATM   16  C20 UNL     1       3.152  14.940  60.899  1.00  0.00     0.020 C
BRANCH  11  17
HETATM   17  C15 UNL     1       6.047  14.370  58.128  1.00  0.00     0.199 C
BRANCH  17  18
HETATM   18  O3  UNL     1       7.439  14.313  58.200  1.00  0.00    -0.259 OA
BRANCH  18  19
HETATM   19  S2  UNL     1       7.938  12.756  57.773  1.00  0.00     0.355 S
HETATM   20  O4  UNL     1       9.409  12.733  57.505  1.00  0.00    -0.176 OA
HETATM   21  O5  UNL     1       7.236  12.266  56.534  1.00  0.00    -0.176 OA
BRANCH  19  22
HETATM   22  N2  UNL     1       7.604  11.643  59.032  1.00  0.00    -0.306 N
ATOM     23  H22 UNL     1       6.966  10.854  58.937  1.00  0.00     0.171 HD
ATOM     24  H21 UNL     1       8.129  11.882  59.874  1.00  0.00     0.171 HD
ENDBRANCH  19  22
ENDBRANCH  18  19
ENDBRANCH  17  18
ENDBRANCH  11  17
BRANCH  12  25
HETATM   25  O6  UNL     1       6.023  13.451  60.679  1.00  0.00    -0.394 OA
ATOM     26  H6  UNL     1       5.741  13.015  61.475  1.00  0.00     0.210 HD
ENDBRANCH  12  25
ENDBRANCH   8   9
BRANCH   1  27
HETATM   27  C3  UNL     1       2.805  12.430  57.455  1.00  0.00     0.184 A
HETATM   28  O1  UNL     1       3.606  12.518  56.449  1.00  0.00    -0.217 OA
HETATM   29  N1  UNL     1       4.414  11.535  56.415  1.00  0.00    -0.247 N
HETATM   30  C2  UNL     1       4.155  10.732  57.450  1.00  0.00     0.100 A
ATOM     31  H1  UNL     1       5.140  11.385  55.713  1.00  0.00     0.196 HD
HETATM   32  C1  UNL     1       4.919   9.466  57.726  1.00  0.00     0.091 C
HETATM   33  N3  UNL     1       3.151  11.280  58.107  1.00  0.00    -0.323 N
ATOM     34  H3  UNL     1       2.712  10.912  58.952  1.00  0.00     0.169 HD
ENDBRANCH   1  27
BRANCH   2  35
HETATM   35  S1  UNL     1       0.211  11.804  56.093  1.00  0.00    -0.096 SA
BRANCH  35  36
HETATM   36  C6  UNL     1       0.395  12.502  54.447  1.00  0.00     0.180 C
HETATM   37  C7  UNL     1       0.152  11.453  53.383  1.00  0.00     0.051 C
BRANCH  36  38
HETATM   38  O2  UNL     1       1.639  13.046  54.261  1.00  0.00    -0.385 OA
ATOM     39  H2  UNL     1       1.820  13.736  54.888  1.00  0.00     0.211 HD
ENDBRANCH  36  38
ENDBRANCH  35  36
ENDBRANCH   2  35
TORSDOF 10
ENDMDL