MODEL 5
REMARK VINA RESULT: -7.340183247     11.029     13.881
REMARK  13 active torsions:
REMARK  status: ('A' for Active; 'I' for Inactive)
REMARK    1  A    between atoms: C2_2  and  O1_3
REMARK    2  A    between atoms: O1_3  and  C3_4
REMARK       I    between atoms: C3_4  and  N1_6
REMARK    3  A    between atoms: N1_6  and  C4_8
REMARK    4  A    between atoms: C4_8  and  C5_9
REMARK    5  A    between atoms: C5_9  and  O4_11
REMARK    6  A    between atoms: O4_11  and  C6_12
REMARK    7  A    between atoms: C6_12  and  C7_13
REMARK    8  A    between atoms: C12_18  and  O5_19
REMARK    9  A    between atoms: C12_18  and  C13_21
REMARK   10  A    between atoms: C16_24  and  O6_25
REMARK   11  A    between atoms: O6_25  and  C17_26
REMARK   12  A    between atoms: C17_26  and  C18_28
REMARK   13  A    between atoms: C18_28  and  O8_31
ROOT
HETATM    1  C7  UNL     1       4.126  15.722  60.340  1.00  0.00    -0.004 C
HETATM    2  C8  UNL     1       4.001  17.254  60.559  1.00  0.00     0.019 C
HETATM    3  C9  UNL     1       4.877  15.540  59.114  1.00  0.00     0.058 C
HETATM    4  C10 UNL     1       6.317  15.219  59.253  1.00  0.00    -0.072 C
HETATM    5  C11 UNL     1       6.729  14.823  58.065  1.00  0.00     0.017 C
HETATM    6  C12 UNL     1       5.575  14.861  57.084  1.00  0.00     0.106 C
HETATM    7  C16 UNL     1       4.486  14.475  58.126  1.00  0.00     0.179 C
HETATM    8  C21 UNL     1       6.978  15.366  60.555  1.00  0.00     0.055 C
HETATM    9  C22 UNL     1       6.119  14.884  61.677  1.00  0.00     0.095 C
HETATM   10 CL1  UNL     1       6.901  15.394  63.207  1.00  0.00    -0.124 Cl
HETATM   11  C23 UNL     1       4.672  15.176  61.620  1.00  0.00    -0.021 C
HETATM   12  C24 UNL     1       4.473  16.208  62.753  1.00  0.00     0.017 C
HETATM   13  C25 UNL     1       3.903  13.962  62.109  1.00  0.00     0.017 C
ENDROOT
BRANCH   1  14
HETATM   14  C6  UNL     1       2.677  15.332  60.095  1.00  0.00     0.189 C
BRANCH  14  15
HETATM   15  O4  UNL     1       2.006  16.271  59.286  1.00  0.00    -0.319 OA
BRANCH  15  16
HETATM   16  C5  UNL     1       0.628  16.420  59.292  1.00  0.00     0.276 C
HETATM   17  O3  UNL     1       0.144  17.562  59.467  1.00  0.00    -0.263 OA
BRANCH  16  18
HETATM   18  C4  UNL     1      -0.197  15.205  59.090  1.00  0.00     0.235 C
BRANCH  18  19
HETATM   19  N1  UNL     1      -0.128  14.700  57.763  1.00  0.00    -0.328 N
HETATM   20  C3  UNL     1      -1.085  13.761  57.308  1.00  0.00     0.360 C
HETATM   21  O2  UNL     1      -2.007  13.361  58.068  1.00  0.00    -0.239 OA
ATOM     22  H1  UNL     1       0.613  15.014  57.136  1.00  0.00     0.165 HD
BRANCH  20  23
HETATM   23  O1  UNL     1      -1.069  13.233  56.025  1.00  0.00    -0.304 OA
BRANCH  23  24
HETATM   24  C2  UNL     1      -0.092  12.276  55.635  1.00  0.00     0.176 C
HETATM   25  C1  UNL     1       0.856  12.960  54.675  1.00  0.00     0.034 C
ENDBRANCH  23  24
ENDBRANCH  20  23
ENDBRANCH  18  19
ENDBRANCH  16  18
ENDBRANCH  15  16
ENDBRANCH  14  15
ENDBRANCH   1  14
BRANCH   7  26
HETATM   26  O6  UNL     1       4.903  13.204  58.566  1.00  0.00    -0.309 OA
BRANCH  26  27
HETATM   27  C17 UNL     1       4.173  12.055  58.566  1.00  0.00     0.293 C
HETATM   28  O7  UNL     1       3.209  11.999  59.389  1.00  0.00    -0.262 OA
BRANCH  27  29
HETATM   29  C18 UNL     1       4.391  10.869  57.706  1.00  0.00     0.138 C
HETATM   30  C19 UNL     1       5.761  10.791  57.100  1.00  0.00     0.056 C
HETATM   31  C20 UNL     1       3.407  10.899  56.533  1.00  0.00     0.056 C
BRANCH  29  32
HETATM   32  O8  UNL     1       4.214   9.681  58.439  1.00  0.00    -0.380 OA
ATOM     33  H8  UNL     1       4.375   8.920  57.892  1.00  0.00     0.211 HD
ENDBRANCH  29  32
ENDBRANCH  27  29
ENDBRANCH  26  27
ENDBRANCH   7  26
BRANCH   6  34
HETATM   34  O5  UNL     1       5.438  16.136  56.626  1.00  0.00    -0.383 OA
ATOM     35  H5  UNL     1       5.686  16.155  55.710  1.00  0.00     0.211 HD
ENDBRANCH   6  34
BRANCH   6  36
HETATM   36  C13 UNL     1       5.721  13.866  56.014  1.00  0.00     0.018 C
HETATM   37  C14 UNL     1       4.500  13.818  55.142  1.00  0.00     0.013 C
HETATM   38  C15 UNL     1       6.883  14.303  55.132  1.00  0.00     0.013 C
ENDBRANCH   6  36
TORSDOF 13
ENDMDL