MODEL 1
REMARK VINA RESULT: -6.847968549      0.000      0.000
REMARK  10 active torsions:
REMARK  status: ('A' for Active; 'I' for Inactive)
REMARK    1  A    between atoms: C2_2  and  N1_3
REMARK    2  A    between atoms: C3_4  and  O1_5
REMARK    3  A    between atoms: C6_9  and  O2_10
REMARK    4  A    between atoms: C8_14  and  N2_15
REMARK    5  A    between atoms: C14_28  and  C15_29
REMARK    6  A    between atoms: C15_29  and  C16_30
REMARK    7  A    between atoms: C16_30  and  C17_31
REMARK    8  A    between atoms: C17_31  and  C18_32
REMARK    9  A    between atoms: C18_32  and  C19_33
REMARK   10  A    between atoms: C19_33  and  C20_34
ROOT
HETATM    1  N1  UNL     1       1.559  16.285  58.875  1.00  0.00    -0.308 N
HETATM    2  C3  UNL     1       1.016  15.152  58.491  1.00  0.00     0.151 A
HETATM    3  C4  UNL     1       2.047  14.337  58.052  1.00  0.00     0.013 A
HETATM    4  C5  UNL     1       3.239  15.054  58.199  1.00  0.00     0.045 A
HETATM    5  C6  UNL     1       2.896  16.286  58.721  1.00  0.00     0.154 A
HETATM    6  C7  UNL     1       4.383  14.185  57.749  1.00  0.00     0.142 C
HETATM    7  S1  UNL     1       5.720  15.231  57.051  1.00  0.00    -0.088 SA
HETATM    8  C8  UNL     1       7.122  14.310  57.750  1.00  0.00     0.340 C
HETATM    9  C9  UNL     1       6.403  13.285  58.547  1.00  0.00     0.276 C
HETATM   10  O3  UNL     1       7.027  12.226  58.909  1.00  0.00    -0.269 OA
HETATM   11  N3  UNL     1       5.070  13.593  58.833  1.00  0.00    -0.231 N
HETATM   12 CL1  UNL     1       4.309  13.288  60.403  1.00  0.00     0.018 Cl
HETATM   13  C10 UNL     1       3.694  13.345  56.769  1.00  0.00     0.012 C
HETATM   14  C11 UNL     1       3.532  14.097  55.492  1.00  0.00     0.020 C
HETATM   15  C12 UNL     1       4.157  11.942  56.590  1.00  0.00     0.092 C
HETATM   16  C13 UNL     1       2.880  11.200  56.431  1.00  0.00     0.132 C
HETATM   17  O4  UNL     1       2.678  10.043  56.144  1.00  0.00    -0.298 OA
HETATM   18  C14 UNL     1       1.697  12.181  56.702  1.00  0.00     0.065 C
HETATM   19  C21 UNL     1       2.405  13.072  57.527  1.00  0.00     0.047 C
ENDROOT
BRANCH   5  20
HETATM   20  O2  UNL     1       3.768  17.333  59.033  1.00  0.00    -0.345 OA
ATOM     21  H2  UNL     1       4.626  17.485  58.655  1.00  0.00     0.219 HD
ENDBRANCH   5  20
BRANCH   8  22
HETATM   22  N2  UNL     1       7.903  15.110  58.659  1.00  0.00    -0.057 N
ATOM     23  H23 UNL     1       7.811  16.103  58.448  1.00  0.00     0.276 HD
ATOM     24  H22 UNL     1       7.498  15.104  59.596  1.00  0.00     0.276 HD
ATOM     25  H21 UNL     1       8.882  14.827  58.681  1.00  0.00     0.276 HD
ENDBRANCH   8  22
BRANCH   2  26
HETATM   26  O1  UNL     1      -0.335  14.898  58.550  1.00  0.00    -0.345 OA
ATOM     27  H1  UNL     1      -0.700  14.040  58.730  1.00  0.00     0.219 HD
ENDBRANCH   2  26
BRANCH   1  28
HETATM   28  C2  UNL     1       0.836  17.446  59.414  1.00  0.00     0.129 C
HETATM   29  C1  UNL     1       0.831  17.426  60.920  1.00  0.00     0.027 C
ENDBRANCH   1  28
BRANCH  18  30
HETATM   30  C15 UNL     1       1.006  12.363  55.442  1.00  0.00     0.013 C
BRANCH  30  31
HETATM   31  C16 UNL     1      -0.319  13.045  55.449  1.00  0.00     0.001 C
BRANCH  31  32
HETATM   32  C17 UNL     1      -1.412  12.266  56.195  1.00  0.00     0.000 C
BRANCH  32  33
HETATM   33  C18 UNL     1      -1.965  11.193  55.333  1.00  0.00     0.001 C
BRANCH  33  34
HETATM   34  C19 UNL     1      -1.794   9.818  55.857  1.00  0.00     0.011 C
BRANCH  34  35
HETATM   35  C20 UNL     1      -0.654   9.045  55.358  1.00  0.00     0.085 C
HETATM   36 BR1  UNL     1      -0.239   9.435  53.530  1.00  0.00    -0.097 Br
ENDBRANCH  34  35
ENDBRANCH  33  34
ENDBRANCH  32  33
ENDBRANCH  31  32
ENDBRANCH  30  31
ENDBRANCH  18  30
TORSDOF 10
ENDMDL