MODEL 1
REMARK VINA RESULT: -8.185388761      0.000      0.000
REMARK  12 active torsions:
REMARK  status: ('A' for Active; 'I' for Inactive)
REMARK    1  A    between atoms: O1_2  and  C2_3
REMARK    2  A    between atoms: C2_3  and  C3_5
REMARK    3  A    between atoms: C3_5  and  O3_6
REMARK    4  A    between atoms: O3_6  and  C4_7
REMARK    5  A    between atoms: C10_14  and  C11_15
REMARK    6  A    between atoms: C11_15  and  O5_16
REMARK    7  A    between atoms: C11_15  and  C12_18
REMARK    8  A    between atoms: C12_18  and  C14_20
REMARK    9  A    between atoms: C15_22  and  C17_24
REMARK   10  A    between atoms: C22_29  and  O7_30
REMARK   11  A    between atoms: C22_29  and  C23_32
REMARK   12  A    between atoms: C23_32  and  O8_33
ROOT
HETATM    1  C14 UNL     1       1.471  13.175  57.697  1.00  0.00     0.201 C
HETATM    2  O6  UNL     1       1.392  12.284  56.673  1.00  0.00    -0.368 OA
HETATM    3  C15 UNL     1       0.955  12.897  55.536  1.00  0.00     0.070 C
HETATM    4  C16 UNL     1       2.062  13.115  54.517  1.00  0.00     0.047 C
HETATM    5  C25 UNL     1       0.394  14.242  55.905  1.00  0.00     0.120 C
HETATM    6  C26 UNL     1       1.007  14.510  57.257  1.00  0.00     0.272 C
HETATM    7  F1  UNL     1       2.039  15.424  57.167  1.00  0.00    -0.203 F
HETATM    8  F2  UNL     1       0.027  15.064  58.057  1.00  0.00    -0.203 F
ENDROOT
BRANCH   1   9
HETATM    9  C12 UNL     1       2.914  13.194  58.228  1.00  0.00     0.046 C
HETATM   10  C13 UNL     1       2.885  13.793  59.611  1.00  0.00     0.015 C
BRANCH   9  11
HETATM   11  C11 UNL     1       3.363  11.770  58.223  1.00  0.00     0.132 C
BRANCH  11  12
HETATM   12  C10 UNL     1       4.554  11.502  57.314  1.00  0.00     0.040 C
HETATM   13  C9  UNL     1       4.801  10.023  57.328  1.00  0.00    -0.023 C
HETATM   14  C8  UNL     1       5.962   9.355  57.441  1.00  0.00    -0.030 C
HETATM   15  C7  UNL     1       7.328   9.911  57.583  1.00  0.00     0.030 C
HETATM   16  C6  UNL     1       7.482  11.023  56.587  1.00  0.00     0.053 C
HETATM   17  C3  UNL     1       6.909  12.354  57.076  1.00  0.00     0.159 C
HETATM   18  C27 UNL     1       5.742  12.161  57.969  1.00  0.00     0.060 C
BRANCH  17  19
HETATM   19  C2  UNL     1       7.982  13.056  57.853  1.00  0.00     0.294 C
HETATM   20  O2  UNL     1       9.183  13.096  57.495  1.00  0.00    -0.262 OA
BRANCH  19  21
HETATM   21  O1  UNL     1       7.657  13.704  59.028  1.00  0.00    -0.324 OA
HETATM   22  C1  UNL     1       7.754  15.079  59.239  1.00  0.00     0.213 C
ENDBRANCH  19  21
ENDBRANCH  17  19
BRANCH  17  23
HETATM   23  O3  UNL     1       6.528  13.026  55.914  1.00  0.00    -0.300 OA
BRANCH  23  24
HETATM   24  C4  UNL     1       6.434  14.380  55.826  1.00  0.00     0.256 C
HETATM   25  C5  UNL     1       7.431  15.226  55.097  1.00  0.00     0.126 C
HETATM   26  O4  UNL     1       5.483  14.979  56.366  1.00  0.00    -0.266 OA
ENDBRANCH  23  24
ENDBRANCH  17  23
ENDBRANCH  11  12
BRANCH  11  27
HETATM   27  O5  UNL     1       3.684  11.447  59.556  1.00  0.00    -0.394 OA
ATOM     28  H5  UNL     1       3.485  10.535  59.732  1.00  0.00     0.210 HD
ENDBRANCH  11  27
ENDBRANCH   9  11
ENDBRANCH   1   9
BRANCH   3  29
HETATM   29  C17 UNL     1      -0.085  12.020  54.871  1.00  0.00     0.045 C
HETATM   30  C18 UNL     1       0.404  10.660  54.587  1.00  0.00    -0.017 C
HETATM   31  C19 UNL     1      -0.172   9.545  55.009  1.00  0.00    -0.084 C
HETATM   32  C20 UNL     1       0.377   8.201  54.683  1.00  0.00     0.043 C
HETATM   33  C21 UNL     1      -1.417   9.600  55.842  1.00  0.00     0.073 C
HETATM   34  C22 UNL     1      -2.192  10.825  55.354  1.00  0.00     0.083 C
HETATM   35  C24 UNL     1      -1.349  12.038  55.672  1.00  0.00     0.051 C
BRANCH  34  36
HETATM   36  O7  UNL     1      -2.416  10.727  53.993  1.00  0.00    -0.387 OA
ATOM     37  H7  UNL     1      -2.957   9.969  53.808  1.00  0.00     0.210 HD
ENDBRANCH  34  36
BRANCH  34  38
HETATM   38  C23 UNL     1      -3.532  10.904  56.036  1.00  0.00     0.202 C
BRANCH  38  39
HETATM   39  O8  UNL     1      -3.551  12.052  56.820  1.00  0.00    -0.398 OA
ATOM     40  H8  UNL     1      -3.962  11.838  57.649  1.00  0.00     0.209 HD
ENDBRANCH  38  39
ENDBRANCH  34  38
ENDBRANCH   3  29
TORSDOF 12
ENDMDL