MODEL 4
REMARK VINA RESULT: -6.969823524      3.422      6.033
REMARK  8 active torsions:
REMARK  status: ('A' for Active; 'I' for Inactive)
REMARK    1  A    between atoms: C2_2  and  C3_3
REMARK    2  A    between atoms: C3_3  and  O1_4
REMARK    3  A    between atoms: O1_4  and  C4_5
REMARK    4  A    between atoms: C13_21  and  O3_22
REMARK    5  A    between atoms: C17_29  and  O4_30
REMARK    6  A    between atoms: O4_30  and  C18_31
REMARK    7  A    between atoms: C18_31  and  C19_32
REMARK    8  A    between atoms: C19_32  and  O5_33
ROOT
HETATM    1  C4  UNL     1       0.603  14.775  57.630  1.00  0.00     0.119 A
HETATM    2  C5  UNL     1      -0.177  13.911  56.891  1.00  0.00     0.091 A
HETATM    3 CL1  UNL     1      -1.874  13.632  57.330  1.00  0.00    -0.079 Cl
HETATM    4  C6  UNL     1       0.364  13.261  55.805  1.00  0.00     0.059 A
HETATM    5 CL2  UNL     1      -0.643  12.164  54.877  1.00  0.00    -0.082 Cl
HETATM    6  C7  UNL     1       1.662  13.491  55.488  1.00  0.00     0.035 A
HETATM    7  C8  UNL     1       2.456  14.362  56.230  1.00  0.00    -0.018 A
HETATM    8  C9  UNL     1       1.947  15.026  57.322  1.00  0.00     0.077 A
HETATM    9  N1  UNL     1       2.649  15.921  58.171  1.00  0.00    -0.323 N
ATOM     10  H1  UNL     1       2.217  16.832  58.327  1.00  0.00     0.169 HD
HETATM   11  C10 UNL     1       3.887  15.689  58.828  1.00  0.00     0.244 C
HETATM   12  O2  UNL     1       4.826  16.527  58.594  1.00  0.00    -0.271 OA
HETATM   13  C11 UNL     1       4.217  14.600  59.750  1.00  0.00     0.172 C
HETATM   14  C12 UNL     1       4.946  15.215  60.971  1.00  0.00     0.042 C
HETATM   15  N2  UNL     1       4.932  13.486  59.197  1.00  0.00    -0.356 N
ATOM     16  H2  UNL     1       4.345  12.685  58.966  1.00  0.00     0.162 HD
HETATM   17  C13 UNL     1       6.290  13.299  58.919  1.00  0.00     0.168 C
HETATM   18  C14 UNL     1       7.133  14.020  57.965  1.00  0.00     0.128 A
HETATM   19  N3  UNL     1       8.139  14.772  58.506  1.00  0.00    -0.350 N
ATOM     20  H3  UNL     1       8.226  14.791  59.522  1.00  0.00     0.166 HD
HETATM   21  C15 UNL     1       9.013  15.482  57.796  1.00  0.00     0.057 A
HETATM   22  C16 UNL     1      10.088  16.283  58.429  1.00  0.00     0.072 C
HETATM   23  C17 UNL     1       8.926  15.483  56.423  1.00  0.00     0.166 A
HETATM   24  N4  UNL     1       7.956  14.760  55.860  1.00  0.00    -0.319 N
ATOM     25  H4  UNL     1       7.884  14.754  54.843  1.00  0.00     0.169 HD
HETATM   26  C21 UNL     1       7.043  14.018  56.589  1.00  0.00     0.141 A
HETATM   27  N5  UNL     1       6.081  13.278  55.833  1.00  0.00    -0.311 N
ATOM     28  H5  UNL     1       6.475  12.611  55.169  1.00  0.00     0.170 HD
HETATM   29  C22 UNL     1       4.684  13.329  55.861  1.00  0.00     0.227 C
HETATM   30  O6  UNL     1       4.046  12.230  56.028  1.00  0.00    -0.273 OA
HETATM   31  C23 UNL     1       3.840  14.531  55.718  1.00  0.00     0.144 C
ENDROOT
BRANCH  23  32
HETATM   32  O4  UNL     1       9.793  16.194  55.620  1.00  0.00    -0.332 OA
BRANCH  32  33
HETATM   33  C18 UNL     1      10.106  15.955  54.290  1.00  0.00     0.203 C
BRANCH  33  34
HETATM   34  C19 UNL     1       9.539  16.947  53.307  1.00  0.00     0.193 C
BRANCH  34  35
HETATM   35  O5  UNL     1       8.220  17.212  53.572  1.00  0.00    -0.394 OA
HETATM   36  C20 UNL     1       7.969  18.558  53.640  1.00  0.00     0.201 C
ENDBRANCH  34  35
ENDBRANCH  33  34
ENDBRANCH  32  33
ENDBRANCH  23  32
BRANCH  17  37
HETATM   37  O3  UNL     1       6.882  12.349  59.607  1.00  0.00    -0.344 OA
ATOM     38  H3  UNL     1       7.576  11.888  59.152  1.00  0.00     0.219 HD
ENDBRANCH  17  37
BRANCH   1  39
HETATM   39  O1  UNL     1      -0.047  15.383  58.706  1.00  0.00    -0.347 OA
BRANCH  39  40
HETATM   40  C3  UNL     1       0.032  14.999  60.037  1.00  0.00     0.175 C
BRANCH  40  41
HETATM   41  C2  UNL     1       0.346  16.228  60.886  1.00  0.00     0.022 C
HETATM   42  C1  UNL     1       1.382  15.957  61.924  1.00  0.00     0.007 C
ENDBRANCH  40  41
ENDBRANCH  39  40
ENDBRANCH   1  39
TORSDOF 8
ENDMDL