MODEL 3
REMARK VINA RESULT: -8.638554715      1.145      1.378
REMARK  8 active torsions:
REMARK  status: ('A' for Active; 'I' for Inactive)
REMARK    1  A    between atoms: C6_6  and  O1_7
REMARK    2  A    between atoms: O1_7  and  N1_8
REMARK    3  A    between atoms: N1_8  and  C7_9
REMARK    4  A    between atoms: C7_9  and  C8_10
REMARK    5  A    between atoms: C12_16  and  N2_17
REMARK       I    between atoms: N2_17  and  C13_19
REMARK    6  A    between atoms: C13_19  and  C14_21
REMARK    7  A    between atoms: C14_21  and  C15_22
REMARK    8  A    between atoms: C21_30  and  O3_31
ROOT
HETATM    1  C7  UNL     1       2.325   0.980  47.259  1.00  0.00     0.149 C
ENDROOT
BRANCH   1   2
HETATM    2  N1  UNL     1       2.568   2.086  48.153  1.00  0.00    -0.100 NA
BRANCH   2   3
HETATM    3  O1  UNL     1       2.451   3.239  47.619  1.00  0.00    -0.275 OA
BRANCH   3   4
HETATM    4  C6  UNL     1       3.429   4.138  47.440  1.00  0.00     0.213 C
HETATM    5  C4  UNL     1       3.938   4.196  45.998  1.00  0.00     0.020 C
HETATM    6  C3  UNL     1       3.360   5.289  45.187  1.00  0.00     0.038 C
HETATM    7  C5  UNL     1       5.439   4.355  46.067  1.00  0.00     0.013 C
HETATM    8  C2  UNL     1       2.157   5.983  45.704  1.00  0.00     0.121 C
HETATM    9  C1  UNL     1       0.935   5.810  44.790  1.00  0.00     0.040 C
HETATM   10  O5  UNL     1       1.735   5.647  46.967  1.00  0.00    -0.347 OA
HETATM   11  C19 UNL     1       2.870   5.527  47.776  1.00  0.00     0.195 C
HETATM   12  C20 UNL     1       2.451   5.644  49.199  1.00  0.00     0.103 C
HETATM   13  O4  UNL     1       3.759   6.523  47.383  1.00  0.00    -0.352 OA
HETATM   14  C21 UNL     1       2.221   7.094  49.554  1.00  0.00     0.129 C
HETATM   15  C22 UNL     1       3.511   7.833  49.388  1.00  0.00     0.034 C
HETATM   16  C23 UNL     1       3.270   9.265  48.956  1.00  0.00     0.015 C
HETATM   17  C24 UNL     1       4.417   7.089  48.470  1.00  0.00     0.178 C
BRANCH  14  18
HETATM   18  O3  UNL     1       1.758   7.204  50.886  1.00  0.00    -0.395 OA
ATOM     19  H3  UNL     1       2.241   6.614  51.452  1.00  0.00     0.210 HD
ENDBRANCH  14  18
ENDBRANCH   3   4
ENDBRANCH   2   3
ENDBRANCH   1   2
BRANCH   1  20
HETATM   20  C8  UNL     1       1.174   0.108  47.816  1.00  0.00     0.027 C
HETATM   21  C9  UNL     1       0.757  -0.851  46.799  1.00  0.00     0.019 C
HETATM   22  C10 UNL     1       1.762  -1.290  45.782  1.00  0.00     0.086 C
HETATM   23  S1  UNL     1       2.698  -2.696  46.505  1.00  0.00    -0.098 SA
HETATM   24  S2  UNL     1       3.571  -1.912  48.300  1.00  0.00    -0.096 SA
HETATM   25  C11 UNL     1       2.199  -1.585  49.431  1.00  0.00     0.111 C
HETATM   26  C12 UNL     1       1.449  -0.339  49.202  1.00  0.00     0.099 C
BRANCH  26  27
HETATM   27  N2  UNL     1       0.223  -0.453  49.993  1.00  0.00    -0.355 N
HETATM   28  C13 UNL     1      -0.367   0.663  50.632  1.00  0.00     0.218 C
HETATM   29  O2  UNL     1       0.197   1.789  50.486  1.00  0.00    -0.274 OA
ATOM     30  H2  UNL     1      -0.220  -1.367  50.088  1.00  0.00     0.162 HD
BRANCH  28  31
HETATM   31  C14 UNL     1      -1.583   0.600  51.451  1.00  0.00     0.108 C
BRANCH  31  32
HETATM   32  C15 UNL     1      -1.232   0.688  52.918  1.00  0.00     0.005 A
HETATM   33  C16 UNL     1      -2.376   0.433  53.861  1.00  0.00     0.084 A
HETATM   34  C17 UNL     1      -1.667  -0.793  54.369  1.00  0.00     0.244 A
HETATM   35  F1  UNL     1      -1.439  -0.727  55.740  1.00  0.00    -0.206 F
HETATM   36  F2  UNL     1      -2.293  -1.985  54.047  1.00  0.00    -0.206 F
HETATM   37  C18 UNL     1      -0.479  -0.453  53.512  1.00  0.00     0.084 A
ENDBRANCH  31  32
ENDBRANCH  28  31
ENDBRANCH  26  27
ENDBRANCH   1  20
TORSDOF 8
ENDMDL