MODEL 5
REMARK VINA RESULT: -7.819073095      3.330      8.114
REMARK  12 active torsions:
REMARK  status: ('A' for Active; 'I' for Inactive)
REMARK    1  A    between atoms: O1_2  and  C2_3
REMARK    2  A    between atoms: C4_5  and  C5_6
REMARK    3  A    between atoms: C6_9  and  N2_10
REMARK    4  A    between atoms: N2_10  and  C7_12
REMARK    5  A    between atoms: C7_12  and  C9_14
REMARK    6  A    between atoms: C15_24  and  C16_25
REMARK    7  A    between atoms: C17_26  and  C18_27
REMARK    8  A    between atoms: C18_27  and  O2_28
REMARK    9  A    between atoms: C18_27  and  C19_30
REMARK   10  A    between atoms: C19_30  and  O3_31
REMARK   11  A    between atoms: C22_37  and  O4_38
REMARK   12  A    between atoms: C24_40  and  O5_41
ROOT
HETATM    1  C5  UNL     1       3.106  10.861  56.565  1.00  0.00     0.117 A
HETATM    2  N1  UNL     1       3.746  12.008  56.789  1.00  0.00    -0.327 N
ATOM      3  H1  UNL     1       3.270  12.889  56.597  1.00  0.00     0.169 HD
HETATM    4  C6  UNL     1       4.997  12.034  57.261  1.00  0.00     0.123 A
HETATM    5  C15 UNL     1       5.639  10.825  57.520  1.00  0.00     0.077 A
HETATM    6  C20 UNL     1       4.969   9.646  57.285  1.00  0.00     0.114 A
HETATM    7  N4  UNL     1       3.708   9.693  56.809  1.00  0.00    -0.350 N
ATOM      8  H4  UNL     1       3.207   8.823  56.631  1.00  0.00     0.166 HD
ENDROOT
BRANCH   4   9
HETATM    9  N2  UNL     1       5.670  13.108  57.500  1.00  0.00    -0.367 N
ATOM     10  H2  UNL     1       6.662  13.070  57.735  1.00  0.00     0.161 HD
BRANCH   9  11
HETATM   11  C7  UNL     1       4.962  14.373  57.421  1.00  0.00     0.115 C
HETATM   12  C8  UNL     1       5.873  15.376  56.821  1.00  0.00     0.037 C
BRANCH  11  13
HETATM   13  C9  UNL     1       4.402  14.678  58.714  1.00  0.00     0.004 A
HETATM   14  C10 UNL     1       5.143  14.620  59.869  1.00  0.00     0.038 A
HETATM   15  C11 UNL     1       4.589  14.917  61.112  1.00  0.00     0.057 A
HETATM   16 CL1  UNL     1       5.589  14.823  62.549  1.00  0.00    -0.082 Cl
HETATM   17  C12 UNL     1       3.263  15.279  61.183  1.00  0.00     0.028 A
HETATM   18  C13 UNL     1       2.698  15.591  62.519  1.00  0.00     0.070 C
HETATM   19  N3  UNL     1       2.538  15.336  60.052  1.00  0.00    -0.349 N
HETATM   20  C14 UNL     1       3.082  15.044  58.831  1.00  0.00     0.112 A
ATOM     21  H3  UNL     1       1.556  15.604  60.105  1.00  0.00     0.166 HD
HETATM   22 CL2  UNL     1       2.013  15.162  57.452  1.00  0.00    -0.064 Cl
ENDBRANCH  11  13
ENDBRANCH   9  11
ENDBRANCH   4   9
BRANCH   5  23
HETATM   23  C16 UNL     1       6.984  10.820  58.026  1.00  0.00    -0.059 C
HETATM   24  C17 UNL     1       8.107  10.823  58.471  1.00  0.00    -0.067 C
BRANCH  24  25
HETATM   25  C18 UNL     1       9.480  10.808  59.016  1.00  0.00     0.220 C
BRANCH  25  26
HETATM   26  O2  UNL     1       9.621  11.962  59.766  1.00  0.00    -0.381 OA
ATOM     27  H2  UNL     1      10.504  12.279  59.614  1.00  0.00     0.211 HD
ENDBRANCH  25  26
BRANCH  25  28
HETATM   28  C19 UNL     1       9.713   9.580  59.864  1.00  0.00     0.208 C
BRANCH  28  29
HETATM   29  O3  UNL     1       8.773   9.599  60.885  1.00  0.00    -0.397 OA
ATOM     30  H3  UNL     1       8.288   8.783  60.838  1.00  0.00     0.209 HD
ENDBRANCH  28  29
ENDBRANCH  25  28
ENDBRANCH  24  25
ENDBRANCH   5  23
BRANCH   1  31
HETATM   31  C4  UNL     1       1.731  10.934  56.045  1.00  0.00     0.013 A
HETATM   32  C3  UNL     1       1.197   9.808  55.425  1.00  0.00     0.055 A
HETATM   33  C2  UNL     1      -0.074   9.751  54.901  1.00  0.00     0.105 A
HETATM   34  C24 UNL     1      -0.836  10.892  55.009  1.00  0.00     0.135 A
HETATM   35  C22 UNL     1      -0.341  12.043  55.622  1.00  0.00     0.105 A
HETATM   36  C21 UNL     1       0.946  12.055  56.137  1.00  0.00     0.055 A
BRANCH  33  37
HETATM   37  O1  UNL     1      -0.584   8.616  54.287  1.00  0.00    -0.353 OA
HETATM   38  C1  UNL     1       0.266   7.488  54.198  1.00  0.00     0.210 C
ENDBRANCH  33  37
BRANCH  34  39
HETATM   39  O5  UNL     1      -2.121  10.898  54.501  1.00  0.00    -0.351 OA
HETATM   40  C25 UNL     1      -3.197  10.512  55.323  1.00  0.00     0.210 C
ENDBRANCH  34  39
BRANCH  35  41
HETATM   41  O4  UNL     1      -1.141  13.172  55.712  1.00  0.00    -0.353 OA
HETATM   42  C23 UNL     1      -1.669  13.599  56.935  1.00  0.00     0.210 C
ENDBRANCH  35  41
ENDBRANCH   1  31
TORSDOF 12
ENDMDL