MODEL 5
REMARK VINA RESULT: -6.310791725      1.728      3.201
REMARK  8 active torsions:
REMARK  status: ('A' for Active; 'I' for Inactive)
REMARK    1  A    between atoms: O1_2  and  C2_3
REMARK    2  A    between atoms: C4_6  and  C5_7
REMARK    3  A    between atoms: C5_7  and  N1_8
REMARK    4  A    between atoms: N1_8  and  C6_10
REMARK    5  A    between atoms: C7_13  and  O2_14
REMARK    6  A    between atoms: C13_23  and  N5_24
REMARK    7  A    between atoms: C15_29  and  O3_30
REMARK    8  A    between atoms: C17_32  and  O4_33
ROOT
HETATM    1  C6  UNL     1       2.649  15.023  57.472  1.00  0.00     0.148 A
HETATM    2  N2  UNL     1       1.435  14.756  56.999  1.00  0.00    -0.317 N
ATOM      3  H2  UNL     1       1.350  14.467  56.025  1.00  0.00     0.169 HD
HETATM    4  C7  UNL     1       0.310  14.845  57.741  1.00  0.00     0.189 A
HETATM    5  C9  UNL     1       0.461  15.237  59.063  1.00  0.00     0.166 A
HETATM    6  N3  UNL     1      -0.460  15.372  60.052  1.00  0.00    -0.346 N
ATOM      7  H3  UNL     1      -1.466  15.229  59.969  1.00  0.00     0.167 HD
HETATM    8  C10 UNL     1       0.212  15.732  61.163  1.00  0.00     0.115 A
HETATM    9  C11 UNL     1       1.567  15.831  60.881  1.00  0.00     0.032 A
HETATM   10  C12 UNL     1       2.627  16.190  61.864  1.00  0.00     0.070 C
HETATM   11  N4  UNL     1       1.659  15.521  59.586  1.00  0.00    -0.280 N
HETATM   12  C13 UNL     1       2.775  15.417  58.787  1.00  0.00     0.152 A
ENDROOT
BRANCH   1  13
HETATM   13  N1  UNL     1       3.815  14.948  56.628  1.00  0.00    -0.369 N
ATOM     14  H1  UNL     1       4.601  15.584  56.761  1.00  0.00     0.161 HD
BRANCH  13  15
HETATM   15  C5  UNL     1       3.836  13.938  55.582  1.00  0.00     0.162 C
BRANCH  15  16
HETATM   16  C4  UNL     1       4.554  12.732  56.125  1.00  0.00    -0.000 A
HETATM   17  C3  UNL     1       5.944  12.889  56.274  1.00  0.00     0.056 A
HETATM   18  C2  UNL     1       6.758  11.962  56.838  1.00  0.00     0.122 A
HETATM   19 BR1  UNL     1       6.763  14.515  55.617  1.00  0.00    -0.047 Br
HETATM   20  C17 UNL     1       6.120  10.800  57.292  1.00  0.00     0.138 A
HETATM   21  C15 UNL     1       4.768  10.589  57.179  1.00  0.00     0.122 A
HETATM   22  C14 UNL     1       3.981  11.593  56.574  1.00  0.00     0.056 A
HETATM   23 BR2  UNL     1       2.120  11.352  56.409  1.00  0.00    -0.047 Br
BRANCH  18  24
HETATM   24  O1  UNL     1       8.093  12.183  56.924  1.00  0.00    -0.352 OA
HETATM   25  C1  UNL     1       8.959  12.587  57.894  1.00  0.00     0.210 C
ENDBRANCH  18  24
BRANCH  20  26
HETATM   26  O4  UNL     1       6.966   9.832  57.881  1.00  0.00    -0.351 OA
HETATM   27  C18 UNL     1       7.483   8.812  57.042  1.00  0.00     0.210 C
ENDBRANCH  20  26
BRANCH  21  28
HETATM   28  O3  UNL     1       4.165   9.487  57.626  1.00  0.00    -0.352 OA
HETATM   29  C16 UNL     1       3.792   8.269  57.160  1.00  0.00     0.210 C
ENDBRANCH  21  28
ENDBRANCH  15  16
ENDBRANCH  13  15
ENDBRANCH   1  13
BRANCH  12  30
HETATM   30  N5  UNL     1       3.927  15.664  59.296  1.00  0.00    -0.382 N
ATOM     31  H52 UNL     1       4.737  15.147  58.954  1.00  0.00     0.157 HD
ATOM     32  H51 UNL     1       4.043  16.379  60.015  1.00  0.00     0.157 HD
ENDBRANCH  12  30
BRANCH   4  33
HETATM   33  O2  UNL     1      -0.946  14.566  57.237  1.00  0.00    -0.338 OA
HETATM   34  C8  UNL     1      -1.162  13.201  56.829  1.00  0.00     0.211 C
ENDBRANCH   4  33
TORSDOF 8
ENDMDL