MODEL 5
REMARK VINA RESULT: -7.227756071      2.415      5.961
REMARK  11 active torsions:
REMARK  status: ('A' for Active; 'I' for Inactive)
REMARK    1  A    between atoms: N1_1  and  C1_4
REMARK    2  A    between atoms: N5_15  and  C5_16
REMARK    3  A    between atoms: C5_16  and  C6_17
REMARK    4  A    between atoms: C6_17  and  O1_18
REMARK    5  A    between atoms: C6_17  and  C7_20
REMARK    6  A    between atoms: C7_20  and  O2_21
REMARK    7  A    between atoms: C7_20  and  C8_23
REMARK    8  A    between atoms: C8_23  and  O3_24
REMARK    9  A    between atoms: C8_23  and  C9_26
REMARK   10  A    between atoms: C8_23  and  N7_31
REMARK   11  A    between atoms: C9_26  and  N6_27
ROOT
HETATM    1  C6  UNL     1      26.515 -14.338  45.992  1.00  0.00     0.170 C
ENDROOT
BRANCH   1   2
HETATM    2  C5  UNL     1      26.919 -14.519  44.548  1.00  0.00     0.166 C
BRANCH   2   3
HETATM    3  N5  UNL     1      26.711 -15.914  44.160  1.00  0.00    -0.324 N
HETATM    4  C4  UNL     1      27.413 -16.951  44.707  1.00  0.00     0.185 A
HETATM    5  N4  UNL     1      26.998 -18.087  44.126  1.00  0.00    -0.346 N
HETATM    6  C3  UNL     1      26.051 -17.785  43.227  1.00  0.00     0.123 A
ATOM      7  H4  UNL     1      27.344 -19.023  44.334  1.00  0.00     0.167 HD
HETATM    8  C2  UNL     1      25.275 -18.523  42.350  1.00  0.00     0.145 A
HETATM    9  C12 UNL     1      25.873 -16.415  43.251  1.00  0.00     0.155 A
HETATM   10  N2  UNL     1      24.380 -17.907  41.554  1.00  0.00    -0.175 N
HETATM   11  N3  UNL     1      25.411 -19.794  42.300  1.00  0.00    -0.383 N
HETATM   12  C1  UNL     1      24.207 -16.581  41.578  1.00  0.00     0.679 A
ATOM     13  H2  UNL     1      23.818 -18.469  40.914  1.00  0.00     0.186 HD
HETATM   14  N10 UNL     1      24.973 -15.868  42.441  1.00  0.00    -0.174 N
ATOM     15  H10 UNL     1      24.852 -14.855  42.470  1.00  0.00     0.186 HD
ATOM     16  H32 UNL     1      24.840 -20.337  41.654  1.00  0.00     0.157 HD
ATOM     17  H31 UNL     1      26.089 -20.260  42.903  1.00  0.00     0.157 HD
BRANCH  12  18
HETATM   18  N1  UNL     1      23.337 -16.014  40.799  1.00  0.00    -0.234 N
ATOM     19  H12 UNL     1      22.776 -16.548  40.136  1.00  0.00     0.174 HD
ATOM     20  H11 UNL     1      23.191 -15.006  40.832  1.00  0.00     0.174 HD
ENDBRANCH  12  18
ENDBRANCH   2   3
ENDBRANCH   1   2
BRANCH   1  21
HETATM   21  O1  UNL     1      27.404 -13.344  46.489  1.00  0.00    -0.391 OA
ATOM     22  H1  UNL     1      26.930 -12.936  47.203  1.00  0.00     0.210 HD
ENDBRANCH   1  21
BRANCH   1  23
HETATM   23  C7  UNL     1      25.151 -13.749  46.149  1.00  0.00     0.207 C
BRANCH  23  24
HETATM   24  O2  UNL     1      24.614 -13.572  44.868  1.00  0.00    -0.388 OA
ATOM     25  H2  UNL     1      23.725 -13.252  44.969  1.00  0.00     0.210 HD
ENDBRANCH  23  24
BRANCH  23  26
HETATM   26  C8  UNL     1      24.171 -14.491  46.965  1.00  0.00     0.208 C
BRANCH  26  27
HETATM   27  O3  UNL     1      23.075 -13.721  47.294  1.00  0.00    -0.365 OA
ATOM     28  H3  UNL     1      22.571 -14.097  48.006  1.00  0.00     0.212 HD
ENDBRANCH  26  27
BRANCH  26  29
HETATM   29  C9  UNL     1      24.876 -14.802  48.298  1.00  0.00     0.295 C
BRANCH  29  30
HETATM   30  N6  UNL     1      23.930 -15.048  49.341  1.00  0.00    -0.075 N
ATOM     31  H63 UNL     1      22.972 -14.909  49.017  1.00  0.00     0.274 HD
ATOM     32  H62 UNL     1      23.875 -16.040  49.570  1.00  0.00     0.274 HD
ATOM     33  H61 UNL     1      24.132 -14.483  50.165  1.00  0.00     0.274 HD
ENDBRANCH  29  30
ENDBRANCH  26  29
BRANCH  26  34
HETATM   34  N7  UNL     1      23.748 -15.762  46.340  1.00  0.00    -0.209 N
HETATM   35  N8  UNL     1      24.351 -16.868  46.589  1.00  0.00    -0.274 N
HETATM   36  C10 UNL     1      23.953 -17.987  46.021  1.00  0.00     0.178 A
ATOM     37  H8  UNL     1      25.143 -16.879  47.232  1.00  0.00     0.189 HD
HETATM   38  N9  UNL     1      24.534 -19.288  46.210  1.00  0.00    -0.073 NA
HETATM   39  S1  UNL     1      22.643 -17.445  45.073  1.00  0.00     0.007 SA
HETATM   40  C11 UNL     1      22.716 -15.792  45.494  1.00  0.00     0.310 A
HETATM   41  O4  UNL     1      21.984 -14.808  45.113  1.00  0.00    -0.258 OA
ENDBRANCH  26  34
ENDBRANCH  23  26
ENDBRANCH   1  23
TORSDOF 11
ENDMDL