MODEL 4
REMARK VINA RESULT: -6.676190192      2.364      6.535
REMARK  13 active torsions:
REMARK  status: ('A' for Active; 'I' for Inactive)
REMARK    1  A    between atoms: C2_3  and  N2_4
REMARK    2  A    between atoms: N2_4  and  C3_6
REMARK    3  A    between atoms: N6_13  and  N7_14
REMARK    4  A    between atoms: C5_17  and  N8_18
REMARK    5  A    between atoms: N8_18  and  C6_20
REMARK    6  A    between atoms: C6_20  and  O1_21
REMARK    7  A    between atoms: C6_20  and  O2_23
REMARK    8  A    between atoms: C7_25  and  N9_26
REMARK    9  A    between atoms: N9_26  and  C8_28
REMARK   10  A    between atoms: C8_28  and  N10_29
REMARK   11  A    between atoms: C8_28  and  C9_33
REMARK   12  A    between atoms: C9_33  and  C10_34
REMARK   13  A    between atoms: C10_34  and  O3_37
ROOT
HETATM    1  C1  UNL     1      27.976 -13.926  46.694  1.00  0.00     0.163 C
HETATM    2  N1  UNL     1      27.463 -15.054  45.893  1.00  0.00    -0.288 N
HETATM    3  C2  UNL     1      26.914 -16.153  46.410  1.00  0.00     0.143 A
HETATM    4  C5  UNL     1      26.603 -17.274  45.626  1.00  0.00     0.121 A
HETATM    5  C7  UNL     1      26.859 -17.232  44.269  1.00  0.00     0.137 A
HETATM    6  N11 UNL     1      27.422 -16.065  43.788  1.00  0.00    -0.292 N
ATOM      7  H11 UNL     1      27.626 -15.999  42.790  1.00  0.00     0.172 HD
HETATM    8  C13 UNL     1      27.711 -15.028  44.562  1.00  0.00     0.329 A
HETATM    9  O4  UNL     1      28.232 -13.966  44.090  1.00  0.00    -0.246 OA
ENDROOT
BRANCH   3  10
HETATM   10  N2  UNL     1      26.393 -16.138  47.713  1.00  0.00    -0.321 N
ATOM     11  H2  UNL     1      25.561 -15.561  47.833  1.00  0.00     0.169 HD
BRANCH  10  12
HETATM   12  C3  UNL     1      26.834 -16.792  48.885  1.00  0.00     0.190 A
HETATM   13  C4  UNL     1      25.914 -17.250  49.855  1.00  0.00     0.180 A
HETATM   14  N3  UNL     1      24.502 -17.238  49.741  1.00  0.00    -0.077 NA
HETATM   15  N4  UNL     1      26.669 -17.682  50.873  1.00  0.00    -0.268 N
HETATM   16  N5  UNL     1      27.939 -17.522  50.597  1.00  0.00    -0.219 N
ATOM     17  H4  UNL     1      26.307 -18.079  51.741  1.00  0.00     0.190 HD
HETATM   18  N6  UNL     1      28.059 -16.976  49.385  1.00  0.00    -0.168 N
ATOM     19  H5  UNL     1      28.713 -17.775  51.211  1.00  0.00     0.210 HD
BRANCH  18  20
HETATM   20  N7  UNL     1      29.280 -16.572  48.810  1.00  0.00    -0.321 N
ATOM     21  H72 UNL     1      29.458 -15.644  48.425  1.00  0.00     0.179 HD
ATOM     22  H71 UNL     1      30.097 -17.155  48.630  1.00  0.00     0.179 HD
ENDBRANCH  18  20
ENDBRANCH  10  12
ENDBRANCH   3  10
BRANCH   4  23
HETATM   23  N8  UNL     1      26.100 -18.494  46.213  1.00  0.00    -0.336 N
ATOM     24  H8  UNL     1      26.739 -19.164  46.643  1.00  0.00     0.164 HD
BRANCH  23  25
HETATM   25  C6  UNL     1      24.688 -18.749  46.181  1.00  0.00     0.366 C
BRANCH  25  26
HETATM   26  O1  UNL     1      24.321 -20.081  46.378  1.00  0.00    -0.355 OA
ATOM     27  H1  UNL     1      23.579 -20.213  46.957  1.00  0.00     0.214 HD
ENDBRANCH  25  26
BRANCH  25  28
HETATM   28  O2  UNL     1      23.868 -17.978  46.965  1.00  0.00    -0.355 OA
ATOM     29  H2  UNL     1      22.931 -18.019  46.815  1.00  0.00     0.214 HD
ENDBRANCH  25  28
ENDBRANCH  23  25
ENDBRANCH   4  23
BRANCH   5  30
HETATM   30  N9  UNL     1      26.540 -18.097  43.452  1.00  0.00    -0.347 N
ATOM     31  H9  UNL     1      27.152 -18.884  43.663  1.00  0.00     0.163 HD
BRANCH  30  32
HETATM   32  C8  UNL     1      25.782 -18.527  42.414  1.00  0.00     0.285 C
BRANCH  32  33
HETATM   33  N10 UNL     1      25.514 -19.961  42.517  1.00  0.00    -0.058 N
ATOM     34 3H10 UNL     1      25.788 -20.457  41.669  1.00  0.00     0.276 HD
ATOM     35 2H10 UNL     1      26.147 -20.416  43.175  1.00  0.00     0.276 HD
ATOM     36 1H10 UNL     1      24.537 -20.135  42.754  1.00  0.00     0.276 HD
ENDBRANCH  32  33
BRANCH  32  37
HETATM   37  C9  UNL     1      24.439 -17.769  42.360  1.00  0.00     0.091 C
BRANCH  37  38
HETATM   38  C10 UNL     1      24.438 -16.671  41.351  1.00  0.00     0.054 C
HETATM   39  C11 UNL     1      23.101 -16.300  40.794  1.00  0.00     0.045 C
HETATM   40  C12 UNL     1      25.348 -17.013  40.161  1.00  0.00     0.045 C
BRANCH  38  41
HETATM   41  O3  UNL     1      24.967 -15.509  41.964  1.00  0.00    -0.391 OA
ATOM     42  H3  UNL     1      25.461 -15.029  41.310  1.00  0.00     0.210 HD
ENDBRANCH  38  41
ENDBRANCH  37  38
ENDBRANCH  32  37
ENDBRANCH  30  32
ENDBRANCH   5  30
TORSDOF 13
ENDMDL