MODEL 4
REMARK VINA RESULT: -6.461725687      2.801      4.296
REMARK  11 active torsions:
REMARK  status: ('A' for Active; 'I' for Inactive)
REMARK    1  A    between atoms: C3_8  and  N4_9
REMARK       I    between atoms: N4_9  and  C4_11
REMARK       I    between atoms: C4_11  and  N5_12
REMARK       I    between atoms: C4_11  and  N6_16
REMARK    2  A    between atoms: C5_20  and  N7_21
REMARK    3  A    between atoms: N7_21  and  C6_23
REMARK    4  A    between atoms: C6_23  and  C7_24
REMARK    5  A    between atoms: C8_29  and  S1_30
REMARK    6  A    between atoms: S1_30  and  C9_31
REMARK    7  A    between atoms: C9_31  and  C10_32
REMARK    8  A    between atoms: C11_35  and  O1_36
REMARK    9  A    between atoms: C11_35  and  C12_38
REMARK   10  A    between atoms: C12_38  and  O2_39
REMARK   11  A    between atoms: N11_41  and  N12_42
ROOT
HETATM    1  N7  UNL     1      25.356 -16.557  45.580  1.00  0.00    -0.377 N
ATOM      2  H7  UNL     1      24.852 -16.738  46.447  1.00  0.00     0.160 HD
ENDROOT
BRANCH   1   3
HETATM    3  C5  UNL     1      24.608 -16.070  44.499  1.00  0.00     0.114 A
HETATM    4  C1  UNL     1      24.198 -14.743  44.544  1.00  0.00     0.147 A
HETATM    5  N1  UNL     1      24.505 -13.891  45.639  1.00  0.00    -0.080 NA
HETATM    6  N2  UNL     1      23.491 -14.266  43.510  1.00  0.00    -0.339 N
HETATM    7  C2  UNL     1      23.166 -15.015  42.446  1.00  0.00     0.183 A
ATOM      8  H2  UNL     1      23.187 -13.293  43.535  1.00  0.00     0.167 HD
HETATM    9  N3  UNL     1      23.547 -16.300  42.373  1.00  0.00    -0.337 N
HETATM   10  C3  UNL     1      24.259 -16.822  43.386  1.00  0.00     0.135 A
ATOM     11  H3  UNL     1      23.300 -16.870  41.563  1.00  0.00     0.168 HD
BRANCH  10  12
HETATM   12  N4  UNL     1      24.637 -18.061  43.315  1.00  0.00    -0.325 N
HETATM   13  C4  UNL     1      25.345 -18.573  42.187  1.00  0.00     0.481 C
HETATM   14  N5  UNL     1      25.358 -20.041  42.338  1.00  0.00    -0.033 N
HETATM   15  N6  UNL     1      26.739 -18.169  42.136  1.00  0.00    -0.033 N
ATOM     16  H53 UNL     1      25.740 -20.353  43.231  1.00  0.00     0.278 HD
ATOM     17  H52 UNL     1      24.429 -20.445  42.450  1.00  0.00     0.278 HD
ATOM     18  H51 UNL     1      25.864 -20.407  41.532  1.00  0.00     0.278 HD
ATOM     19  H63 UNL     1      26.820 -17.153  42.180  1.00  0.00     0.278 HD
ATOM     20  H62 UNL     1      27.216 -18.416  43.003  1.00  0.00     0.278 HD
ATOM     21  H61 UNL     1      27.244 -18.535  41.330  1.00  0.00     0.278 HD
ATOM     22  H4  UNL     1      24.422 -18.689  44.089  1.00  0.00     0.165 HD
ENDBRANCH  10  12
ENDBRANCH   1   3
BRANCH   1  23
HETATM   23  C6  UNL     1      26.768 -16.824  45.578  1.00  0.00     0.199 C
BRANCH  23  24
HETATM   24  C7  UNL     1      27.624 -15.655  45.875  1.00  0.00     0.137 A
HETATM   25  N8  UNL     1      27.289 -14.503  46.462  1.00  0.00    -0.284 N
HETATM   26  N9  UNL     1      28.348 -13.704  46.553  1.00  0.00    -0.277 N
ATOM     27  H8  UNL     1      26.354 -14.269  46.792  1.00  0.00     0.188 HD
HETATM   28  C8  UNL     1      29.371 -14.359  46.016  1.00  0.00     0.186 A
ATOM     29  H9  UNL     1      28.371 -12.768  46.958  1.00  0.00     0.189 HD
HETATM   30  N11 UNL     1      28.934 -15.567  45.593  1.00  0.00    -0.223 N
BRANCH  28  31
HETATM   31  S1  UNL     1      31.030 -13.758  45.874  1.00  0.00    -0.060 SA
BRANCH  31  32
HETATM   32  C9  UNL     1      31.312 -12.893  44.355  1.00  0.00     0.083 C
BRANCH  32  33
HETATM   33  C10 UNL     1      30.734 -13.185  43.213  1.00  0.00     0.072 A
HETATM   34  N10 UNL     1      30.275 -12.595  41.945  1.00  0.00    -0.351 N
HETATM   35  C11 UNL     1      30.094 -14.024  42.178  1.00  0.00     0.198 A
ATOM     36  H10 UNL     1      30.164 -11.779  41.342  1.00  0.00     0.163 HD
BRANCH  35  37
HETATM   37  O1  UNL     1      30.939 -14.841  41.438  1.00  0.00    -0.364 OA
ATOM     38  H1  UNL     1      30.894 -15.772  41.622  1.00  0.00     0.213 HD
ENDBRANCH  35  37
BRANCH  35  39
HETATM   39  C12 UNL     1      28.640 -14.413  42.324  1.00  0.00     0.232 C
BRANCH  39  40
HETATM   40  O2  UNL     1      28.486 -15.801  42.268  1.00  0.00    -0.396 OA
ATOM     41  H2  UNL     1      28.547 -16.185  43.134  1.00  0.00     0.209 HD
ENDBRANCH  39  40
ENDBRANCH  35  39
ENDBRANCH  32  33
ENDBRANCH  31  32
ENDBRANCH  28  31
BRANCH  30  42
HETATM   42  N12 UNL     1      29.687 -16.563  44.973  1.00  0.00    -0.335 N
ATOM     43 2H12 UNL     1      30.549 -16.440  44.441  1.00  0.00     0.177 HD
ATOM     44 1H12 UNL     1      29.460 -17.558  44.980  1.00  0.00     0.177 HD
ENDBRANCH  30  42
ENDBRANCH  23  24
ENDBRANCH   1  23
TORSDOF 11
ENDMDL