MODEL 5
REMARK VINA RESULT: -6.450043186      1.939      2.486
REMARK  14 active torsions:
REMARK  status: ('A' for Active; 'I' for Inactive)
REMARK    1  A    between atoms: C3_4  and  N1_5
REMARK    2  A    between atoms: N1_5  and  C4_7
REMARK    3  A    between atoms: C5_8  and  C6_9
REMARK    4  A    between atoms: C6_9  and  N2_10
REMARK    5  A    between atoms: C6_9  and  N3_14
REMARK    6  A    between atoms: N6_22  and  N7_23
REMARK    7  A    between atoms: N7_23  and  N8_25
REMARK    8  A    between atoms: N8_25  and  C7_27
REMARK    9  A    between atoms: N8_25  and  N10_33
REMARK   10  A    between atoms: C7_27  and  C8_28
REMARK   11  A    between atoms: C8_28  and  N9_29
REMARK   12  A    between atoms: N10_33  and  N11_34
REMARK   13  A    between atoms: C9_39  and  O2_40
REMARK   14  A    between atoms: C9_39  and  C10_42
ROOT
HETATM    1  C4  UNL     1      25.411 -17.387  46.303  1.00  0.00     0.179 A
HETATM    2  C5  UNL     1      26.550 -17.214  45.496  1.00  0.00     0.132 A
HETATM    3  N4  UNL     1      27.618 -17.223  46.294  1.00  0.00    -0.281 N
ATOM      4  H4  UNL     1      28.583 -17.117  45.982  1.00  0.00     0.188 HD
HETATM    5  N5  UNL     1      27.250 -17.385  47.517  1.00  0.00    -0.218 N
ATOM      6  H5  UNL     1      27.866 -17.429  48.329  1.00  0.00     0.210 HD
HETATM    7  N6  UNL     1      25.908 -17.486  47.535  1.00  0.00    -0.135 N
ENDROOT
BRANCH   1   8
HETATM    8  N1  UNL     1      24.126 -17.442  45.753  1.00  0.00    -0.319 N
ATOM      9  H1  UNL     1      23.531 -18.187  46.113  1.00  0.00     0.169 HD
BRANCH   8  10
HETATM   10  C3  UNL     1      23.524 -16.608  44.759  1.00  0.00     0.145 C
HETATM   11  S1  UNL     1      22.968 -14.901  45.028  1.00  0.00    -0.084 SA
HETATM   12  C2  UNL     1      22.694 -14.520  43.262  1.00  0.00     0.116 C
HETATM   13  C1  UNL     1      23.785 -13.679  42.691  1.00  0.00     0.027 C
HETATM   14  C9  UNL     1      22.612 -15.919  42.734  1.00  0.00     0.227 C
HETATM   15  N12 UNL     1      23.230 -16.848  43.565  1.00  0.00    -0.331 N
ATOM     16  H12 UNL     1      23.454 -17.768  43.185  1.00  0.00     0.165 HD
BRANCH  14  17
HETATM   17  O2  UNL     1      21.223 -16.174  42.582  1.00  0.00    -0.362 OA
ATOM     18  H2  UNL     1      20.930 -16.452  43.442  1.00  0.00     0.213 HD
ENDBRANCH  14  17
BRANCH  14  19
HETATM   19  C10 UNL     1      23.234 -15.983  41.384  1.00  0.00     0.288 C
HETATM   20  N13 UNL     1      24.600 -16.357  41.291  1.00  0.00    -0.058 NA
HETATM   21  O3  UNL     1      22.625 -15.725  40.315  1.00  0.00    -0.271 OA
ENDBRANCH  14  19
ENDBRANCH   8  10
ENDBRANCH   1   8
BRANCH   2  22
HETATM   22  C6  UNL     1      26.649 -17.024  44.038  1.00  0.00     0.432 C
BRANCH  22  23
HETATM   23  N2  UNL     1      27.827 -16.368  43.577  1.00  0.00    -0.045 N
ATOM     24  H23 UNL     1      28.185 -15.745  44.302  1.00  0.00     0.277 HD
ATOM     25  H22 UNL     1      28.595 -17.036  43.515  1.00  0.00     0.277 HD
ATOM     26  H21 UNL     1      27.737 -15.860  42.696  1.00  0.00     0.277 HD
ENDBRANCH  22  23
BRANCH  22  27
HETATM   27  N3  UNL     1      26.543 -18.299  43.352  1.00  0.00    -0.045 N
ATOM     28  H33 UNL     1      26.718 -18.207  42.352  1.00  0.00     0.277 HD
ATOM     29  H32 UNL     1      27.318 -18.921  43.585  1.00  0.00     0.277 HD
ATOM     30  H31 UNL     1      25.639 -18.732  43.542  1.00  0.00     0.277 HD
ENDBRANCH  22  27
ENDBRANCH   2  22
BRANCH   7  31
HETATM   31  N7  UNL     1      25.150 -17.672  48.707  1.00  0.00    -0.057 N
ATOM     32  H7  UNL     1      24.924 -18.615  49.023  1.00  0.00     0.229 HD
BRANCH  31  33
HETATM   33  N8  UNL     1      24.697 -16.549  49.451  1.00  0.00     0.268 N
HETATM   34  O1  UNL     1      25.728 -15.634  49.311  1.00  0.00    -0.016 OA
BRANCH  33  35
HETATM   35  C7  UNL     1      24.560 -16.767  50.827  1.00  0.00     0.334 C
BRANCH  35  36
HETATM   36  C8  UNL     1      23.258 -16.609  51.494  1.00  0.00     0.295 C
BRANCH  36  37
HETATM   37  N9  UNL     1      22.697 -15.301  51.538  1.00  0.00    -0.074 N
ATOM     38  H93 UNL     1      22.880 -14.886  52.451  1.00  0.00     0.274 HD
ATOM     39  H92 UNL     1      23.237 -14.682  50.934  1.00  0.00     0.274 HD
ATOM     40  H91 UNL     1      21.706 -15.208  51.317  1.00  0.00     0.274 HD
ENDBRANCH  36  37
ENDBRANCH  35  36
ENDBRANCH  33  35
BRANCH  33  41
HETATM   41  N10 UNL     1      23.651 -15.974  48.766  1.00  0.00     0.159 NA
BRANCH  41  42
HETATM   42  N11 UNL     1      23.935 -14.617  48.447  1.00  0.00    -0.313 N
ATOM     43 2H11 UNL     1      23.900 -14.239  47.501  1.00  0.00     0.174 HD
ATOM     44 1H11 UNL     1      24.174 -14.087  49.285  1.00  0.00     0.174 HD
ENDBRANCH  41  42
ENDBRANCH  33  41
ENDBRANCH  31  33
ENDBRANCH   7  31
TORSDOF 14
ENDMDL