MODEL 2
REMARK VINA RESULT: -7.077430039      3.540      8.243
REMARK  13 active torsions:
REMARK  status: ('A' for Active; 'I' for Inactive)
REMARK    1  A    between atoms: N1_1  and  C1_4
REMARK    2  A    between atoms: C3_9  and  N4_10
REMARK    3  A    between atoms: N4_10  and  C4_12
REMARK    4  A    between atoms: C4_12  and  C5_13
REMARK    5  A    between atoms: C4_12  and  C6_16
REMARK    6  A    between atoms: C8_21  and  S1_22
REMARK    7  A    between atoms: S1_22  and  C9_23
REMARK    8  A    between atoms: C9_23  and  C10_24
REMARK    9  A    between atoms: C10_24  and  O3_25
REMARK   10  A    between atoms: C10_24  and  C11_27
REMARK   11  A    between atoms: C11_27  and  O4_28
REMARK   12  A    between atoms: N7_30  and  N8_31
REMARK   13  A    between atoms: C12_34  and  N9_35
ROOT
HETATM    1  C4  UNL     1      25.298 -16.882  44.598  1.00  0.00     0.239 C
ENDROOT
BRANCH   1   2
HETATM    2  N4  UNL     1      24.948 -15.924  43.608  1.00  0.00    -0.365 N
ATOM      3  H4  UNL     1      25.390 -15.013  43.730  1.00  0.00     0.161 HD
BRANCH   2   4
HETATM    4  C3  UNL     1      24.107 -16.009  42.498  1.00  0.00     0.116 A
HETATM    5  C2  UNL     1      22.755 -15.772  42.558  1.00  0.00     0.162 A
HETATM    6  N2  UNL     1      22.018 -15.917  41.435  1.00  0.00    -0.177 N
HETATM    7  N3  UNL     1      22.072 -15.349  43.734  1.00  0.00    -0.080 NA
HETATM    8  C1  UNL     1      22.534 -16.280  40.257  1.00  0.00     0.678 A
ATOM      9  H2  UNL     1      21.015 -15.741  41.489  1.00  0.00     0.185 HD
HETATM   10  N10 UNL     1      23.837 -16.517  40.154  1.00  0.00    -0.175 N
HETATM   11  C12 UNL     1      24.628 -16.388  41.253  1.00  0.00     0.144 A
ATOM     12  H10 UNL     1      24.241 -16.793  39.259  1.00  0.00     0.186 HD
BRANCH   8  13
HETATM   13  N1  UNL     1      21.786 -16.407  39.206  1.00  0.00    -0.234 N
ATOM     14  H12 UNL     1      21.151 -15.650  38.956  1.00  0.00     0.174 HD
ATOM     15  H11 UNL     1      21.824 -17.247  38.629  1.00  0.00     0.174 HD
ENDBRANCH   8  13
BRANCH  11  16
HETATM   16  N9  UNL     1      25.861 -16.652  41.037  1.00  0.00    -0.383 N
ATOM     17  H92 UNL     1      26.123 -17.611  41.266  1.00  0.00     0.157 HD
ATOM     18  H91 UNL     1      26.539 -15.980  40.678  1.00  0.00     0.157 HD
ENDBRANCH  11  16
ENDBRANCH   2   4
ENDBRANCH   1   2
BRANCH   1  19
HETATM   19  C5  UNL     1      26.763 -17.193  44.465  1.00  0.00     0.203 C
HETATM   20  O1  UNL     1      27.358 -18.022  45.191  1.00  0.00    -0.646 OA
HETATM   21  O2  UNL     1      27.492 -16.533  43.492  1.00  0.00    -0.646 OA
ENDBRANCH   1  19
BRANCH   1  22
HETATM   22  C6  UNL     1      25.132 -16.340  45.984  1.00  0.00     0.110 A
HETATM   23  C7  UNL     1      25.140 -15.021  46.349  1.00  0.00     0.145 A
HETATM   24  N5  UNL     1      25.303 -13.877  45.536  1.00  0.00    -0.080 NA
HETATM   25  N6  UNL     1      24.960 -14.942  47.689  1.00  0.00    -0.322 N
HETATM   26  C8  UNL     1      24.842 -16.184  48.145  1.00  0.00     0.167 A
ATOM     27  H6  UNL     1      24.923 -14.087  48.245  1.00  0.00     0.169 HD
HETATM   28  N7  UNL     1      24.946 -17.032  47.113  1.00  0.00    -0.239 N
BRANCH  26  29
HETATM   29  S1  UNL     1      24.584 -16.611  49.871  1.00  0.00    -0.089 SA
BRANCH  29  30
HETATM   30  C9  UNL     1      26.097 -17.384  50.560  1.00  0.00     0.116 C
BRANCH  30  31
HETATM   31  C10 UNL     1      25.767 -17.882  51.951  1.00  0.00     0.151 C
BRANCH  31  32
HETATM   32  O3  UNL     1      25.958 -19.252  52.056  1.00  0.00    -0.393 OA
ATOM     33  H3  UNL     1      25.669 -19.578  52.899  1.00  0.00     0.210 HD
ENDBRANCH  31  32
BRANCH  31  34
HETATM   34  C11 UNL     1      24.342 -17.533  52.314  1.00  0.00     0.196 C
BRANCH  34  35
HETATM   35  O4  UNL     1      24.140 -17.635  53.668  1.00  0.00    -0.398 OA
ATOM     36  H4  UNL     1      23.851 -16.806  54.032  1.00  0.00     0.209 HD
ENDBRANCH  34  35
ENDBRANCH  31  34
ENDBRANCH  30  31
ENDBRANCH  29  30
ENDBRANCH  26  29
BRANCH  28  37
HETATM   37  N8  UNL     1      24.864 -18.423  47.256  1.00  0.00    -0.336 N
ATOM     38  H82 UNL     1      24.338 -19.018  46.616  1.00  0.00     0.177 HD
ATOM     39  H81 UNL     1      25.295 -18.999  47.980  1.00  0.00     0.177 HD
ENDBRANCH  28  37
ENDBRANCH   1  22
TORSDOF 13
ENDMDL