MODEL 1
REMARK VINA RESULT: -7.468634013      0.000      0.000
REMARK  12 active torsions:
REMARK  status: ('A' for Active; 'I' for Inactive)
REMARK    1  A    between atoms: C2_7  and  C3_8
REMARK    2  A    between atoms: C3_8  and  C4_9
REMARK    3  A    between atoms: C3_8  and  N10_28
REMARK       I    between atoms: C4_9  and  N3_11
REMARK    4  A    between atoms: N3_11  and  N4_13
REMARK    5  A    between atoms: N4_13  and  C5_15
REMARK    6  A    between atoms: N7_20  and  N8_21
REMARK    7  A    between atoms: C6_24  and  N9_25
REMARK    8  A    between atoms: N10_28  and  N11_29
REMARK       I    between atoms: N10_28  and  C7_32
REMARK    9  A    between atoms: C7_32  and  C8_34
REMARK   10  A    between atoms: C8_34  and  N12_35
REMARK   11  A    between atoms: C10_42  and  N14_43
REMARK   12  A    between atoms: N15_45  and  N16_47
ROOT
HETATM    1  C3  UNL     1      24.362 -17.510  46.342  1.00  0.00     0.271 C
ENDROOT
BRANCH   1   2
HETATM    2  C2  UNL     1      24.883 -17.708  44.970  1.00  0.00     0.117 A
HETATM    3  N2  UNL     1      24.887 -18.815  44.243  1.00  0.00    -0.328 N
HETATM    4  C1  UNL     1      25.395 -18.878  42.967  1.00  0.00     0.130 A
ATOM      5  H2  UNL     1      24.494 -19.663  44.650  1.00  0.00     0.169 HD
HETATM    6  N1  UNL     1      25.367 -19.986  42.319  1.00  0.00    -0.384 N
HETATM    7  C10 UNL     1      25.930 -17.758  42.388  1.00  0.00     0.108 A
ATOM      8  H12 UNL     1      24.968 -20.820  42.750  1.00  0.00     0.157 HD
ATOM      9  H11 UNL     1      25.743 -20.034  41.373  1.00  0.00     0.157 HD
HETATM   10  C9  UNL     1      25.934 -16.604  43.125  1.00  0.00     0.124 A
HETATM   11  N13 UNL     1      25.431 -16.614  44.345  1.00  0.00    -0.351 N
ATOM     12  H13 UNL     1      25.449 -15.738  44.867  1.00  0.00     0.166 HD
BRANCH   7  13
HETATM   13  N14 UNL     1      26.470 -17.739  41.079  1.00  0.00    -0.282 N
HETATM   14  N15 UNL     1      25.770 -17.295  40.126  1.00  0.00    -0.249 N
ATOM     15  H15 UNL     1      26.152 -17.277  39.180  1.00  0.00     0.207 HD
ATOM     16  H14 UNL     1      27.415 -18.080  40.907  1.00  0.00     0.188 HD
BRANCH  14  17
HETATM   17  N16 UNL     1      24.490 -16.833  40.359  1.00  0.00    -0.331 N
ATOM     18 2H16 UNL     1      24.367 -15.893  40.736  1.00  0.00     0.178 HD
ATOM     19 1H16 UNL     1      23.684 -17.425  40.157  1.00  0.00     0.178 HD
ENDBRANCH  14  17
ENDBRANCH   7  13
ENDBRANCH   1   2
BRANCH   1  20
HETATM   20  C4  UNL     1      25.477 -17.288  47.275  1.00  0.00     0.268 C
HETATM   21  O1  UNL     1      26.620 -16.841  46.910  1.00  0.00    -0.269 OA
HETATM   22  N3  UNL     1      25.310 -17.571  48.644  1.00  0.00    -0.266 N
ATOM     23  H3  UNL     1      24.422 -17.927  48.999  1.00  0.00     0.190 HD
BRANCH  22  24
HETATM   24  N4  UNL     1      26.397 -17.352  49.512  1.00  0.00    -0.279 N
ATOM     25  H4  UNL     1      27.281 -17.007  49.138  1.00  0.00     0.189 HD
BRANCH  24  26
HETATM   26  C5  UNL     1      26.272 -17.607  50.910  1.00  0.00     0.184 A
HETATM   27  N5  UNL     1      27.203 -18.210  51.659  1.00  0.00    -0.265 N
HETATM   28  N6  UNL     1      26.754 -18.276  52.898  1.00  0.00    -0.218 N
ATOM     29  H5  UNL     1      28.104 -18.558  51.329  1.00  0.00     0.190 HD
HETATM   30  N7  UNL     1      25.553 -17.725  52.945  1.00  0.00    -0.168 N
ATOM     31  H6  UNL     1      27.251 -18.685  53.690  1.00  0.00     0.210 HD
HETATM   32  C6  UNL     1      25.210 -17.294  51.731  1.00  0.00     0.187 A
BRANCH  30  33
HETATM   33  N8  UNL     1      24.742 -17.599  54.076  1.00  0.00    -0.321 N
ATOM     34  H82 UNL     1      23.817 -17.170  54.069  1.00  0.00     0.179 HD
ATOM     35  H81 UNL     1      24.968 -17.913  55.019  1.00  0.00     0.179 HD
ENDBRANCH  30  33
BRANCH  32  36
HETATM   36  N9  UNL     1      24.127 -16.713  51.401  1.00  0.00    -0.380 N
ATOM     37  H92 UNL     1      23.682 -16.716  50.483  1.00  0.00     0.158 HD
ATOM     38  H91 UNL     1      23.523 -16.149  51.999  1.00  0.00     0.158 HD
ENDBRANCH  32  36
ENDBRANCH  24  26
ENDBRANCH  22  24
ENDBRANCH   1  20
BRANCH   1  39
HETATM   39  N10 UNL     1      23.296 -16.575  46.408  1.00  0.00    -0.245 N
HETATM   40  C7  UNL     1      23.179 -15.361  47.090  1.00  0.00     0.264 C
HETATM   41  O2  UNL     1      24.044 -14.908  47.858  1.00  0.00    -0.270 OA
BRANCH  39  42
HETATM   42  N11 UNL     1      22.129 -16.933  45.635  1.00  0.00    -0.339 N
ATOM     43 2H11 UNL     1      21.789 -17.879  45.807  1.00  0.00     0.177 HD
ATOM     44 1H11 UNL     1      21.786 -16.200  45.015  1.00  0.00     0.177 HD
ENDBRANCH  39  42
BRANCH  40  45
HETATM   45  C8  UNL     1      21.953 -14.506  46.928  1.00  0.00     0.334 C
BRANCH  45  46
HETATM   46  N12 UNL     1      20.990 -14.734  47.966  1.00  0.00    -0.071 N
ATOM     47 3H12 UNL     1      21.431 -14.728  48.886  1.00  0.00     0.274 HD
ATOM     48 2H12 UNL     1      20.372 -13.931  48.078  1.00  0.00     0.274 HD
ATOM     49 1H12 UNL     1      20.458 -15.592  47.819  1.00  0.00     0.274 HD
ENDBRANCH  45  46
ENDBRANCH  40  45
ENDBRANCH   1  39
TORSDOF 12
ENDMDL