MODEL 2
REMARK VINA RESULT: -7.094542493      0.830      1.224
REMARK  13 active torsions:
REMARK  status: ('A' for Active; 'I' for Inactive)
REMARK    1  A    between atoms: N1_2  and  C2_3
REMARK    2  A    between atoms: N1_2  and  C4_7
REMARK    3  A    between atoms: C2_3  and  C3_4
REMARK    4  A    between atoms: C3_4  and  O1_5
REMARK    5  A    between atoms: C4_7  and  C5_8
REMARK    6  A    between atoms: C5_8  and  O2_9
REMARK    7  A    between atoms: C5_8  and  N2_11
REMARK    8  A    between atoms: C7_15  and  N4_16
REMARK    9  A    between atoms: C8_21  and  N6_22
REMARK   10  A    between atoms: C10_27  and  N8_28
REMARK   11  A    between atoms: C11_33  and  C12_34
REMARK   12  A    between atoms: C12_34  and  N10_35
REMARK   13  A    between atoms: N10_35  and  N11_37
ROOT
HETATM    1  N2  UNL     1      25.633 -16.269  44.616  1.00  0.00    -0.219 N
HETATM    2  C6  UNL     1      25.629 -16.931  43.433  1.00  0.00     0.175 A
HETATM    3  N3  UNL     1      25.826 -16.525  42.165  1.00  0.00    -0.173 N
ATOM      4  H3  UNL     1      26.019 -15.540  41.984  1.00  0.00     0.186 HD
HETATM    5  C7  UNL     1      25.777 -17.388  41.127  1.00  0.00     0.679 A
HETATM    6  N5  UNL     1      25.527 -18.681  41.353  1.00  0.00    -0.175 N
ATOM      7  H5  UNL     1      25.494 -19.324  40.561  1.00  0.00     0.186 HD
HETATM    8  C8  UNL     1      25.316 -19.171  42.611  1.00  0.00     0.148 A
HETATM    9  C9  UNL     1      25.374 -18.270  43.644  1.00  0.00     0.167 A
HETATM   10  N7  UNL     1      25.223 -18.395  44.998  1.00  0.00    -0.056 N
HETATM   11  C10 UNL     1      24.974 -19.318  45.944  1.00  0.00     0.701 A
HETATM   12  N9  UNL     1      24.995 -18.580  47.121  1.00  0.00    -0.174 N
ATOM     13  H9  UNL     1      24.842 -18.966  48.052  1.00  0.00     0.185 HD
HETATM   14  C11 UNL     1      25.240 -17.316  46.865  1.00  0.00     0.158 A
HETATM   15  N15 UNL     1      25.385 -17.186  45.538  1.00  0.00    -0.154 N
ENDROOT
BRANCH   1  16
HETATM   16  C5  UNL     1      25.863 -14.831  44.757  1.00  0.00     0.273 C
BRANCH  16  17
HETATM   17  C4  UNL     1      24.631 -14.092  44.359  1.00  0.00     0.327 C
BRANCH  17  18
HETATM   18  N1  UNL     1      23.400 -14.741  44.675  1.00  0.00     0.090 N
HETATM   19  C1  UNL     1      22.503 -14.837  43.542  1.00  0.00     0.310 C
BRANCH  18  20
HETATM   20  C2  UNL     1      22.738 -14.335  45.872  1.00  0.00     0.297 C
BRANCH  20  21
HETATM   21  C3  UNL     1      21.976 -15.425  46.578  1.00  0.00     0.194 C
BRANCH  21  22
HETATM   22  O1  UNL     1      21.672 -15.041  47.878  1.00  0.00    -0.399 OA
ATOM     23  H1  UNL     1      21.585 -15.803  48.439  1.00  0.00     0.209 HD
ENDBRANCH  21  22
ENDBRANCH  20  21
ENDBRANCH  18  20
ENDBRANCH  17  18
ENDBRANCH  16  17
BRANCH  16  24
HETATM   24  O2  UNL     1      26.940 -14.576  43.877  1.00  0.00    -0.373 OA
ATOM     25  H2  UNL     1      27.576 -13.980  44.256  1.00  0.00     0.212 HD
ENDBRANCH  16  24
ENDBRANCH   1  16
BRANCH  14  26
HETATM   26  C12 UNL     1      25.360 -16.175  47.846  1.00  0.00     0.224 C
BRANCH  26  27
HETATM   27  N10 UNL     1      25.112 -16.762  49.168  1.00  0.00    -0.291 N
ATOM     28  H10 UNL     1      25.625 -17.597  49.450  1.00  0.00     0.184 HD
BRANCH  27  29
HETATM   29  N11 UNL     1      24.185 -16.196  50.047  1.00  0.00    -0.103 N
HETATM   30  N12 UNL     1      23.475 -15.099  50.026  1.00  0.00    -0.189 N
HETATM   31  N13 UNL     1      22.942 -15.396  51.198  1.00  0.00    -0.208 N
ATOM     32  H12 UNL     1      23.373 -14.326  49.369  1.00  0.00     0.213 HD
HETATM   33  N14 UNL     1      23.653 -16.489  51.215  1.00  0.00    -0.189 N
ATOM     34  H13 UNL     1      22.265 -14.958  51.823  1.00  0.00     0.211 HD
ATOM     35  H14 UNL     1      23.756 -17.263  51.872  1.00  0.00     0.213 HD
ENDBRANCH  27  29
ENDBRANCH  26  27
ENDBRANCH  14  26
BRANCH   5  36
HETATM   36  N4  UNL     1      25.976 -16.937  39.934  1.00  0.00    -0.234 N
ATOM     37  H42 UNL     1      25.957 -15.938  39.731  1.00  0.00     0.174 HD
ATOM     38  H41 UNL     1      26.154 -17.602  39.182  1.00  0.00     0.174 HD
ENDBRANCH   5  36
BRANCH   8  39
HETATM   39  N6  UNL     1      25.081 -20.426  42.747  1.00  0.00    -0.383 N
ATOM     40  H62 UNL     1      25.751 -21.168  42.542  1.00  0.00     0.157 HD
ATOM     41  H61 UNL     1      24.163 -20.716  43.085  1.00  0.00     0.157 HD
ENDBRANCH   8  39
BRANCH  11  42
HETATM   42  N8  UNL     1      24.756 -20.555  45.948  1.00  0.00    -0.233 N
ATOM     43  H82 UNL     1      24.376 -21.033  45.131  1.00  0.00     0.174 HD
ATOM     44  H81 UNL     1      24.868 -21.308  46.626  1.00  0.00     0.174 HD
ENDBRANCH  11  42
TORSDOF 13
ENDMDL