MODEL 1
REMARK VINA RESULT: -7.730574379      0.000      0.000
REMARK  11 active torsions:
REMARK  status: ('A' for Active; 'I' for Inactive)
REMARK    1  A    between atoms: N1_1  and  C1_4
REMARK    2  A    between atoms: C2_7  and  C3_8
REMARK    3  A    between atoms: C4_11  and  C5_12
REMARK    4  A    between atoms: C5_12  and  O1_13
REMARK    5  A    between atoms: C5_12  and  C6_15
REMARK    6  A    between atoms: C6_15  and  N4_16
REMARK    7  A    between atoms: N4_16  and  C7_17
REMARK    8  A    between atoms: N4_16  and  C9_21
REMARK    9  A    between atoms: C7_17  and  C8_18
REMARK   10  A    between atoms: N11_36  and  O4_37
REMARK   11  A    between atoms: C11_41  and  N13_42
ROOT
HETATM    1  C3  UNL     1      23.610 -16.481  43.818  1.00  0.00     0.198 A
HETATM    2  N3  UNL     1      24.791 -16.778  44.454  1.00  0.00    -0.324 N
ATOM      3  H3  UNL     1      25.615 -17.003  43.897  1.00  0.00     0.169 HD
HETATM    4  C4  UNL     1      24.879 -16.777  45.759  1.00  0.00     0.129 A
HETATM    5  N9  UNL     1      23.782 -16.477  46.486  1.00  0.00    -0.176 N
ATOM      6  H9  UNL     1      23.845 -16.476  47.504  1.00  0.00     0.185 HD
HETATM    7  C10 UNL     1      22.615 -16.183  45.906  1.00  0.00     0.705 A
HETATM    8  N10 UNL     1      21.563 -15.892  46.627  1.00  0.00    -0.232 N
ATOM      9 1H10 UNL     1      20.673 -15.668  46.183  1.00  0.00     0.174 HD
ATOM     10 2H10 UNL     1      21.616 -15.887  47.646  1.00  0.00     0.174 HD
HETATM   11  N11 UNL     1      22.546 -16.190  44.557  1.00  0.00    -0.032 N
ENDROOT
BRANCH   4  12
HETATM   12  C5  UNL     1      26.150 -17.086  46.500  1.00  0.00     0.204 C
BRANCH  12  13
HETATM   13  O1  UNL     1      25.920 -17.894  47.575  1.00  0.00    -0.386 OA
ATOM     14  H1  UNL     1      26.309 -18.752  47.458  1.00  0.00     0.210 HD
ENDBRANCH  12  13
BRANCH  12  15
HETATM   15  C6  UNL     1      27.156 -17.545  45.508  1.00  0.00     0.181 C
BRANCH  15  16
HETATM   16  N4  UNL     1      28.327 -16.706  45.371  1.00  0.00    -0.202 N
BRANCH  16  17
HETATM   17  C7  UNL     1      28.223 -15.468  44.665  1.00  0.00     0.254 C
BRANCH  17  18
HETATM   18  C8  UNL     1      27.606 -15.541  43.333  1.00  0.00     0.192 C
HETATM   19  O2  UNL     1      27.906 -16.321  42.408  1.00  0.00    -0.647 OA
HETATM   20  O3  UNL     1      26.576 -14.636  43.085  1.00  0.00    -0.647 OA
ENDBRANCH  17  18
ENDBRANCH  16  17
BRANCH  16  21
HETATM   21  C9  UNL     1      29.545 -17.187  45.956  1.00  0.00     0.712 A
HETATM   22  N5  UNL     1      30.625 -16.510  46.380  1.00  0.00    -0.115 N
HETATM   23  N6  UNL     1      31.527 -17.345  46.864  1.00  0.00    -0.213 N
ATOM     24  H5  UNL     1      30.733 -15.497  46.335  1.00  0.00     0.207 HD
HETATM   25  N7  UNL     1      31.019 -18.556  46.746  1.00  0.00    -0.213 N
ATOM     26  H6  UNL     1      32.439 -17.101  47.253  1.00  0.00     0.210 HD
HETATM   27  N8  UNL     1      29.795 -18.498  46.188  1.00  0.00    -0.115 N
ATOM     28  H7  UNL     1      31.487 -19.415  47.036  1.00  0.00     0.210 HD
ATOM     29  H8  UNL     1      29.179 -19.285  45.983  1.00  0.00     0.207 HD
ENDBRANCH  16  21
ENDBRANCH  15  16
ENDBRANCH  12  15
ENDBRANCH   4  12
BRANCH   1  30
HETATM   30  C2  UNL     1      23.609 -16.509  42.356  1.00  0.00     0.183 A
HETATM   31  N2  UNL     1      24.807 -16.777  41.736  1.00  0.00    -0.172 N
HETATM   32  C1  UNL     1      24.959 -16.838  40.419  1.00  0.00     0.692 A
ATOM     33  H2  UNL     1      25.626 -16.938  42.322  1.00  0.00     0.186 HD
HETATM   34  N14 UNL     1      23.903 -16.631  39.610  1.00  0.00    -0.023 N
HETATM   35  C11 UNL     1      22.723 -16.369  40.173  1.00  0.00     0.692 A
ATOM     36  H14 UNL     1      24.004 -16.673  38.596  1.00  0.00     0.203 HD
HETATM   37  N12 UNL     1      22.597 -16.312  41.532  1.00  0.00    -0.172 N
ATOM     38  H12 UNL     1      21.679 -16.109  41.928  1.00  0.00     0.186 HD
BRANCH  32  39
HETATM   39  N1  UNL     1      26.105 -17.091  39.909  1.00  0.00    -0.234 N
ATOM     40  H12 UNL     1      26.889 -16.465  40.095  1.00  0.00     0.174 HD
ATOM     41  H11 UNL     1      26.238 -17.915  39.322  1.00  0.00     0.174 HD
ENDBRANCH  32  39
BRANCH  35  42
HETATM   42  N13 UNL     1      21.704 -16.171  39.420  1.00  0.00    -0.234 N
ATOM     43 2H13 UNL     1      21.085 -15.386  39.620  1.00  0.00     0.174 HD
ATOM     44 1H13 UNL     1      21.518 -16.791  38.632  1.00  0.00     0.174 HD
ENDBRANCH  35  42
ENDBRANCH   1  30
BRANCH  11  45
HETATM   45  O4  UNL     1      21.316 -15.876  44.008  1.00  0.00    -0.268 OA
ATOM     46  H4  UNL     1      20.996 -16.268  43.204  1.00  0.00     0.246 HD
ENDBRANCH  11  45
TORSDOF 11
ENDMDL