MODEL 2
REMARK VINA RESULT: -6.828610030      2.973      4.553
REMARK  15 active torsions:
REMARK  status: ('A' for Active; 'I' for Inactive)
REMARK    1  A    between atoms: N1_1  and  C1_4
REMARK    2  A    between atoms: C1_4  and  O1_5
REMARK    3  A    between atoms: C1_4  and  N6_12
REMARK    4  A    between atoms: O1_5  and  N2_6
REMARK    5  A    between atoms: N2_6  and  N3_7
REMARK    6  A    between atoms: N3_7  and  N4_8
REMARK    7  A    between atoms: N4_8  and  N5_9
REMARK    8  A    between atoms: N6_12  and  C2_13
REMARK    9  A    between atoms: N6_12  and  C6_25
REMARK   10  A    between atoms: C2_13  and  C3_14
REMARK   11  A    between atoms: C3_14  and  O2_15
REMARK   12  A    between atoms: C3_14  and  C4_17
REMARK   13  A    between atoms: C7_28  and  N11_29
REMARK   14  A    between atoms: C8_34  and  N13_35
REMARK   15  A    between atoms: C9_38  and  N14_39
ROOT
HETATM    1  N6  UNL     1      24.053 -16.152  45.370  1.00  0.00    -0.271 N
ENDROOT
BRANCH   1   2
HETATM    2  C1  UNL     1      22.942 -16.903  45.946  1.00  0.00     0.246 C
BRANCH   2   3
HETATM    3  N1  UNL     1      23.022 -18.177  45.833  1.00  0.00    -0.364 N
ATOM      4  H12 UNL     1      23.964 -18.564  45.882  1.00  0.00     0.159 HD
ATOM      5  H11 UNL     1      22.194 -18.759  45.706  1.00  0.00     0.159 HD
ENDBRANCH   2   3
BRANCH   2   6
HETATM    6  O1  UNL     1      21.894 -16.303  46.562  1.00  0.00    -0.189 OA
BRANCH   6   7
HETATM    7  N2  UNL     1      20.614 -16.669  46.227  1.00  0.00     0.041 NA
BRANCH   7   8
HETATM    8  N3  UNL     1      19.801 -16.250  47.297  1.00  0.00     0.012 NA
BRANCH   8   9
HETATM    9  N4  UNL     1      20.497 -15.485  48.206  1.00  0.00    -0.018 NA
BRANCH   9  10
HETATM   10  N5  UNL     1      19.610 -15.131  49.234  1.00  0.00    -0.331 N
ATOM     11  H52 UNL     1      18.768 -15.646  49.491  1.00  0.00     0.173 HD
ATOM     12  H51 UNL     1      19.962 -14.277  49.666  1.00  0.00     0.173 HD
ENDBRANCH   9  10
ENDBRANCH   8   9
ENDBRANCH   7   8
ENDBRANCH   6   7
ENDBRANCH   2   6
ENDBRANCH   1   2
BRANCH   1  13
HETATM   13  C2  UNL     1      24.633 -15.266  46.279  1.00  0.00     0.114 C
BRANCH  13  14
HETATM   14  C3  UNL     1      25.571 -15.907  47.290  1.00  0.00     0.215 C
BRANCH  14  15
HETATM   15  O2  UNL     1      25.895 -17.209  47.031  1.00  0.00    -0.384 OA
ATOM     16  H2  UNL     1      26.412 -17.635  47.705  1.00  0.00     0.211 HD
ENDBRANCH  14  15
BRANCH  14  17
HETATM   17  C4  UNL     1      24.787 -15.925  48.586  1.00  0.00     0.103 A
HETATM   18  N7  UNL     1      23.754 -15.162  48.928  1.00  0.00    -0.293 N
HETATM   19  N8  UNL     1      23.210 -15.313  50.055  1.00  0.00    -0.281 N
ATOM     20  H7  UNL     1      23.403 -14.456  48.281  1.00  0.00     0.187 HD
HETATM   21  C5  UNL     1      23.673 -16.235  50.894  1.00  0.00     0.174 A
ATOM     22  H8  UNL     1      22.416 -14.730  50.323  1.00  0.00     0.188 HD
HETATM   23  N9  UNL     1      23.182 -16.549  52.219  1.00  0.00    -0.073 NA
HETATM   24  S1  UNL     1      24.957 -16.898  49.981  1.00  0.00    -0.038 SA
ENDBRANCH  14  17
ENDBRANCH  13  14
ENDBRANCH   1  13
BRANCH   1  25
HETATM   25  C6  UNL     1      24.306 -16.477  44.025  1.00  0.00     0.167 A
HETATM   26  N10 UNL     1      25.459 -17.130  43.667  1.00  0.00    -0.174 N
HETATM   27  C7  UNL     1      25.805 -17.458  42.429  1.00  0.00     0.679 A
ATOM     28  H10 UNL     1      26.104 -17.383  44.415  1.00  0.00     0.186 HD
HETATM   29  N12 UNL     1      25.017 -17.163  41.392  1.00  0.00    -0.175 N
HETATM   30  C8  UNL     1      23.869 -16.524  41.669  1.00  0.00     0.152 A
ATOM     31  H12 UNL     1      25.275 -17.410  40.437  1.00  0.00     0.186 HD
HETATM   32  C9  UNL     1      23.484 -16.168  42.969  1.00  0.00     0.191 A
BRANCH  27  33
HETATM   33  N11 UNL     1      26.922 -18.084  42.178  1.00  0.00    -0.234 N
ATOM     34 2H11 UNL     1      27.705 -17.530  41.830  1.00  0.00     0.174 HD
ATOM     35 1H11 UNL     1      27.011 -19.091  42.321  1.00  0.00     0.174 HD
ENDBRANCH  27  33
BRANCH  30  36
HETATM   36  N13 UNL     1      23.062 -16.205  40.697  1.00  0.00    -0.383 N
ATOM     37 2H13 UNL     1      22.705 -15.249  40.679  1.00  0.00     0.157 HD
ATOM     38 1H13 UNL     1      22.821 -16.904  39.994  1.00  0.00     0.157 HD
ENDBRANCH  30  36
BRANCH  32  39
HETATM   39  N14 UNL     1      22.250 -15.494  43.072  1.00  0.00    -0.108 N
HETATM   40  O3  UNL     1      21.206 -16.154  42.932  1.00  0.00    -0.531 OA
HETATM   41  O4  UNL     1      22.118 -14.133  43.264  1.00  0.00    -0.531 OA
ENDBRANCH  32  39
ENDBRANCH   1  25
TORSDOF 15
ENDMDL