MODEL 4
REMARK VINA RESULT: -7.179844310      3.907      6.130
REMARK  10 active torsions:
REMARK  status: ('A' for Active; 'I' for Inactive)
REMARK    1  A    between atoms: N1_1  and  C1_4
REMARK    2  A    between atoms: N3_8  and  O1_9
REMARK    3  A    between atoms: C5_15  and  N6_16
REMARK    4  A    between atoms: N6_16  and  N7_18
REMARK    5  A    between atoms: C6_22  and  C7_23
REMARK    6  A    between atoms: N9_24  and  C8_26
REMARK    7  A    between atoms: C8_26  and  C9_27
REMARK    8  A    between atoms: C9_27  and  C10_28
REMARK    9  A    between atoms: C10_28  and  N10_29
REMARK   10  A    between atoms: N10_29  and  S1_31
ROOT
HETATM    1  C1  UNL     1      28.542 -17.628  47.846  1.00  0.00     0.141 A
HETATM    2  N2  UNL     1      27.618 -17.353  48.755  1.00  0.00    -0.172 N
ATOM      3  H2  UNL     1      27.806 -17.521  49.744  1.00  0.00     0.186 HD
HETATM    4  C2  UNL     1      26.458 -16.864  48.376  1.00  0.00     0.720 A
HETATM    5  N3  UNL     1      25.583 -16.606  49.386  1.00  0.00    -0.035 N
HETATM    6  C3  UNL     1      24.372 -16.099  49.178  1.00  0.00     0.190 A
HETATM    7  N4  UNL     1      23.432 -15.818  50.202  1.00  0.00    -0.077 NA
HETATM    8  C4  UNL     1      24.063 -15.850  47.842  1.00  0.00     0.136 A
HETATM    9  N5  UNL     1      22.800 -15.316  47.564  1.00  0.00    -0.095 NA
HETATM   10  C5  UNL     1      24.952 -16.112  46.812  1.00  0.00     0.171 A
HETATM   11  N8  UNL     1      26.167 -16.625  47.058  1.00  0.00    -0.123 N
HETATM   12  C6  UNL     1      27.016 -16.865  46.063  1.00  0.00     0.102 A
HETATM   13  C11 UNL     1      28.283 -17.406  46.554  1.00  0.00     0.119 A
HETATM   14  N11 UNL     1      29.269 -17.694  45.580  1.00  0.00    -0.096 NA
ENDROOT
BRANCH  12  15
HETATM   15  C7  UNL     1      26.958 -16.720  44.656  1.00  0.00     0.116 C
HETATM   16  N9  UNL     1      27.062 -17.454  43.521  1.00  0.00    -0.397 N
ATOM     17  H9  UNL     1      27.393 -18.418  43.532  1.00  0.00     0.158 HD
BRANCH  16  18
HETATM   18  C8  UNL     1      26.672 -16.781  42.276  1.00  0.00     0.120 C
BRANCH  18  19
HETATM   19  C9  UNL     1      26.024 -17.766  41.352  1.00  0.00     0.040 C
BRANCH  19  20
HETATM   20  C10 UNL     1      24.572 -17.380  41.067  1.00  0.00     0.136 C
BRANCH  20  21
HETATM   21  N10 UNL     1      23.907 -16.965  42.295  1.00  0.00    -0.301 N
ATOM     22  H10 UNL     1      24.101 -17.347  43.221  1.00  0.00     0.174 HD
BRANCH  21  23
HETATM   23  S1  UNL     1      22.756 -15.748  41.961  1.00  0.00     0.204 S
HETATM   24  O2  UNL     1      23.399 -14.386  42.185  1.00  0.00    -0.578 OA
HETATM   25  O3  UNL     1      22.251 -15.842  40.548  1.00  0.00    -0.578 OA
HETATM   26  O4  UNL     1      21.404 -15.916  42.968  1.00  0.00    -0.578 OA
ENDBRANCH  21  23
ENDBRANCH  20  21
ENDBRANCH  19  20
ENDBRANCH  18  19
ENDBRANCH  16  18
ENDBRANCH  12  15
BRANCH  10  27
HETATM   27  N6  UNL     1      24.593 -15.821  45.654  1.00  0.00    -0.289 N
ATOM     28  H6  UNL     1      24.515 -16.585  44.983  1.00  0.00     0.188 HD
BRANCH  27  29
HETATM   29  N7  UNL     1      24.286 -14.528  45.194  1.00  0.00    -0.344 N
ATOM     30  H72 UNL     1      25.020 -14.052  44.668  1.00  0.00     0.176 HD
ATOM     31  H71 UNL     1      23.404 -14.039  45.344  1.00  0.00     0.176 HD
ENDBRANCH  27  29
ENDBRANCH  10  27
BRANCH   1  32
HETATM   32  N1  UNL     1      29.682 -18.112  48.255  1.00  0.00    -0.383 N
ATOM     33  H12 UNL     1      29.828 -19.110  48.406  1.00  0.00     0.157 HD
ATOM     34  H11 UNL     1      30.447 -17.458  48.428  1.00  0.00     0.157 HD
ENDBRANCH   1  32
BRANCH   5  35
HETATM   35  O1  UNL     1      25.920 -16.865  50.708  1.00  0.00    -0.268 OA
ATOM     36  H1  UNL     1      25.251 -16.933  51.380  1.00  0.00     0.246 HD
ENDBRANCH   5  35
TORSDOF 10
ENDMDL