MODEL 1
REMARK VINA RESULT: -5.556333872      0.000      0.000
REMARK  3 active torsions:
REMARK  status: ('A' for Active; 'I' for Inactive)
REMARK    1  A    between atoms: N1_1  and  C1_5
REMARK    2  A    between atoms: C3_7  and  C4_8
REMARK    3  A    between atoms: C5_9  and  C6_10
ROOT
HETATM    1  C4  UNL     1     -23.158   6.969 -13.312  1.00  0.00    -0.021 C
HETATM    2  C5  UNL     1     -23.796   7.744 -12.459  1.00  0.00     0.003 C
ENDROOT
BRANCH   2   3
HETATM    3  C6  UNL     1     -24.555   8.911 -12.942  1.00  0.00     0.169 C
HETATM    4  C7  UNL     1     -23.641  10.048 -13.255  1.00  0.00     0.268 C
HETATM    5  N2  UNL     1     -24.220  11.100 -14.015  1.00  0.00    -0.070 N
HETATM    6  C8  UNL     1     -25.385  10.707 -14.774  1.00  0.00     0.258 C
ATOM      7  H22 UNL     1     -24.435  11.897 -13.416  1.00  0.00     0.277 HD
ATOM      8  H21 UNL     1     -23.522  11.527 -14.625  1.00  0.00     0.277 HD
HETATM    9  C9  UNL     1     -25.214   9.248 -15.136  1.00  0.00     0.196 C
HETATM   10  O1  UNL     1     -25.349   8.507 -13.992  1.00  0.00    -0.379 OA
ENDBRANCH   2   3
BRANCH   1  11
HETATM   11  C3  UNL     1     -22.375   5.777 -12.900  1.00  0.00     0.040 A
HETATM   12  C1  UNL     1     -22.393   4.627 -13.861  1.00  0.00     0.191 A
HETATM   13  C2  UNL     1     -23.025   4.512 -12.526  1.00  0.00     0.044 A
BRANCH  12  14
HETATM   14  N1  UNL     1     -21.149   3.991 -14.179  1.00  0.00    -0.074 N
ATOM     15  H13 UNL     1     -20.855   4.331 -15.095  1.00  0.00     0.274 HD
ATOM     16  H12 UNL     1     -20.436   4.383 -13.564  1.00  0.00     0.274 HD
ATOM     17  H11 UNL     1     -21.037   2.977 -14.175  1.00  0.00     0.274 HD
ENDBRANCH  12  14
ENDBRANCH   1  11
TORSDOF 3
ENDMDL