MODEL 3
REMARK VINA RESULT: -4.669204110      0.423      1.364
REMARK  3 active torsions:
REMARK  status: ('A' for Active; 'I' for Inactive)
REMARK    1  A    between atoms: C2_2  and  N1_5
REMARK    2  A    between atoms: N1_5  and  C5_8
REMARK    3  A    between atoms: C5_8  and  C6_9
ROOT
HETATM    1  C5  UNL     1     -23.880   6.343 -12.174  1.00  0.00     0.294 C
ENDROOT
BRANCH   1   2
HETATM    2  N1  UNL     1     -24.722   6.958 -13.186  1.00  0.00    -0.063 N
ATOM      3  H12 UNL     1     -25.706   6.921 -12.919  1.00  0.00     0.278 HD
ATOM      4  H11 UNL     1     -24.761   6.386 -14.030  1.00  0.00     0.278 HD
BRANCH   2   5
HETATM    5  C2  UNL     1     -24.317   8.301 -13.488  1.00  0.00     0.115 C
HETATM    6  C1  UNL     1     -25.121   8.864 -14.667  1.00  0.00     0.045 C
HETATM    7  C3  UNL     1     -22.867   8.378 -13.942  1.00  0.00     0.045 C
HETATM    8  C4  UNL     1     -24.590   9.172 -12.295  1.00  0.00     0.045 C
ENDBRANCH   2   5
ENDBRANCH   1   2
BRANCH   1   9
HETATM    9  C6  UNL     1     -23.638   4.908 -12.643  1.00  0.00     0.346 C
HETATM   10  N2  UNL     1     -22.367   4.386 -12.265  1.00  0.00    -0.045 N
HETATM   11  C7  UNL     1     -21.592   4.431 -13.476  1.00  0.00     0.261 C
ATOM     12  H22 UNL     1     -21.935   4.866 -11.475  1.00  0.00     0.280 HD
ATOM     13  H21 UNL     1     -22.406   3.465 -11.827  1.00  0.00     0.280 HD
HETATM   14  C8  UNL     1     -22.614   4.459 -14.586  1.00  0.00     0.198 C
HETATM   15  O1  UNL     1     -23.759   4.928 -14.006  1.00  0.00    -0.356 OA
ENDBRANCH   1   9
TORSDOF 3
ENDMDL