MODEL 5
REMARK VINA RESULT: -5.186270680      2.183      3.628
REMARK  3 active torsions:
REMARK  status: ('A' for Active; 'I' for Inactive)
REMARK    1  A    between atoms: C2_2  and  N1_3
REMARK    2  A    between atoms: C6_7  and  C7_8
REMARK    3  A    between atoms: C7_8  and  N2_9
ROOT
HETATM    1  N1  UNL     1     -25.491  11.572  -7.879  1.00  0.00    -0.376 N
HETATM    2  C3  UNL     1     -24.633  11.358  -6.775  1.00  0.00     0.123 C
HETATM    3  C4  UNL     1     -25.385  11.139  -5.477  1.00  0.00     0.020 C
HETATM    4  C5  UNL     1     -26.513  12.089  -5.258  1.00  0.00     0.011 C
HETATM    5  C6  UNL     1     -27.280  12.488  -6.486  1.00  0.00     0.048 C
HETATM    6  C8  UNL     1     -26.445  12.612  -7.716  1.00  0.00     0.196 C
HETATM    7  C9  UNL     1     -27.297  12.761  -8.881  1.00  0.00     0.085 C
HETATM    8  N3  UNL     1     -27.982  12.889  -9.824  1.00  0.00    -0.195 NA
ENDROOT
BRANCH   1   9
HETATM    9  C2  UNL     1     -25.130  11.146  -9.150  1.00  0.00     0.055 C
HETATM   10  C1  UNL     1     -24.090  11.991  -9.873  1.00  0.00     0.054 C
ENDBRANCH   1   9
BRANCH   5  11
HETATM   11  C7  UNL     1     -27.950  13.822  -6.234  1.00  0.00     0.237 C
BRANCH  11  12
HETATM   12  N2  UNL     1     -29.407  13.715  -6.256  1.00  0.00    -0.079 N
ATOM     13  H23 UNL     1     -29.705  12.772  -6.508  1.00  0.00     0.274 HD
ATOM     14  H22 UNL     1     -29.797  13.761  -5.315  1.00  0.00     0.274 HD
ATOM     15  H21 UNL     1     -29.831  14.413  -6.867  1.00  0.00     0.274 HD
ENDBRANCH  11  12
ENDBRANCH   5  11
TORSDOF 3
ENDMDL