MODEL 3
REMARK VINA RESULT: -5.077373280      2.138      5.042
REMARK  4 active torsions:
REMARK  status: ('A' for Active; 'I' for Inactive)
REMARK    1  A    between atoms: N1_7  and  C7_8
REMARK    2  A    between atoms: C7_8  and  C8_9
REMARK    3  A    between atoms: C8_9  and  N2_10
REMARK    4  A    between atoms: C8_9  and  N3_14
ROOT
HETATM    1  C7  UNL     1     -23.312   8.393 -12.380  1.00  0.00     0.189 C
ENDROOT
BRANCH   1   2
HETATM    2  N1  UNL     1     -23.798   7.127 -12.854  1.00  0.00    -0.369 N
HETATM    3  C6  UNL     1     -24.498   6.414 -11.866  1.00  0.00     0.063 C
HETATM    4  C5  UNL     1     -24.639   4.939 -12.211  1.00  0.00     0.046 C
HETATM    5  C4  UNL     1     -23.195   4.427 -12.221  1.00  0.00     0.019 C
HETATM    6  C2  UNL     1     -22.524   5.072 -13.401  1.00  0.00    -0.015 C
HETATM    7  C1  UNL     1     -22.850   4.180 -14.612  1.00  0.00     0.020 C
HETATM    8  C3  UNL     1     -21.015   4.860 -13.191  1.00  0.00     0.020 C
HETATM    9  C9  UNL     1     -22.854   6.481 -13.650  1.00  0.00     0.072 C
ENDBRANCH   1   2
BRANCH   1  10
HETATM   10  C8  UNL     1     -22.484   9.143 -13.384  1.00  0.00     0.395 C
BRANCH  10  11
HETATM   11  N2  UNL     1     -21.259   9.661 -12.854  1.00  0.00    -0.049 N
ATOM     12  H23 UNL     1     -21.161  10.651 -13.080  1.00  0.00     0.276 HD
ATOM     13  H22 UNL     1     -21.305   9.721 -11.837  1.00  0.00     0.276 HD
ATOM     14  H21 UNL     1     -20.431   9.142 -13.146  1.00  0.00     0.276 HD
ENDBRANCH  10  11
BRANCH  10  15
HETATM   15  N3  UNL     1     -23.300  10.268 -13.847  1.00  0.00    -0.049 N
ATOM     16  H33 UNL     1     -23.263  11.075 -13.224  1.00  0.00     0.276 HD
ATOM     17  H32 UNL     1     -22.920  10.727 -14.675  1.00  0.00     0.276 HD
ATOM     18  H31 UNL     1     -24.244   9.909 -13.984  1.00  0.00     0.276 HD
ENDBRANCH  10  15
ENDBRANCH   1  10
TORSDOF 4
ENDMDL