MODEL 5
REMARK VINA RESULT: -5.064641879      2.670      3.452
REMARK  4 active torsions:
REMARK  status: ('A' for Active; 'I' for Inactive)
REMARK    1  A    between atoms: O1_2  and  C2_3
REMARK    2  A    between atoms: C5_6  and  C6_7
REMARK    3  A    between atoms: C6_7  and  N1_8
REMARK    4  A    between atoms: C9_14  and  N2_15
ROOT
HETATM    1  C2  UNL     1     -24.966  10.272 -14.199  1.00  0.00     0.151 C
HETATM    2  C3  UNL     1     -24.156   9.398 -15.069  1.00  0.00     0.034 C
HETATM    3  C4  UNL     1     -23.345   8.351 -14.383  1.00  0.00     0.009 C
HETATM    4  C5  UNL     1     -24.192   7.319 -13.710  1.00  0.00     0.011 C
HETATM    5  C7  UNL     1     -25.155   7.893 -12.713  1.00  0.00     0.008 C
HETATM    6  C8  UNL     1     -24.488   9.059 -12.036  1.00  0.00     0.036 C
HETATM    7  C9  UNL     1     -24.588  10.341 -12.761  1.00  0.00     0.212 C
ENDROOT
BRANCH   4   8
HETATM    8  C6  UNL     1     -23.336   6.225 -13.119  1.00  0.00     0.234 C
BRANCH   8   9
HETATM    9  N1  UNL     1     -21.964   6.668 -12.962  1.00  0.00    -0.079 N
ATOM     10  H13 UNL     1     -21.519   6.236 -12.152  1.00  0.00     0.274 HD
ATOM     11  H12 UNL     1     -21.359   6.289 -13.690  1.00  0.00     0.274 HD
ATOM     12  H11 UNL     1     -21.911   7.686 -12.921  1.00  0.00     0.274 HD
ENDBRANCH   8   9
ENDBRANCH   4   8
BRANCH   1  13
HETATM   13  O1  UNL     1     -24.889  11.569 -14.711  1.00  0.00    -0.389 OA
HETATM   14  C1  UNL     1     -26.093  12.249 -14.597  1.00  0.00     0.202 C
ENDBRANCH   1  13
BRANCH   7  15
HETATM   15  N2  UNL     1     -23.312  11.055 -12.588  1.00  0.00    -0.073 N
ATOM     16  H23 UNL     1     -22.561  10.621 -13.125  1.00  0.00     0.274 HD
ATOM     17  H22 UNL     1     -23.324  11.966 -13.047  1.00  0.00     0.274 HD
ATOM     18  H21 UNL     1     -23.071  11.134 -11.600  1.00  0.00     0.274 HD
ENDBRANCH   7  15
TORSDOF 4
ENDMDL