MODEL 2
REMARK VINA RESULT: -5.113494922      6.886      9.121
REMARK  2 active torsions:
REMARK  status: ('A' for Active; 'I' for Inactive)
REMARK    1  A    between atoms: N1_2  and  N2_4
REMARK    2  A    between atoms: C2_6  and  C3_7
ROOT
HETATM    1  C3  UNL     1     -26.368  12.660  -7.653  1.00  0.00     0.247 C
HETATM    2  N3  UNL     1     -26.410  12.752  -6.215  1.00  0.00    -0.065 N
ATOM      3  H31 UNL     1     -27.342  12.584  -5.834  1.00  0.00     0.278 HD
ATOM      4  H32 UNL     1     -26.296  13.707  -5.875  1.00  0.00     0.278 HD
HETATM    5  C4  UNL     1     -25.419  11.848  -5.689  1.00  0.00     0.235 C
HETATM    6  C5  UNL     1     -24.965  10.990  -6.853  1.00  0.00     0.054 C
HETATM    7  C6  UNL     1     -25.001  12.042  -7.972  1.00  0.00     0.080 C
HETATM    8  C7  UNL     1     -24.959  11.426  -9.328  1.00  0.00     0.034 C
HETATM    9  C8  UNL     1     -23.944  12.995  -7.712  1.00  0.00     0.071 C
HETATM   10  N4  UNL     1     -23.089  13.741  -7.494  1.00  0.00    -0.196 NA
ENDROOT
BRANCH   1  11
HETATM   11  C2  UNL     1     -26.590  13.924  -8.337  1.00  0.00     0.114 C
HETATM   12  N2  UNL     1     -27.003  14.971  -7.748  1.00  0.00    -0.318 N
ATOM     13  H2  UNL     1     -27.188  14.924  -6.746  1.00  0.00     0.185 HD
BRANCH  12  14
HETATM   14  N1  UNL     1     -27.214  16.183  -8.411  1.00  0.00    -0.341 N
HETATM   15  C1  UNL     1     -26.464  16.585  -9.587  1.00  0.00     0.167 C
ATOM     16  H1  UNL     1     -27.929  16.816  -8.051  1.00  0.00     0.179 HD
ENDBRANCH  12  14
ENDBRANCH   1  11
TORSDOF 2
ENDMDL