MODEL 1
REMARK VINA RESULT: -5.515817553      0.000      0.000
REMARK  2 active torsions:
REMARK  status: ('A' for Active; 'I' for Inactive)
REMARK    1  A    between atoms: C3_3  and  O1_4
REMARK    2  A    between atoms: O1_4  and  C4_5
ROOT
HETATM    1  O1  UNL     1     -22.707   7.085 -13.421  1.00  0.00    -0.379 OA
ENDROOT
BRANCH   1   2
HETATM    2  C3  UNL     1     -23.482   8.232 -13.508  1.00  0.00     0.125 C
HETATM    3  C2  UNL     1     -22.650   9.484 -13.280  1.00  0.00     0.051 C
HETATM    4  C1  UNL     1     -23.705  10.599 -13.205  1.00  0.00     0.116 C
HETATM    5  N2  UNL     1     -24.169  10.794 -14.533  1.00  0.00    -0.421 N
HETATM    6  C9  UNL     1     -24.666   9.659 -15.210  1.00  0.00     0.116 C
ATOM      7  H2  UNL     1     -24.144  11.711 -14.978  1.00  0.00     0.153 HD
HETATM    8  C8  UNL     1     -24.146   8.338 -14.827  1.00  0.00     0.051 C
ENDBRANCH   1   2
BRANCH   1   9
HETATM    9  C4  UNL     1     -23.527   5.957 -13.370  1.00  0.00     0.149 C
HETATM   10  C5  UNL     1     -24.278   5.901 -12.049  1.00  0.00     0.061 C
HETATM   11  C6  UNL     1     -24.256   4.428 -11.735  1.00  0.00     0.235 C
HETATM   12  N1  UNL     1     -22.873   4.080 -12.069  1.00  0.00    -0.073 N
HETATM   13  C7  UNL     1     -22.771   4.670 -13.410  1.00  0.00     0.264 C
ATOM     14  H12 UNL     1     -22.166   4.380 -11.398  1.00  0.00     0.277 HD
ATOM     15  H11 UNL     1     -22.637   3.090 -12.002  1.00  0.00     0.277 HD
ENDBRANCH   1   9
TORSDOF 2
ENDMDL