MODEL 1
REMARK VINA RESULT: -4.959879175      0.000      0.000
REMARK  3 active torsions:
REMARK  status: ('A' for Active; 'I' for Inactive)
REMARK    1  A    between atoms: O1_2  and  C2_3
REMARK    2  A    between atoms: C2_3  and  C4_5
REMARK    3  A    between atoms: C8_11  and  N2_12
ROOT
HETATM    1  C4  UNL     1     -23.145   7.090 -13.204  1.00  0.00     0.135 C
HETATM    2  N1  UNL     1     -21.921   6.368 -13.082  1.00  0.00    -0.413 N
ATOM      3  H1  UNL     1     -21.012   6.828 -13.141  1.00  0.00     0.153 HD
HETATM    4  C5  UNL     1     -22.046   4.963 -12.872  1.00  0.00     0.114 C
HETATM    5  C6  UNL     1     -23.440   4.447 -12.858  1.00  0.00     0.021 C
HETATM    6  C7  UNL     1     -24.352   5.262 -11.980  1.00  0.00     0.036 C
HETATM    7  C8  UNL     1     -24.182   6.746 -12.186  1.00  0.00     0.208 C
ENDROOT
BRANCH   1   8
HETATM    8  C2  UNL     1     -22.800   8.570 -13.110  1.00  0.00     0.141 C
HETATM    9  C3  UNL     1     -23.124   9.191 -14.464  1.00  0.00     0.041 C
BRANCH   8  10
HETATM   10  O1  UNL     1     -23.442   9.210 -12.080  1.00  0.00    -0.389 OA
HETATM   11  C1  UNL     1     -23.743  10.514 -12.428  1.00  0.00     0.202 C
ENDBRANCH   8  10
ENDBRANCH   1   8
BRANCH   7  12
HETATM   12  N2  UNL     1     -25.475   7.272 -12.582  1.00  0.00    -0.073 N
ATOM     13  H23 UNL     1     -25.391   8.175 -13.049  1.00  0.00     0.274 HD
ATOM     14  H22 UNL     1     -25.882   6.741 -13.351  1.00  0.00     0.274 HD
ATOM     15  H21 UNL     1     -26.103   7.319 -11.778  1.00  0.00     0.274 HD
ENDBRANCH   7  12
TORSDOF 3
ENDMDL