MODEL 1
REMARK VINA RESULT: -4.943736976      0.000      0.000
REMARK  4 active torsions:
REMARK  status: ('A' for Active; 'I' for Inactive)
REMARK    1  A    between atoms: C2_2  and  O1_5
REMARK    2  A    between atoms: O1_5  and  C5_6
REMARK    3  A    between atoms: C5_6  and  C6_7
REMARK    4  A    between atoms: C8_9  and  N1_10
ROOT
HETATM    1  C6  UNL     1     -24.352   6.802 -12.659  1.00  0.00     0.211 C
HETATM    2  C7  UNL     1     -22.863   6.490 -12.831  1.00  0.00     0.069 C
HETATM    3  C8  UNL     1     -22.777   4.989 -12.801  1.00  0.00     0.211 C
HETATM    4  C9  UNL     1     -24.003   4.583 -12.052  1.00  0.00     0.265 C
HETATM    5  N2  UNL     1     -24.766   5.773 -11.762  1.00  0.00    -0.067 N
ATOM      6  H21 UNL     1     -25.772   5.611 -11.789  1.00  0.00     0.277 HD
ATOM      7  H22 UNL     1     -24.696   6.054 -10.784  1.00  0.00     0.277 HD
ENDROOT
BRANCH   1   8
HETATM    8  C5  UNL     1     -24.469   8.184 -12.119  1.00  0.00     0.201 C
BRANCH   8   9
HETATM    9  O1  UNL     1     -25.240   9.025 -12.879  1.00  0.00    -0.379 OA
BRANCH   9  10
HETATM   10  C2  UNL     1     -24.501   9.990 -13.515  1.00  0.00     0.050 C
HETATM   11  C1  UNL     1     -24.188   9.625 -14.967  1.00  0.00     0.045 C
HETATM   12  C3  UNL     1     -25.204  11.342 -13.565  1.00  0.00     0.045 C
HETATM   13  C4  UNL     1     -23.178  10.230 -12.821  1.00  0.00     0.045 C
ENDBRANCH   9  10
ENDBRANCH   8   9
ENDBRANCH   1   8
BRANCH   3  14
HETATM   14  N1  UNL     1     -22.824   4.394 -14.121  1.00  0.00    -0.073 N
ATOM     15  H13 UNL     1     -22.656   5.095 -14.842  1.00  0.00     0.274 HD
ATOM     16  H12 UNL     1     -22.014   3.794 -14.279  1.00  0.00     0.274 HD
ATOM     17  H11 UNL     1     -23.692   3.888 -14.298  1.00  0.00     0.274 HD
ENDBRANCH   3  14
TORSDOF 4
ENDMDL