MODEL 2
REMARK VINA RESULT: -5.501233534      1.057      1.613
REMARK  2 active torsions:
REMARK  status: ('A' for Active; 'I' for Inactive)
REMARK    1  A    between atoms: C2_2  and  C3_3
REMARK    2  A    between atoms: C2_2  and  C7_7
ROOT
HETATM    1  C7  UNL     1     -16.699 -17.965  16.825  1.00  0.00     0.227 C
HETATM    2  C8  UNL     1     -15.389 -17.269  16.931  1.00  0.00     0.088 C
HETATM    3  N1  UNL     1     -14.359 -17.965  17.595  1.00  0.00    -0.399 N
ATOM      4  H1  UNL     1     -13.395 -17.933  17.265  1.00  0.00     0.158 HD
HETATM    5  C9  UNL     1     -14.726 -18.716  18.746  1.00  0.00     0.146 C
HETATM    6  C10 UNL     1     -16.000 -19.501  18.540  1.00  0.00     0.252 C
HETATM    7  N2  UNL     1     -17.044 -18.583  18.114  1.00  0.00    -0.065 N
ATOM      8  H21 UNL     1     -17.958 -19.037  18.083  1.00  0.00     0.278 HD
ATOM      9  H22 UNL     1     -17.245 -17.882  18.827  1.00  0.00     0.278 HD
ENDROOT
BRANCH   1  10
HETATM   10  C2  UNL     1     -17.816 -17.015  16.498  1.00  0.00     0.021 C
HETATM   11  C1  UNL     1     -17.797 -15.812  17.402  1.00  0.00     0.012 C
BRANCH  10  12
HETATM   12  C3  UNL     1     -19.167 -17.662  16.458  1.00  0.00    -0.009 A
HETATM   13  C4  UNL     1     -19.616 -17.969  15.045  1.00  0.00     0.005 A
HETATM   14  C5  UNL     1     -20.739 -16.970  15.139  1.00  0.00     0.001 A
HETATM   15  C6  UNL     1     -20.344 -16.720  16.569  1.00  0.00     0.005 A
ENDBRANCH  10  12
ENDBRANCH   1  10
TORSDOF 2
ENDMDL