MODEL 3
REMARK VINA RESULT: -5.235112925      0.794      2.090
REMARK  2 active torsions:
REMARK  status: ('A' for Active; 'I' for Inactive)
REMARK    1  A    between atoms: N1_1  and  C1_5
REMARK    2  A    between atoms: C1_5  and  C2_6
ROOT
HETATM    1  C2  UNL     1     -24.306 -16.987  23.290  1.00  0.00     0.150 C
HETATM    2  C3  UNL     1     -23.947 -17.857  22.105  1.00  0.00     0.045 C
HETATM    3  C4  UNL     1     -23.030 -17.094  21.171  1.00  0.00    -0.010 C
HETATM    4  C5  UNL     1     -23.822 -15.899  20.658  1.00  0.00     0.009 C
HETATM    5  C6  UNL     1     -24.276 -15.056  21.812  1.00  0.00    -0.010 C
HETATM    6  C7  UNL     1     -23.026 -14.537  22.507  1.00  0.00     0.037 C
HETATM    7  C8  UNL     1     -22.291 -15.717  23.057  1.00  0.00     0.187 C
HETATM    8  C9  UNL     1     -21.829 -16.604  21.911  1.00  0.00     0.037 C
HETATM    9  N2  UNL     1     -23.106 -16.482  23.954  1.00  0.00    -0.060 N
ATOM     10  H21 UNL     1     -22.575 -17.237  24.389  1.00  0.00     0.278 HD
ATOM     11  H22 UNL     1     -23.339 -15.950  24.793  1.00  0.00     0.278 HD
HETATM   12  C10 UNL     1     -25.092 -15.820  22.819  1.00  0.00     0.045 C
ENDROOT
BRANCH   1  13
HETATM   13  C1  UNL     1     -25.033 -17.855  24.286  1.00  0.00     0.268 C
BRANCH  13  14
HETATM   14  N1  UNL     1     -25.670 -18.974  23.586  1.00  0.00    -0.077 N
ATOM     15  H13 UNL     1     -25.536 -18.923  22.575  1.00  0.00     0.274 HD
ATOM     16  H12 UNL     1     -25.189 -19.858  23.752  1.00  0.00     0.274 HD
ATOM     17  H11 UNL     1     -26.657 -19.017  23.842  1.00  0.00     0.274 HD
ENDBRANCH  13  14
ENDBRANCH   1  13
TORSDOF 2
ENDMDL