MODEL 4
REMARK VINA RESULT: -5.128997750      7.076      8.850
REMARK  2 active torsions:
REMARK  status: ('A' for Active; 'I' for Inactive)
REMARK    1  A    between atoms: N1_2  and  C2_5
REMARK    2  A    between atoms: C2_5  and  C3_6
ROOT
HETATM    1  C3  UNL     1     -23.574 -17.648  24.139  1.00  0.00     0.012 C
HETATM    2  C4  UNL     1     -22.335 -17.324  24.905  1.00  0.00     0.006 C
HETATM    3  C5  UNL     1     -21.383 -16.599  23.941  1.00  0.00     0.001 C
HETATM    4  C6  UNL     1     -21.672 -16.955  22.498  1.00  0.00     0.013 C
HETATM    5  C7  UNL     1     -23.031 -16.466  22.098  1.00  0.00     0.008 C
HETATM    6  C8  UNL     1     -23.675 -17.194  20.945  1.00  0.00     0.243 C
HETATM    7  N2  UNL     1     -22.959 -16.265  20.059  1.00  0.00    -0.074 N
ATOM      8  H21 UNL     1     -23.293 -16.056  19.118  1.00  0.00     0.277 HD
ATOM      9  H22 UNL     1     -22.057 -16.505  19.647  1.00  0.00     0.277 HD
HETATM   10  C9  UNL     1     -23.073 -15.290  21.153  1.00  0.00     0.243 C
HETATM   11  C10 UNL     1     -23.922 -16.418  23.282  1.00  0.00     0.019 C
ENDROOT
BRANCH   1  12
HETATM   12  C2  UNL     1     -24.760 -17.983  25.012  1.00  0.00     0.236 C
BRANCH  12  13
HETATM   13  N1  UNL     1     -25.778 -18.500  24.108  1.00  0.00    -0.079 N
HETATM   14  C1  UNL     1     -25.210 -19.656  23.430  1.00  0.00     0.267 C
ATOM     15  H12 UNL     1     -26.133 -17.794  23.463  1.00  0.00     0.276 HD
ATOM     16  H11 UNL     1     -26.659 -18.707  24.577  1.00  0.00     0.276 HD
ENDBRANCH  12  13
ENDBRANCH   1  12
TORSDOF 2
ENDMDL