MODEL 4
REMARK VINA RESULT: -5.041901349      1.567      4.992
REMARK  2 active torsions:
REMARK  status: ('A' for Active; 'I' for Inactive)
REMARK    1  A    between atoms: C4_4  and  C5_5
REMARK    2  A    between atoms: C5_5  and  C6_6
ROOT
HETATM    1  C1  UNL     1     -15.855 -19.451  18.553  1.00  0.00     0.012 C
HETATM    2  C2  UNL     1     -16.621 -18.182  18.404  1.00  0.00     0.014 C
HETATM    3  C3  UNL     1     -17.998 -18.495  17.827  1.00  0.00     0.039 C
HETATM    4  C4  UNL     1     -17.996 -17.927  16.427  1.00  0.00     0.188 C
HETATM    5  N2  UNL     1     -16.644 -17.556  16.127  1.00  0.00    -0.067 N
ATOM      6  H21 UNL     1     -16.558 -16.818  15.428  1.00  0.00     0.278 HD
ATOM      7  H22 UNL     1     -16.122 -18.262  15.607  1.00  0.00     0.278 HD
HETATM    8  C9  UNL     1     -16.079 -17.228  17.403  1.00  0.00     0.186 C
HETATM    9  C10 UNL     1     -14.581 -17.186  17.328  1.00  0.00     0.040 C
ENDROOT
BRANCH   4  10
HETATM   10  C5  UNL     1     -18.902 -16.745  16.287  1.00  0.00     0.066 C
BRANCH  10  11
HETATM   11  C6  UNL     1     -20.349 -17.138  16.214  1.00  0.00     0.189 C
HETATM   12  C7  UNL     1     -20.805 -17.943  15.045  1.00  0.00     0.060 C
HETATM   13  C8  UNL     1     -22.067 -17.064  15.111  1.00  0.00     0.235 C
HETATM   14  N1  UNL     1     -21.220 -16.067  15.753  1.00  0.00    -0.071 N
ATOM     15  H12 UNL     1     -21.618 -15.402  16.417  1.00  0.00     0.277 HD
ATOM     16  H11 UNL     1     -20.841 -15.289  15.214  1.00  0.00     0.277 HD
ENDBRANCH  10  11
ENDBRANCH   4  10
TORSDOF 2
ENDMDL