MODEL 5
REMARK VINA RESULT: -4.947353996      1.964      2.825
REMARK  2 active torsions:
REMARK  status: ('A' for Active; 'I' for Inactive)
REMARK    1  A    between atoms: N1_2  and  C2_5
REMARK    2  A    between atoms: C2_5  and  C3_6
ROOT
HETATM    1  C3  UNL     1     -24.586 -17.091  21.283  1.00  0.00     0.106 C
HETATM    2  C4  UNL     1     -23.081 -17.333  21.182  1.00  0.00     0.027 C
HETATM    3  C5  UNL     1     -22.155 -16.348  21.757  1.00  0.00     0.002 C
HETATM    4  C6  UNL     1     -21.670 -16.627  23.214  1.00  0.00     0.000 C
HETATM    5  C7  UNL     1     -22.886 -17.139  23.788  1.00  0.00     0.000 C
HETATM    6  C8  UNL     1     -23.356 -17.537  25.082  1.00  0.00     0.005 C
HETATM    7  C9  UNL     1     -24.786 -18.053  24.756  1.00  0.00     0.044 C
HETATM    8  C10 UNL     1     -25.462 -17.372  23.594  1.00  0.00     0.056 C
HETATM    9  N2  UNL     1     -25.250 -17.814  22.290  1.00  0.00    -0.396 N
ATOM     10  H2  UNL     1     -25.606 -18.738  22.045  1.00  0.00     0.159 HD
ENDROOT
BRANCH   1  11
HETATM   11  C2  UNL     1     -25.214 -17.658  19.986  1.00  0.00     0.256 C
BRANCH  11  12
HETATM   12  N1  UNL     1     -26.452 -18.232  20.225  1.00  0.00    -0.077 N
HETATM   13  C1  UNL     1     -27.355 -18.148  19.130  1.00  0.00     0.267 C
ATOM     14  H12 UNL     1     -26.872 -17.835  21.066  1.00  0.00     0.276 HD
ATOM     15  H11 UNL     1     -26.343 -19.201  20.525  1.00  0.00     0.276 HD
ENDBRANCH  11  12
ENDBRANCH   1  11
TORSDOF 2
ENDMDL