MODEL 1
REMARK VINA RESULT: -4.747025438      0.000      0.000
REMARK  3 active torsions:
REMARK  status: ('A' for Active; 'I' for Inactive)
REMARK    1  A    between atoms: N1_2  and  C3_4
REMARK    2  A    between atoms: C3_4  and  C4_5
REMARK    3  A    between atoms: C9_10  and  N2_11
ROOT
HETATM    1  C4  UNL     1     -17.025 -17.427  17.172  1.00  0.00     0.054 C
HETATM    2  C5  UNL     1     -15.725 -17.749  16.523  1.00  0.00     0.012 C
HETATM    3  C6  UNL     1     -14.559 -17.926  17.464  1.00  0.00     0.001 C
HETATM    4  C7  UNL     1     -14.866 -18.691  18.703  1.00  0.00     0.002 C
HETATM    5  C8  UNL     1     -16.176 -19.439  18.441  1.00  0.00     0.033 C
HETATM    6  C9  UNL     1     -17.228 -18.350  18.358  1.00  0.00     0.192 C
ENDROOT
BRANCH   1   7
HETATM    7  C3  UNL     1     -18.147 -17.498  16.199  1.00  0.00     0.064 C
BRANCH   7   8
HETATM    8  N1  UNL     1     -19.087 -16.484  16.128  1.00  0.00    -0.401 N
HETATM    9  C1  UNL     1     -20.380 -16.637  15.647  1.00  0.00     0.148 C
HETATM   10  C2  UNL     1     -18.892 -15.300  16.897  1.00  0.00     0.148 C
ENDBRANCH   7   8
ENDBRANCH   1   7
BRANCH   6  11
HETATM   11  N2  UNL     1     -18.517 -19.012  18.316  1.00  0.00    -0.074 N
ATOM     12  H23 UNL     1     -18.754 -19.419  19.221  1.00  0.00     0.274 HD
ATOM     13  H22 UNL     1     -19.277 -18.338  18.239  1.00  0.00     0.274 HD
ATOM     14  H21 UNL     1     -18.563 -19.709  17.572  1.00  0.00     0.274 HD
ENDBRANCH   6  11
TORSDOF 3
ENDMDL