MODEL 3
REMARK VINA RESULT: -4.916351100      6.408      8.101
REMARK  3 active torsions:
REMARK  status: ('A' for Active; 'I' for Inactive)
REMARK    1  A    between atoms: C2_2  and  C4_4
REMARK    2  A    between atoms: C6_6  and  C7_7
REMARK    3  A    between atoms: C7_7  and  N1_8
ROOT
HETATM    1  C4  UNL     1     -22.964 -16.440  21.843  1.00  0.00     0.129 C
HETATM    2  C5  UNL     1     -23.897 -17.585  22.175  1.00  0.00     0.046 C
HETATM    3  C6  UNL     1     -23.593 -17.754  23.673  1.00  0.00     0.019 C
HETATM    4  C8  UNL     1     -22.815 -16.557  24.084  1.00  0.00     0.019 C
HETATM    5  C9  UNL     1     -21.396 -16.733  23.562  1.00  0.00     0.238 C
HETATM    6  N2  UNL     1     -21.631 -16.874  22.136  1.00  0.00    -0.066 N
ATOM      7  H21 UNL     1     -20.930 -16.388  21.576  1.00  0.00     0.278 HD
ATOM      8  H22 UNL     1     -21.448 -17.820  21.802  1.00  0.00     0.278 HD
HETATM    9  C10 UNL     1     -23.291 -15.528  23.040  1.00  0.00     0.046 C
ENDROOT
BRANCH   3  10
HETATM   10  C7  UNL     1     -24.850 -17.967  24.464  1.00  0.00     0.234 C
BRANCH  10  11
HETATM   11  N1  UNL     1     -25.679 -19.013  23.952  1.00  0.00    -0.079 N
ATOM     12  H13 UNL     1     -25.342 -19.327  23.042  1.00  0.00     0.274 HD
ATOM     13  H12 UNL     1     -25.548 -19.871  24.488  1.00  0.00     0.274 HD
ATOM     14  H11 UNL     1     -26.667 -18.766  23.905  1.00  0.00     0.274 HD
ENDBRANCH  10  11
ENDBRANCH   3  10
BRANCH   1  15
HETATM   15  C2  UNL     1     -23.180 -15.802  20.548  1.00  0.00     0.013 C
HETATM   16  C1  UNL     1     -24.298 -16.487  19.805  1.00  0.00     0.012 C
HETATM   17  C3  UNL     1     -21.933 -15.966  19.691  1.00  0.00     0.012 C
ENDBRANCH   1  15
TORSDOF 3
ENDMDL