MODEL 1
REMARK VINA RESULT: -5.256083945      0.000      0.000
REMARK  3 active torsions:
REMARK  status: ('A' for Active; 'I' for Inactive)
REMARK    1  A    between atoms: C3_3  and  C4_4
REMARK    2  A    between atoms: C4_4  and  N1_5
REMARK    3  A    between atoms: C7_11  and  N2_12
ROOT
HETATM    1  C1  UNL     1     -20.085 -18.341  15.045  1.00  0.00     0.012 C
HETATM    2  C2  UNL     1     -19.702 -17.299  15.520  1.00  0.00    -0.115 C
HETATM    3  C3  UNL     1     -19.230 -16.043  16.112  1.00  0.00     0.131 C
ENDROOT
BRANCH   3   4
HETATM    4  C4  UNL     1     -18.201 -16.354  17.211  1.00  0.00     0.134 C
HETATM    5  C5  UNL     1     -17.035 -16.998  16.506  1.00  0.00     0.041 C
HETATM    6  C6  UNL     1     -16.130 -17.692  17.508  1.00  0.00     0.027 C
HETATM    7  C7  UNL     1     -16.981 -18.796  18.095  1.00  0.00     0.076 C
HETATM    8  C9  UNL     1     -17.995 -18.138  18.981  1.00  0.00     0.027 C
HETATM    9  C10 UNL     1     -18.863 -17.182  18.235  1.00  0.00     0.041 C
BRANCH   4  10
HETATM   10  N1  UNL     1     -17.736 -15.053  17.682  1.00  0.00    -0.070 N
ATOM     11  H13 UNL     1     -16.746 -14.882  17.507  1.00  0.00     0.275 HD
ATOM     12  H12 UNL     1     -18.092 -14.268  17.137  1.00  0.00     0.275 HD
ATOM     13  H11 UNL     1     -17.992 -15.018  18.669  1.00  0.00     0.275 HD
ENDBRANCH   4  10
BRANCH   7  14
HETATM   14  N2  UNL     1     -16.239 -19.839  18.696  1.00  0.00    -0.421 N
HETATM   15  C8  UNL     1     -14.954 -19.461  19.205  1.00  0.00     0.140 C
ATOM     16  H2  UNL     1     -16.593 -20.793  18.763  1.00  0.00     0.153 HD
ENDBRANCH   7  14
ENDBRANCH   3   4
TORSDOF 3
ENDMDL