MODEL 5
REMARK VINA RESULT: -4.658108988      1.785      2.318
REMARK  2 active torsions:
REMARK  status: ('A' for Active; 'I' for Inactive)
REMARK    1  A    between atoms: C2_2  and  C3_3
REMARK    2  A    between atoms: C2_2  and  C4_5
ROOT
HETATM    1  C4  UNL     1     -17.523 -18.451  17.297  1.00  0.00     0.021 C
HETATM    2  C5  UNL     1     -18.808 -18.343  18.071  1.00  0.00     0.013 C
HETATM    3  C6  UNL     1     -19.397 -17.694  16.810  1.00  0.00     0.018 C
HETATM    4  C7  UNL     1     -20.187 -16.462  17.038  1.00  0.00     0.034 C
HETATM    5  C8  UNL     1     -19.182 -15.341  16.919  1.00  0.00     0.233 C
HETATM    6  N1  UNL     1     -17.874 -15.984  17.122  1.00  0.00    -0.070 N
ATOM      7  H11 UNL     1     -17.591 -16.031  18.100  1.00  0.00     0.277 HD
ATOM      8  H12 UNL     1     -17.089 -15.422  16.793  1.00  0.00     0.277 HD
HETATM    9  C9  UNL     1     -17.964 -17.263  16.490  1.00  0.00     0.194 C
ENDROOT
BRANCH   1  10
HETATM   10  C2  UNL     1     -16.261 -18.321  18.068  1.00  0.00    -0.002 C
HETATM   11  C1  UNL     1     -16.103 -19.553  18.939  1.00  0.00     0.011 C
BRANCH  10  12
HETATM   12  C3  UNL     1     -15.104 -18.331  17.079  1.00  0.00     0.090 C
HETATM   13  S1  UNL     1     -14.349 -16.702  16.921  1.00  0.00    -0.097 SA
ENDBRANCH  10  12
ENDBRANCH   1  10
TORSDOF 2
ENDMDL