MODEL 2
REMARK VINA RESULT: -5.007171262      1.361      3.675
REMARK  4 active torsions:
REMARK  status: ('A' for Active; 'I' for Inactive)
REMARK    1  A    between atoms: C2_2  and  C3_3
REMARK    2  A    between atoms: C3_3  and  N1_4
REMARK    3  A    between atoms: C3_3  and  C4_8
REMARK    4  A    between atoms: C4_8  and  N2_9
ROOT
HETATM    1  C4  UNL     1     -18.927 -16.447  16.890  1.00  0.00     0.158 C
HETATM    2  C5  UNL     1     -18.417 -17.728  16.213  1.00  0.00     0.024 C
HETATM    3  C6  UNL     1     -18.769 -18.748  17.254  1.00  0.00     0.007 C
HETATM    4  C7  UNL     1     -18.519 -18.012  18.579  1.00  0.00     0.007 C
HETATM    5  C8  UNL     1     -18.146 -16.613  18.174  1.00  0.00     0.024 C
HETATM    6  C9  UNL     1     -16.727 -16.693  17.609  1.00  0.00     0.007 C
HETATM    7  C10 UNL     1     -16.925 -17.483  16.313  1.00  0.00     0.007 C
ENDROOT
BRANCH   1   8
HETATM    8  C3  UNL     1     -20.402 -16.453  17.072  1.00  0.00     0.219 C
BRANCH   8   9
HETATM    9  C2  UNL     1     -20.758 -15.356  18.051  1.00  0.00     0.031 C
HETATM   10  C1  UNL     1     -21.744 -15.825  19.100  1.00  0.00     0.007 C
ENDBRANCH   8   9
BRANCH   8  11
HETATM   11  N1  UNL     1     -20.988 -16.163  15.781  1.00  0.00    -0.073 N
ATOM     12  H13 UNL     1     -21.992 -16.341  15.766  1.00  0.00     0.274 HD
ATOM     13  H12 UNL     1     -21.014 -15.162  15.587  1.00  0.00     0.274 HD
ATOM     14  H11 UNL     1     -20.495 -16.683  15.055  1.00  0.00     0.274 HD
ENDBRANCH   8  11
ENDBRANCH   1   8
BRANCH   1  15
HETATM   15  N2  UNL     1     -18.522 -15.331  16.104  1.00  0.00    -0.068 N
ATOM     16  H23 UNL     1     -17.667 -15.526  15.584  1.00  0.00     0.275 HD
ATOM     17  H22 UNL     1     -19.149 -15.178  15.314  1.00  0.00     0.275 HD
ATOM     18  H21 UNL     1     -18.432 -14.496  16.683  1.00  0.00     0.275 HD
ENDBRANCH   1  15
TORSDOF 4
ENDMDL