MODEL 2
REMARK VINA RESULT: -6.848593528      1.092      1.232
REMARK  12 active torsions:
REMARK  status: ('A' for Active; 'I' for Inactive)
REMARK    1  A    between atoms: C2_2  and  N1_3
REMARK    2  A    between atoms: C2_2  and  C6_12
REMARK       I    between atoms: N1_3  and  C3_5
REMARK    3  A    between atoms: C3_5  and  C4_7
REMARK    4  A    between atoms: C4_7  and  N2_8
REMARK    5  A    between atoms: N2_8  and  C5_10
REMARK       I    between atoms: C6_12  and  N3_14
REMARK    6  A    between atoms: N3_14  and  C7_16
REMARK    7  A    between atoms: C7_16  and  C8_17
REMARK    8  A    between atoms: C8_17  and  O4_18
REMARK    9  A    between atoms: C8_17  and  N4_20
REMARK   10  A    between atoms: N4_20  and  N5_21
REMARK   11  A    between atoms: N5_21  and  C9_22
REMARK   12  A    between atoms: C9_22  and  N6_23
ROOT
HETATM    1  C6  UNL     1      59.789  36.902  46.252  1.00  0.00     0.240 C
HETATM    2  O3  UNL     1      59.832  35.739  45.787  1.00  0.00    -0.271 OA
HETATM    3  N3  UNL     1      59.673  37.987  45.352  1.00  0.00    -0.356 N
ATOM      4  H3  UNL     1      59.636  38.940  45.715  1.00  0.00     0.162 HD
ENDROOT
BRANCH   3   5
HETATM    5  C7  UNL     1      59.605  37.764  43.924  1.00  0.00     0.173 C
BRANCH   5   6
HETATM    6  C8  UNL     1      58.162  37.686  43.480  1.00  0.00     0.244 C
BRANCH   6   7
HETATM    7  O4  UNL     1      57.898  38.636  42.491  1.00  0.00    -0.377 OA
ATOM      8  H4  UNL     1      57.407  39.365  42.850  1.00  0.00     0.211 HD
ENDBRANCH   6   7
BRANCH   6   9
HETATM    9  N4  UNL     1      57.981  36.360  42.864  1.00  0.00    -0.113 NA
BRANCH   9  10
HETATM   10  N5  UNL     1      59.040  36.090  41.991  1.00  0.00    -0.125 NA
BRANCH  10  11
HETATM   11  C9  UNL     1      58.618  35.175  40.956  1.00  0.00     0.268 C
BRANCH  11  12
HETATM   12  N6  UNL     1      58.327  35.932  39.792  1.00  0.00    -0.327 N
HETATM   13  N7  UNL     1      58.037  37.137  39.894  1.00  0.00    -0.348 N
ATOM     14  H72 UNL     1      58.014  37.565  40.819  1.00  0.00     0.176 HD
ATOM     15  H71 UNL     1      57.828  37.681  39.057  1.00  0.00     0.176 HD
ATOM     16  H6  UNL     1      58.355  35.488  38.873  1.00  0.00     0.181 HD
ENDBRANCH  11  12
ENDBRANCH  10  11
ENDBRANCH   9  10
ENDBRANCH   6   9
ENDBRANCH   5   6
ENDBRANCH   3   5
BRANCH   1  17
HETATM   17  C2  UNL     1      59.860  37.096  47.703  1.00  0.00     0.172 C
HETATM   18  C1  UNL     1      60.623  38.367  48.038  1.00  0.00     0.042 C
BRANCH  17  19
HETATM   19  N1  UNL     1      60.463  35.946  48.380  1.00  0.00    -0.347 N
HETATM   20  C3  UNL     1      59.818  35.198  49.348  1.00  0.00     0.236 C
HETATM   21  O1  UNL     1      58.624  35.550  49.653  1.00  0.00    -0.272 OA
ATOM     22  H1  UNL     1      61.413  35.682  48.122  1.00  0.00     0.163 HD
BRANCH  20  23
HETATM   23  C4  UNL     1      60.361  34.058  50.049  1.00  0.00     0.224 C
BRANCH  23  24
HETATM   24  N2  UNL     1      60.514  34.290  51.461  1.00  0.00    -0.359 N
ATOM     25  H2  UNL     1      60.064  33.675  52.139  1.00  0.00     0.162 HD
BRANCH  24  26
HETATM   26  C5  UNL     1      61.317  35.411  51.907  1.00  0.00     0.348 C
HETATM   27  O2  UNL     1      60.994  36.042  52.946  1.00  0.00    -0.284 OA
ENDBRANCH  24  26
ENDBRANCH  23  24
ENDBRANCH  20  23
ENDBRANCH  17  19
ENDBRANCH   1  17
TORSDOF 12
ENDMDL