MODEL 1
REMARK VINA RESULT: -6.324741279      0.000      0.000
REMARK  14 active torsions:
REMARK  status: ('A' for Active; 'I' for Inactive)
REMARK    1  A    between atoms: N1_1  and  C1_5
REMARK    2  A    between atoms: C1_5  and  C2_6
REMARK    3  A    between atoms: C2_6  and  N5_21
REMARK    4  A    between atoms: C3_7  and  C4_8
REMARK    5  A    between atoms: C4_8  and  N2_9
REMARK    6  A    between atoms: C4_8  and  C5_13
REMARK    7  A    between atoms: C5_13  and  N3_14
REMARK    8  A    between atoms: C5_13  and  C7_18
REMARK    9  A    between atoms: N3_14  and  C6_15
REMARK   10  A    between atoms: C6_15  and  O1_16
REMARK   11  A    between atoms: N5_21  and  C8_23
REMARK   12  A    between atoms: C8_23  and  C9_24
REMARK   13  A    between atoms: C8_23  and  C10_29
REMARK   14  A    between atoms: C9_24  and  N6_25
ROOT
HETATM    1  C2  UNL     1      60.057  38.214  46.063  1.00  0.00     0.033 C
HETATM    2  C3  UNL     1      60.644  37.816  47.273  1.00  0.00     0.036 C
ENDROOT
BRANCH   1   3
HETATM    3  C1  UNL     1      59.857  37.218  45.015  1.00  0.00     0.286 C
BRANCH   3   4
HETATM    4  N1  UNL     1      58.382  36.901  44.929  1.00  0.00    -0.074 N
ATOM      5  H13 UNL     1      58.142  36.382  44.084  1.00  0.00     0.274 HD
ATOM      6  H12 UNL     1      58.093  36.199  45.610  1.00  0.00     0.274 HD
ATOM      7  H11 UNL     1      57.856  37.771  45.016  1.00  0.00     0.274 HD
ENDBRANCH   3   4
ENDBRANCH   1   3
BRANCH   1   8
HETATM    8  N5  UNL     1      60.539  39.466  45.504  1.00  0.00    -0.356 N
ATOM      9  H5  UNL     1      61.532  39.696  45.538  1.00  0.00     0.166 HD
BRANCH   8  10
HETATM   10  C8  UNL     1      59.648  40.337  44.929  1.00  0.00     0.100 C
BRANCH  10  11
HETATM   11  C9  UNL     1      58.349  40.611  45.567  1.00  0.00     0.291 C
BRANCH  11  12
HETATM   12  N6  UNL     1      57.627  41.613  44.656  1.00  0.00    -0.074 N
ATOM     13  H63 UNL     1      57.713  42.580  44.968  1.00  0.00     0.274 HD
ATOM     14  H62 UNL     1      58.079  41.734  43.749  1.00  0.00     0.274 HD
ATOM     15  H61 UNL     1      56.662  41.291  44.589  1.00  0.00     0.274 HD
ENDBRANCH  11  12
ENDBRANCH  10  11
BRANCH  10  16
HETATM   16  C10 UNL     1      59.910  41.031  43.687  1.00  0.00     0.279 C
HETATM   17  N7  UNL     1      60.630  42.351  43.804  1.00  0.00    -0.056 NA
HETATM   18  O3  UNL     1      59.654  40.684  42.537  1.00  0.00    -0.270 OA
ENDBRANCH  10  16
ENDBRANCH   8  10
ENDBRANCH   1   8
BRANCH   2  19
HETATM   19  C4  UNL     1      59.962  36.745  48.147  1.00  0.00     0.252 C
BRANCH  19  20
HETATM   20  N2  UNL     1      60.273  35.361  47.607  1.00  0.00    -0.068 N
ATOM     21  H23 UNL     1      61.258  35.120  47.715  1.00  0.00     0.275 HD
ATOM     22  H22 UNL     1      59.876  34.624  48.190  1.00  0.00     0.275 HD
ATOM     23  H21 UNL     1      59.965  35.289  46.637  1.00  0.00     0.275 HD
ENDBRANCH  19  20
BRANCH  19  24
HETATM   24  C5  UNL     1      60.493  36.808  49.483  1.00  0.00     0.287 C
BRANCH  24  25
HETATM   25  N3  UNL     1      60.950  35.663  50.375  1.00  0.00    -0.420 NA
BRANCH  25  26
HETATM   26  C6  UNL     1      61.380  34.765  51.086  1.00  0.00     0.310 C
BRANCH  26  27
HETATM   27  O1  UNL     1      62.035  34.682  52.225  1.00  0.00    -0.346 OA
ATOM     28  H1  UNL     1      62.307  33.988  52.813  1.00  0.00     0.219 HD
ENDBRANCH  26  27
ENDBRANCH  25  26
ENDBRANCH  24  25
BRANCH  24  29
HETATM   29  C7  UNL     1      58.983  36.454  50.322  1.00  0.00     0.269 C
HETATM   30  N4  UNL     1      58.667  37.291  51.395  1.00  0.00    -0.059 NA
HETATM   31  O2  UNL     1      58.378  35.602  49.862  1.00  0.00    -0.273 OA
ENDBRANCH  24  29
ENDBRANCH  19  24
ENDBRANCH   2  19
TORSDOF 14
ENDMDL