MODEL 2
REMARK VINA RESULT: -6.144544733      1.309      2.517
REMARK  12 active torsions:
REMARK  status: ('A' for Active; 'I' for Inactive)
REMARK    1  A    between atoms: N1_1  and  N2_4
REMARK    2  A    between atoms: N2_4  and  C1_5
REMARK    3  A    between atoms: C1_5  and  C2_6
REMARK    4  A    between atoms: C2_6  and  N3_7
REMARK    5  A    between atoms: C2_6  and  C7_17
REMARK    6  A    between atoms: N3_7  and  C3_9
REMARK    7  A    between atoms: C3_9  and  C4_10
REMARK    8  A    between atoms: C3_9  and  C6_14
REMARK    9  A    between atoms: C4_10  and  C5_11
REMARK   10  A    between atoms: C7_17  and  N6_18
REMARK   11  A    between atoms: C7_17  and  C9_22
REMARK   12  A    between atoms: N6_18  and  C8_20
ROOT
HETATM    1  C2  UNL     1      59.435  36.237  49.740  1.00  0.00     0.125 C
ENDROOT
BRANCH   1   2
HETATM    2  C1  UNL     1      58.767  37.000  50.851  1.00  0.00     0.161 C
BRANCH   2   3
HETATM    3  N2  UNL     1      58.371  35.946  51.854  1.00  0.00    -0.146 NA
BRANCH   3   4
HETATM    4  N1  UNL     1      59.127  36.097  53.012  1.00  0.00    -0.348 N
ATOM      5  H12 UNL     1      60.147  36.117  53.036  1.00  0.00     0.172 HD
ATOM      6  H11 UNL     1      58.507  36.182  53.817  1.00  0.00     0.172 HD
ENDBRANCH   3   4
ENDBRANCH   2   3
ENDBRANCH   1   2
BRANCH   1   7
HETATM    7  N3  UNL     1      60.151  36.991  48.844  1.00  0.00    -0.401 N
ATOM      8  H3  UNL     1      61.103  37.167  49.164  1.00  0.00     0.154 HD
BRANCH   7   9
HETATM    9  C3  UNL     1      59.901  37.567  47.622  1.00  0.00     0.175 C
BRANCH   9  10
HETATM   10  C4  UNL     1      60.986  38.523  47.236  1.00  0.00     0.133 C
BRANCH  10  11
HETATM   11  C5  UNL     1      60.521  39.768  46.607  1.00  0.00     0.233 C
HETATM   12  N4  UNL     1      61.036  40.418  45.490  1.00  0.00    -0.062 NA
HETATM   13  O1  UNL     1      59.507  40.302  47.176  1.00  0.00    -0.277 OA
ENDBRANCH  10  11
ENDBRANCH   9  10
BRANCH   9  14
HETATM   14  C6  UNL     1      59.528  36.654  46.525  1.00  0.00     0.254 C
HETATM   15  N5  UNL     1      58.502  37.023  45.579  1.00  0.00    -0.060 NA
HETATM   16  O2  UNL     1      60.054  35.503  46.302  1.00  0.00    -0.275 OA
ENDBRANCH   9  14
ENDBRANCH   7   9
ENDBRANCH   1   7
BRANCH   1  17
HETATM   17  C7  UNL     1      60.152  34.998  50.264  1.00  0.00     0.196 C
BRANCH  17  18
HETATM   18  N6  UNL     1      60.455  34.106  49.177  1.00  0.00    -0.353 N
ATOM     19  H6  UNL     1      60.696  34.587  48.310  1.00  0.00     0.162 HD
BRANCH  18  20
HETATM   20  C8  UNL     1      60.485  32.757  49.071  1.00  0.00     0.349 C
HETATM   21  O3  UNL     1      59.837  31.836  49.588  1.00  0.00    -0.284 OA
ENDBRANCH  18  20
ENDBRANCH  17  18
BRANCH  17  22
HETATM   22  C9  UNL     1      61.378  35.400  50.936  1.00  0.00     0.256 C
HETATM   23  N7  UNL     1      61.778  34.544  52.035  1.00  0.00    -0.060 NA
HETATM   24  O4  UNL     1      62.154  36.364  50.717  1.00  0.00    -0.274 OA
ENDBRANCH  17  22
ENDBRANCH   1  17
TORSDOF 12
ENDMDL