MODEL 1
REMARK VINA RESULT: -6.304017177      0.000      0.000
REMARK  15 active torsions:
REMARK  status: ('A' for Active; 'I' for Inactive)
REMARK    1  A    between atoms: N1_1  and  C1_5
REMARK    2  A    between atoms: C1_5  and  C2_6
REMARK    3  A    between atoms: C2_6  and  N2_7
REMARK    4  A    between atoms: N2_7  and  C3_9
REMARK    5  A    between atoms: C3_9  and  C4_10
REMARK    6  A    between atoms: C4_10  and  N3_11
REMARK    7  A    between atoms: C4_10  and  C9_23
REMARK    8  A    between atoms: N3_11  and  C5_13
REMARK    9  A    between atoms: C5_13  and  C6_14
REMARK   10  A    between atoms: C5_13  and  C8_20
REMARK   11  A    between atoms: C6_14  and  N4_15
REMARK   12  A    between atoms: N4_15  and  C7_17
REMARK   13  A    between atoms: C7_17  and  O1_18
REMARK   14  A    between atoms: C9_23  and  N6_24
REMARK   15  A    between atoms: C9_23  and  C10_28
ROOT
HETATM    1  C4  UNL     1      60.217  37.018  47.713  1.00  0.00     0.134 C
ENDROOT
BRANCH   1   2
HETATM    2  C3  UNL     1      61.079  38.212  47.470  1.00  0.00     0.141 C
BRANCH   2   3
HETATM    3  N2  UNL     1      60.462  39.424  47.073  1.00  0.00    -0.418 N
ATOM      4  H2  UNL     1      59.784  39.899  47.669  1.00  0.00     0.153 HD
BRANCH   3   5
HETATM    5  C2  UNL     1      60.837  39.949  45.793  1.00  0.00     0.141 C
BRANCH   5   6
HETATM    6  C1  UNL     1      59.745  40.371  44.890  1.00  0.00     0.248 C
BRANCH   6   7
HETATM    7  N1  UNL     1      58.515  40.451  45.690  1.00  0.00    -0.078 N
ATOM      8  H13 UNL     1      58.082  39.540  45.844  1.00  0.00     0.274 HD
ATOM      9  H12 UNL     1      58.691  40.682  46.668  1.00  0.00     0.274 HD
ATOM     10  H11 UNL     1      57.893  41.116  45.231  1.00  0.00     0.274 HD
ENDBRANCH   6   7
ENDBRANCH   5   6
ENDBRANCH   3   5
ENDBRANCH   2   3
ENDBRANCH   1   2
BRANCH   1  11
HETATM   11  N3  UNL     1      60.581  36.061  48.689  1.00  0.00    -0.397 N
ATOM     12  H3  UNL     1      61.555  35.915  48.955  1.00  0.00     0.154 HD
BRANCH  11  13
HETATM   13  C5  UNL     1      59.499  35.294  49.297  1.00  0.00     0.206 C
BRANCH  13  14
HETATM   14  C6  UNL     1      58.794  36.020  50.349  1.00  0.00     0.091 C
BRANCH  14  15
HETATM   15  N4  UNL     1      58.812  35.707  51.722  1.00  0.00    -0.379 N
ATOM     16  H4  UNL     1      58.208  34.986  52.116  1.00  0.00     0.160 HD
BRANCH  15  17
HETATM   17  C7  UNL     1      59.740  36.470  52.555  1.00  0.00     0.286 C
BRANCH  17  18
HETATM   18  O1  UNL     1      60.698  35.760  53.110  1.00  0.00    -0.382 OA
ATOM     19  H1  UNL     1      61.253  36.240  53.714  1.00  0.00     0.211 HD
ENDBRANCH  17  18
ENDBRANCH  15  17
ENDBRANCH  14  15
ENDBRANCH  13  14
BRANCH  13  20
HETATM   20  C8  UNL     1      60.275  34.066  49.789  1.00  0.00     0.258 C
HETATM   21  N5  UNL     1      59.918  32.730  49.559  1.00  0.00    -0.060 NA
HETATM   22  O2  UNL     1      61.299  34.266  50.475  1.00  0.00    -0.274 OA
ENDBRANCH  13  20
ENDBRANCH  11  13
ENDBRANCH   1  11
BRANCH   1  23
HETATM   23  C9  UNL     1      60.146  36.194  46.374  1.00  0.00     0.295 C
BRANCH  23  24
HETATM   24  N6  UNL     1      61.424  36.307  45.715  1.00  0.00    -0.065 N
ATOM     25  H63 UNL     1      61.344  36.632  44.752  1.00  0.00     0.275 HD
ATOM     26  H62 UNL     1      61.987  37.079  46.073  1.00  0.00     0.275 HD
ATOM     27  H61 UNL     1      61.896  35.406  45.789  1.00  0.00     0.275 HD
ENDBRANCH  23  24
BRANCH  23  28
HETATM   28  C10 UNL     1      59.037  36.550  45.522  1.00  0.00     0.263 C
HETATM   29  N7  UNL     1      58.754  35.853  44.312  1.00  0.00    -0.060 NA
HETATM   30  O3  UNL     1      58.241  37.499  45.776  1.00  0.00    -0.274 OA
ENDBRANCH  23  28
ENDBRANCH   1  23
TORSDOF 15
ENDMDL