MODEL 4
REMARK VINA RESULT: -6.335341802      3.816      7.295
REMARK  14 active torsions:
REMARK  status: ('A' for Active; 'I' for Inactive)
REMARK    1  A    between atoms: N2_4  and  N3_6
REMARK    2  A    between atoms: N3_6  and  C1_8
REMARK    3  A    between atoms: C1_8  and  C2_9
REMARK    4  A    between atoms: C2_9  and  N4_10
REMARK    5  A    between atoms: C3_12  and  C4_14
REMARK    6  A    between atoms: C4_14  and  N6_15
REMARK    7  A    between atoms: C4_14  and  C5_19
REMARK    8  A    between atoms: C5_19  and  C6_20
REMARK    9  A    between atoms: C5_19  and  N8_25
REMARK   10  A    between atoms: C6_20  and  N7_21
REMARK   11  A    between atoms: N8_25  and  C7_27
REMARK   12  A    between atoms: C7_27  and  C8_28
REMARK   13  A    between atoms: C8_28  and  N9_29
REMARK   14  A    between atoms: C8_28  and  C9_33
ROOT
HETATM    1  C4  UNL     1      59.500  36.492  47.588  1.00  0.00     0.294 C
ENDROOT
BRANCH   1   2
HETATM    2  C3  UNL     1      59.442  35.902  48.941  1.00  0.00     0.125 C
HETATM    3  N4  UNL     1      58.827  36.537  49.863  1.00  0.00    -0.378 N
ATOM      4  H4  UNL     1      58.401  37.433  49.629  1.00  0.00     0.160 HD
HETATM    5  N5  UNL     1      60.046  34.659  49.232  1.00  0.00    -0.085 NA
BRANCH   3   6
HETATM    6  C2  UNL     1      58.703  36.052  51.222  1.00  0.00     0.141 C
BRANCH   6   7
HETATM    7  C1  UNL     1      59.891  36.538  52.006  1.00  0.00     0.160 C
BRANCH   7   8
HETATM    8  N3  UNL     1      60.738  35.448  52.412  1.00  0.00    -0.321 N
ATOM      9  H3  UNL     1      60.522  34.903  53.246  1.00  0.00     0.181 HD
BRANCH   8  10
HETATM   10  N2  UNL     1      61.853  35.154  51.642  1.00  0.00    -0.254 N
HETATM   11  N1  UNL     1      62.354  36.045  50.909  1.00  0.00    -0.331 N
ATOM     12  H12 UNL     1      61.931  36.973  50.893  1.00  0.00     0.178 HD
ATOM     13  H11 UNL     1      63.175  35.829  50.343  1.00  0.00     0.178 HD
ATOM     14  H2  UNL     1      62.264  34.222  51.670  1.00  0.00     0.207 HD
ENDBRANCH   8  10
ENDBRANCH   7   8
ENDBRANCH   6   7
ENDBRANCH   3   6
ENDBRANCH   1   2
BRANCH   1  15
HETATM   15  N6  UNL     1      60.604  35.827  46.920  1.00  0.00    -0.063 N
ATOM     16  H63 UNL     1      61.473  36.361  46.935  1.00  0.00     0.275 HD
ATOM     17  H62 UNL     1      60.954  35.011  47.420  1.00  0.00     0.275 HD
ATOM     18  H61 UNL     1      60.268  35.618  45.980  1.00  0.00     0.275 HD
ENDBRANCH   1  15
BRANCH   1  19
HETATM   19  C5  UNL     1      59.789  37.964  47.614  1.00  0.00     0.049 C
BRANCH  19  20
HETATM   20  C6  UNL     1      61.243  38.212  47.900  1.00  0.00     0.284 C
BRANCH  20  21
HETATM   21  N7  UNL     1      61.600  39.583  47.474  1.00  0.00    -0.074 N
ATOM     22  H73 UNL     1      62.604  39.696  47.337  1.00  0.00     0.274 HD
ATOM     23  H72 UNL     1      61.300  39.781  46.519  1.00  0.00     0.274 HD
ATOM     24  H71 UNL     1      61.224  40.254  48.143  1.00  0.00     0.274 HD
ENDBRANCH  20  21
ENDBRANCH  19  20
BRANCH  19  25
HETATM   25  N8  UNL     1      59.191  38.822  46.766  1.00  0.00    -0.370 N
ATOM     26  H8  UNL     1      59.054  39.734  47.199  1.00  0.00     0.164 HD
BRANCH  25  27
HETATM   27  C7  UNL     1      58.724  38.806  45.501  1.00  0.00     0.102 C
BRANCH  27  28
HETATM   28  C8  UNL     1      58.613  40.065  44.680  1.00  0.00     0.310 C
BRANCH  28  29
HETATM   29  N9  UNL     1      57.846  41.120  45.235  1.00  0.00    -0.062 N
ATOM     30  H93 UNL     1      56.931  41.150  44.784  1.00  0.00     0.275 HD
ATOM     31  H92 UNL     1      57.577  40.882  46.189  1.00  0.00     0.275 HD
ATOM     32  H91 UNL     1      58.267  42.049  45.219  1.00  0.00     0.275 HD
ENDBRANCH  28  29
BRANCH  28  33
HETATM   33  C9  UNL     1      59.969  40.594  44.375  1.00  0.00     0.266 C
HETATM   34  N10 UNL     1      60.121  41.916  43.924  1.00  0.00    -0.060 NA
HETATM   35  O1  UNL     1      60.957  39.858  44.521  1.00  0.00    -0.274 OA
ENDBRANCH  28  33
ENDBRANCH  27  28
ENDBRANCH  25  27
ENDBRANCH  19  25
ENDBRANCH   1  19
TORSDOF 14
ENDMDL