MODEL 5
REMARK VINA RESULT: -6.110186125      2.031      6.535
REMARK  14 active torsions:
REMARK  status: ('A' for Active; 'I' for Inactive)
REMARK    1  A    between atoms: C1_4  and  N2_5
REMARK    2  A    between atoms: N2_5  and  C2_7
REMARK    3  A    between atoms: C2_7  and  C3_8
REMARK    4  A    between atoms: C3_8  and  N3_9
REMARK    5  A    between atoms: C3_8  and  C7_18
REMARK    6  A    between atoms: N3_9  and  C4_12
REMARK    7  A    between atoms: C4_12  and  C5_13
REMARK    8  A    between atoms: C5_13  and  N4_14
REMARK    9  A    between atoms: N4_14  and  C6_16
REMARK   10  A    between atoms: C7_18  and  O2_19
REMARK   11  A    between atoms: C7_18  and  N5_21
REMARK   12  A    between atoms: N5_21  and  C8_23
REMARK   13  A    between atoms: C8_23  and  C9_24
REMARK   14  A    between atoms: C8_23  and  C10_27
ROOT
HETATM    1  C3  UNL     1      59.464  37.057  49.065  1.00  0.00     0.277 C
ENDROOT
BRANCH   1   2
HETATM    2  C2  UNL     1      59.108  35.637  49.037  1.00  0.00     0.162 C
BRANCH   2   3
HETATM    3  N2  UNL     1      60.168  34.699  48.767  1.00  0.00    -0.384 N
ATOM      4  H2  UNL     1      60.976  34.946  48.197  1.00  0.00     0.160 HD
BRANCH   3   5
HETATM    5  C1  UNL     1      60.017  33.388  49.350  1.00  0.00     0.168 C
HETATM    6  N1  UNL     1      60.884  32.449  49.181  1.00  0.00    -0.396 N
ATOM      7  H12 UNL     1      61.702  32.657  48.609  1.00  0.00     0.156 HD
ATOM      8  H11 UNL     1      60.777  31.522  49.593  1.00  0.00     0.156 HD
ENDBRANCH   3   5
ENDBRANCH   2   3
ENDBRANCH   1   2
BRANCH   1   9
HETATM    9  N3  UNL     1      59.167  37.611  50.392  1.00  0.00    -0.060 N
ATOM     10  H32 UNL     1      59.997  38.030  50.812  1.00  0.00     0.278 HD
ATOM     11  H31 UNL     1      58.584  38.444  50.324  1.00  0.00     0.278 HD
BRANCH   9  12
HETATM   12  C4  UNL     1      58.586  36.644  51.254  1.00  0.00     0.253 C
BRANCH  12  13
HETATM   13  C5  UNL     1      59.559  36.457  52.428  1.00  0.00     0.149 C
BRANCH  13  14
HETATM   14  N4  UNL     1      60.233  35.191  52.348  1.00  0.00    -0.367 N
ATOM     15  H4  UNL     1      59.702  34.323  52.427  1.00  0.00     0.161 HD
BRANCH  14  16
HETATM   16  C6  UNL     1      61.625  35.150  52.161  1.00  0.00     0.348 C
HETATM   17  O1  UNL     1      62.113  34.713  51.077  1.00  0.00    -0.284 OA
ENDBRANCH  14  16
ENDBRANCH  13  14
ENDBRANCH  12  13
ENDBRANCH   9  12
ENDBRANCH   1   9
BRANCH   1  18
HETATM   18  C7  UNL     1      60.832  37.449  48.704  1.00  0.00     0.145 C
BRANCH  18  19
HETATM   19  O2  UNL     1      61.735  37.286  49.630  1.00  0.00    -0.348 OA
ATOM     20  H2  UNL     1      62.571  36.942  49.338  1.00  0.00     0.219 HD
ENDBRANCH  18  19
BRANCH  18  21
HETATM   21  N5  UNL     1      61.262  37.971  47.488  1.00  0.00    -0.352 N
ATOM     22  H5  UNL     1      62.210  38.336  47.397  1.00  0.00     0.162 HD
BRANCH  21  23
HETATM   23  C8  UNL     1      60.347  37.996  46.329  1.00  0.00     0.262 C
BRANCH  23  24
HETATM   24  C9  UNL     1      60.633  39.190  45.505  1.00  0.00     0.262 C
HETATM   25  N6  UNL     1      60.419  39.183  44.107  1.00  0.00    -0.060 NA
HETATM   26  O3  UNL     1      61.074  40.237  46.029  1.00  0.00    -0.274 OA
ENDBRANCH  23  24
BRANCH  23  27
HETATM   27  C10 UNL     1      60.521  36.760  45.555  1.00  0.00     0.262 C
HETATM   28  N7  UNL     1      59.391  35.993  45.171  1.00  0.00    -0.060 NA
HETATM   29  O4  UNL     1      61.674  36.375  45.229  1.00  0.00    -0.274 OA
ENDBRANCH  23  27
ENDBRANCH  21  23
ENDBRANCH  18  21
ENDBRANCH   1  18
TORSDOF 14
ENDMDL