MODEL 2
REMARK VINA RESULT: -6.167988505      1.298      1.616
REMARK  12 active torsions:
REMARK  status: ('A' for Active; 'I' for Inactive)
REMARK    1  A    between atoms: C1_4  and  C2_5
REMARK    2  A    between atoms: C1_4  and  N4_15
REMARK    3  A    between atoms: C2_5  and  N2_6
REMARK    4  A    between atoms: N2_6  and  C3_9
REMARK    5  A    between atoms: C3_9  and  C4_10
REMARK    6  A    between atoms: C4_10  and  N3_11
REMARK    7  A    between atoms: N3_11  and  C5_13
REMARK    8  A    between atoms: N4_15  and  C6_17
REMARK    9  A    between atoms: C6_17  and  C7_18
REMARK       I    between atoms: C7_18  and  N5_20
REMARK   10  A    between atoms: N5_20  and  C8_22
REMARK   11  A    between atoms: C8_22  and  C9_23
REMARK   12  A    between atoms: C8_22  and  C10_26
ROOT
HETATM    1  N1  UNL     1      59.922  37.872  48.687  1.00  0.00    -0.388 N
ATOM      2  H11 UNL     1      60.305  38.728  48.288  1.00  0.00     0.157 HD
ATOM      3  H12 UNL     1      59.344  37.981  49.521  1.00  0.00     0.157 HD
HETATM    4  C1  UNL     1      60.169  36.736  48.155  1.00  0.00     0.097 C
ENDROOT
BRANCH   4   5
HETATM    5  C2  UNL     1      59.602  35.470  48.744  1.00  0.00     0.307 C
BRANCH   5   6
HETATM    6  N2  UNL     1      60.704  34.687  49.241  1.00  0.00    -0.067 N
ATOM      7  H22 UNL     1      60.837  33.839  48.691  1.00  0.00     0.277 HD
ATOM      8  H21 UNL     1      61.599  35.139  49.053  1.00  0.00     0.277 HD
BRANCH   6   9
HETATM    9  C3  UNL     1      60.548  34.388  50.643  1.00  0.00     0.252 C
BRANCH   9  10
HETATM   10  C4  UNL     1      61.296  35.354  51.506  1.00  0.00     0.149 C
BRANCH  10  11
HETATM   11  N3  UNL     1      60.454  36.003  52.466  1.00  0.00    -0.367 N
ATOM     12  H3  UNL     1      60.825  36.202  53.396  1.00  0.00     0.161 HD
BRANCH  11  13
HETATM   13  C5  UNL     1      59.133  36.375  52.167  1.00  0.00     0.348 C
HETATM   14  O1  UNL     1      58.843  37.373  51.482  1.00  0.00    -0.284 OA
ENDBRANCH  11  13
ENDBRANCH  10  11
ENDBRANCH   9  10
ENDBRANCH   6   9
ENDBRANCH   5   6
ENDBRANCH   4   5
BRANCH   4  15
HETATM   15  N4  UNL     1      60.975  36.584  46.991  1.00  0.00    -0.370 N
ATOM     16  H4  UNL     1      61.987  36.706  47.040  1.00  0.00     0.161 HD
BRANCH  15  17
HETATM   17  C6  UNL     1      60.338  36.254  45.742  1.00  0.00     0.223 C
BRANCH  17  18
HETATM   18  C7  UNL     1      59.748  37.454  45.129  1.00  0.00     0.236 C
HETATM   19  O2  UNL     1      58.646  37.355  44.505  1.00  0.00    -0.272 OA
HETATM   20  N5  UNL     1      60.378  38.724  45.215  1.00  0.00    -0.339 N
ATOM     21  H5  UNL     1      61.263  38.809  45.714  1.00  0.00     0.163 HD
BRANCH  20  22
HETATM   22  C8  UNL     1      59.788  39.905  44.606  1.00  0.00     0.263 C
BRANCH  22  23
HETATM   23  C9  UNL     1      59.021  40.689  45.610  1.00  0.00     0.262 C
HETATM   24  N6  UNL     1      59.175  40.451  46.995  1.00  0.00    -0.060 NA
HETATM   25  O3  UNL     1      58.222  41.578  45.238  1.00  0.00    -0.274 OA
ENDBRANCH  22  23
BRANCH  22  26
HETATM   26  C10 UNL     1      60.771  40.714  43.888  1.00  0.00     0.262 C
HETATM   27  N7  UNL     1      60.795  40.725  42.479  1.00  0.00    -0.060 NA
HETATM   28  O4  UNL     1      61.603  41.407  44.513  1.00  0.00    -0.274 OA
ENDBRANCH  22  26
ENDBRANCH  20  22
ENDBRANCH  17  18
ENDBRANCH  15  17
ENDBRANCH   4  15
TORSDOF 12
ENDMDL