MODEL 5
REMARK VINA RESULT: -6.242623362      2.459      4.242
REMARK  11 active torsions:
REMARK  status: ('A' for Active; 'I' for Inactive)
REMARK    1  A    between atoms: C1_4  and  N2_5
REMARK    2  A    between atoms: N2_5  and  C2_7
REMARK    3  A    between atoms: C2_7  and  C3_8
REMARK    4  A    between atoms: C3_8  and  N3_9
REMARK    5  A    between atoms: N3_9  and  C4_11
REMARK    6  A    between atoms: C5_12  and  N4_13
REMARK    7  A    between atoms: C5_12  and  C7_17
REMARK    8  A    between atoms: N4_13  and  C6_15
REMARK       I    between atoms: C7_17  and  N5_19
REMARK    9  A    between atoms: N5_19  and  C8_21
REMARK   10  A    between atoms: C8_21  and  C9_22
REMARK   11  A    between atoms: C8_21  and  C10_25
ROOT
HETATM    1  C4  UNL     1      59.475  39.123  46.208  1.00  0.00     0.118 C
HETATM    2  C5  UNL     1      59.541  37.709  46.504  1.00  0.00     0.117 C
ENDROOT
BRANCH   2   3
HETATM    3  N4  UNL     1      59.979  36.767  45.537  1.00  0.00    -0.329 N
ATOM      4  H4  UNL     1      60.831  36.241  45.736  1.00  0.00     0.168 HD
BRANCH   3   5
HETATM    5  C6  UNL     1      59.317  36.509  44.324  1.00  0.00     0.353 C
HETATM    6  O1  UNL     1      58.336  35.737  44.259  1.00  0.00    -0.283 OA
ENDBRANCH   3   5
ENDBRANCH   2   3
BRANCH   2   7
HETATM    7  C7  UNL     1      60.100  37.357  47.839  1.00  0.00     0.270 C
HETATM    8  O2  UNL     1      61.033  38.004  48.314  1.00  0.00    -0.266 OA
HETATM    9  N5  UNL     1      59.548  36.271  48.611  1.00  0.00    -0.335 N
ATOM     10  H5  UNL     1      58.790  35.678  48.274  1.00  0.00     0.164 HD
BRANCH   9  11
HETATM   11  C8  UNL     1      60.178  36.095  49.931  1.00  0.00     0.264 C
BRANCH  11  12
HETATM   12  C9  UNL     1      59.045  36.458  50.907  1.00  0.00     0.262 C
HETATM   13  N6  UNL     1      58.343  35.479  51.594  1.00  0.00    -0.060 NA
HETATM   14  O3  UNL     1      58.806  37.684  51.046  1.00  0.00    -0.274 OA
ENDBRANCH  11  12
BRANCH  11  15
HETATM   15  C10 UNL     1      60.547  34.693  50.191  1.00  0.00     0.262 C
HETATM   16  N7  UNL     1      61.600  34.406  51.100  1.00  0.00    -0.060 NA
HETATM   17  O4  UNL     1      59.963  33.747  49.629  1.00  0.00    -0.274 OA
ENDBRANCH  11  15
ENDBRANCH   9  11
ENDBRANCH   2   7
BRANCH   1  18
HETATM   18  N3  UNL     1      60.678  39.756  45.838  1.00  0.00    -0.395 N
ATOM     19  H3  UNL     1      61.493  39.823  46.448  1.00  0.00     0.159 HD
BRANCH  18  20
HETATM   20  C3  UNL     1      60.630  40.294  44.517  1.00  0.00     0.138 C
BRANCH  20  21
HETATM   21  C2  UNL     1      59.243  40.422  44.017  1.00  0.00     0.140 C
BRANCH  21  22
HETATM   22  N2  UNL     1      58.885  41.790  43.669  1.00  0.00    -0.385 N
ATOM     23  H2  UNL     1      59.514  42.344  43.089  1.00  0.00     0.160 HD
BRANCH  22  24
HETATM   24  C1  UNL     1      57.671  42.357  44.129  1.00  0.00     0.168 C
HETATM   25  N1  UNL     1      57.559  43.317  44.923  1.00  0.00    -0.396 N
ATOM     26  H12 UNL     1      58.433  43.718  45.261  1.00  0.00     0.156 HD
ATOM     27  H11 UNL     1      56.685  43.725  45.254  1.00  0.00     0.156 HD
ENDBRANCH  22  24
ENDBRANCH  21  22
ENDBRANCH  20  21
ENDBRANCH  18  20
ENDBRANCH   1  18
TORSDOF 11
ENDMDL