MODEL 3
REMARK VINA RESULT: -6.302035059      1.370      1.733
REMARK  12 active torsions:
REMARK  status: ('A' for Active; 'I' for Inactive)
REMARK    1  A    between atoms: C1_4  and  N2_5
REMARK    2  A    between atoms: N2_5  and  C2_7
REMARK    3  A    between atoms: C2_7  and  N3_8
REMARK    4  A    between atoms: N3_8  and  N4_9
REMARK    5  A    between atoms: N4_9  and  C3_10
REMARK    6  A    between atoms: C3_10  and  C4_11
REMARK    7  A    between atoms: C4_11  and  N5_12
REMARK    8  A    between atoms: C4_11  and  C9_24
REMARK       I    between atoms: N5_12  and  C5_14
REMARK    9  A    between atoms: C5_14  and  C6_16
REMARK   10  A    between atoms: C6_16  and  N6_17
REMARK   11  A    between atoms: C6_16  and  C8_21
REMARK   12  A    between atoms: N6_17  and  C7_19
ROOT
HETATM    1  C4  UNL     1      59.638  37.571  46.992  1.00  0.00     0.189 C
ENDROOT
BRANCH   1   2
HETATM    2  C3  UNL     1      60.866  38.412  46.716  1.00  0.00     0.164 C
BRANCH   2   3
HETATM    3  N4  UNL     1      60.597  39.834  46.841  1.00  0.00    -0.144 NA
BRANCH   3   4
HETATM    4  N3  UNL     1      61.219  40.464  45.769  1.00  0.00    -0.129 NA
BRANCH   4   5
HETATM    5  C2  UNL     1      60.634  40.114  44.498  1.00  0.00     0.251 C
BRANCH   5   6
HETATM    6  N2  UNL     1      59.731  41.160  44.081  1.00  0.00    -0.372 N
ATOM      7  H2  UNL     1      60.097  41.945  43.543  1.00  0.00     0.161 HD
BRANCH   6   8
HETATM    8  C1  UNL     1      58.349  41.125  44.398  1.00  0.00     0.169 C
HETATM    9  N1  UNL     1      57.917  40.715  45.554  1.00  0.00    -0.396 N
ATOM     10  H12 UNL     1      58.606  40.413  46.243  1.00  0.00     0.156 HD
ATOM     11  H11 UNL     1      56.923  40.691  45.782  1.00  0.00     0.156 HD
ENDBRANCH   6   8
ENDBRANCH   5   6
ENDBRANCH   4   5
ENDBRANCH   3   4
ENDBRANCH   2   3
ENDBRANCH   1   2
BRANCH   1  12
HETATM   12  N5  UNL     1      60.058  36.508  47.886  1.00  0.00    -0.345 N
HETATM   13  C5  UNL     1      59.889  36.681  49.281  1.00  0.00     0.250 C
HETATM   14  O1  UNL     1      59.380  37.751  49.694  1.00  0.00    -0.271 OA
ATOM     15  H5  UNL     1      60.467  35.651  47.516  1.00  0.00     0.163 HD
BRANCH  13  16
HETATM   16  C6  UNL     1      60.315  35.603  50.207  1.00  0.00     0.266 C
BRANCH  16  17
HETATM   17  N6  UNL     1      59.824  34.338  49.626  1.00  0.00    -0.348 N
ATOM     18  H6  UNL     1      58.925  34.317  49.144  1.00  0.00     0.163 HD
BRANCH  17  19
HETATM   19  C7  UNL     1      60.586  33.165  49.733  1.00  0.00     0.349 C
HETATM   20  O2  UNL     1      60.094  32.075  49.377  1.00  0.00    -0.284 OA
ENDBRANCH  17  19
ENDBRANCH  16  17
BRANCH  16  21
HETATM   21  C8  UNL     1      59.692  35.707  51.554  1.00  0.00     0.263 C
HETATM   22  N7  UNL     1      60.466  36.148  52.656  1.00  0.00    -0.060 NA
HETATM   23  O3  UNL     1      58.478  35.415  51.776  1.00  0.00    -0.274 OA
ENDBRANCH  16  21
ENDBRANCH  13  16
ENDBRANCH   1  12
BRANCH   1  24
HETATM   24  C9  UNL     1      59.100  36.976  45.753  1.00  0.00     0.255 C
HETATM   25  N8  UNL     1      58.092  37.594  44.977  1.00  0.00    -0.060 NA
HETATM   26  O4  UNL     1      59.570  35.855  45.374  1.00  0.00    -0.275 OA
ENDBRANCH   1  24
TORSDOF 12
ENDMDL