MODEL 3
REMARK VINA RESULT: -5.979999224      1.854      2.751
REMARK  12 active torsions:
REMARK  status: ('A' for Active; 'I' for Inactive)
REMARK       I    between atoms: C1_4  and  N3_6
REMARK    1  A    between atoms: N3_6  and  C2_8
REMARK    2  A    between atoms: C2_8  and  C3_9
REMARK    3  A    between atoms: C3_9  and  N4_10
REMARK    4  A    between atoms: C3_9  and  C10_26
REMARK    5  A    between atoms: N4_10  and  C4_12
REMARK    6  A    between atoms: C4_12  and  C5_13
REMARK    7  A    between atoms: C4_12  and  C9_23
REMARK    8  A    between atoms: C5_13  and  N5_14
REMARK    9  A    between atoms: N5_14  and  C6_15
REMARK   10  A    between atoms: N5_14  and  C7_17
REMARK   11  A    between atoms: C7_17  and  C8_18
REMARK   12  A    between atoms: C8_18  and  N6_19
ROOT
HETATM    1  N4  UNL     1      61.109  38.564  47.140  1.00  0.00    -0.392 N
ATOM      2  H4  UNL     1      62.090  38.295  47.220  1.00  0.00     0.155 HD
ENDROOT
BRANCH   1   3
HETATM    3  C3  UNL     1      60.784  39.771  46.558  1.00  0.00     0.185 C
BRANCH   3   4
HETATM    4  C2  UNL     1      59.240  39.941  46.706  1.00  0.00     0.156 C
BRANCH   4   5
HETATM    5  N3  UNL     1      58.629  39.944  45.410  1.00  0.00    -0.362 N
HETATM    6  C1  UNL     1      57.794  40.997  44.955  1.00  0.00     0.181 C
HETATM    7  N1  UNL     1      56.731  40.748  44.238  1.00  0.00    -0.374 N
HETATM    8  N2  UNL     1      58.154  42.312  45.306  1.00  0.00    -0.064 NA
ATOM      9  H12 UNL     1      56.130  41.505  43.911  1.00  0.00     0.158 HD
ATOM     10  H11 UNL     1      56.471  39.794  43.984  1.00  0.00     0.158 HD
ATOM     11  H3  UNL     1      58.804  39.156  44.787  1.00  0.00     0.162 HD
ENDBRANCH   4   5
ENDBRANCH   3   4
BRANCH   3  12
HETATM   12  C10 UNL     1      61.020  39.959  45.116  1.00  0.00     0.255 C
HETATM   13  N8  UNL     1      61.343  41.271  44.604  1.00  0.00    -0.060 NA
HETATM   14  O3  UNL     1      60.968  39.063  44.244  1.00  0.00    -0.275 OA
ENDBRANCH   3  12
ENDBRANCH   1   3
BRANCH   1  15
HETATM   15  C4  UNL     1      60.083  37.669  47.640  1.00  0.00     0.206 C
BRANCH  15  16
HETATM   16  C5  UNL     1      60.639  37.136  48.934  1.00  0.00     0.100 C
BRANCH  16  17
HETATM   17  N5  UNL     1      59.867  36.289  49.742  1.00  0.00    -0.335 N
BRANCH  17  18
HETATM   18  C6  UNL     1      58.720  36.698  50.506  1.00  0.00     0.355 C
HETATM   19  O1  UNL     1      58.132  35.820  51.182  1.00  0.00    -0.283 OA
ENDBRANCH  17  18
BRANCH  17  20
HETATM   20  C7  UNL     1      60.135  34.859  49.808  1.00  0.00     0.157 C
BRANCH  20  21
HETATM   21  C8  UNL     1      61.345  34.610  50.634  1.00  0.00     0.249 C
BRANCH  21  22
HETATM   22  N6  UNL     1      61.030  34.697  52.069  1.00  0.00    -0.078 N
ATOM     23  H63 UNL     1      60.122  34.285  52.281  1.00  0.00     0.274 HD
ATOM     24  H62 UNL     1      61.616  34.072  52.622  1.00  0.00     0.274 HD
ATOM     25  H61 UNL     1      61.092  35.661  52.398  1.00  0.00     0.274 HD
ENDBRANCH  21  22
ENDBRANCH  20  21
ENDBRANCH  17  20
ENDBRANCH  16  17
ENDBRANCH  15  16
BRANCH  15  26
HETATM   26  C9  UNL     1      59.637  36.699  46.656  1.00  0.00     0.258 C
HETATM   27  N7  UNL     1      58.543  36.864  45.767  1.00  0.00    -0.060 NA
HETATM   28  O2  UNL     1      60.222  35.558  46.494  1.00  0.00    -0.274 OA
ENDBRANCH  15  26
ENDBRANCH   1  15
TORSDOF 12
ENDMDL