MODEL 3
REMARK VINA RESULT: -4.497586962      4.715      7.806
REMARK  5 active torsions:
REMARK  status: ('A' for Active; 'I' for Inactive)
REMARK    1  A    between atoms: N1_1  and  N2_4
REMARK    2  A    between atoms: N2_4  and  C1_5
REMARK    3  A    between atoms: C1_5  and  C2_6
REMARK    4  A    between atoms: C2_6  and  N3_7
REMARK    5  A    between atoms: N3_7  and  C3_9
ROOT
HETATM    1  C3  UNL     1       5.961   7.678  22.408  1.00  0.00     0.133 A
HETATM    2  N4  UNL     1       5.076   7.986  21.455  1.00  0.00    -0.337 N
ATOM      3  H4  UNL     1       5.049   7.468  20.577  1.00  0.00     0.168 HD
HETATM    4  C4  UNL     1       4.222   8.999  21.688  1.00  0.00     0.183 A
HETATM    5  N5  UNL     1       4.240   9.694  22.834  1.00  0.00    -0.337 N
ATOM      6  H5  UNL     1       3.571  10.453  22.962  1.00  0.00     0.168 HD
HETATM    7  C5  UNL     1       5.121   9.417  23.830  1.00  0.00     0.138 A
HETATM    8  N6  UNL     1       5.358   9.936  25.050  1.00  0.00    -0.337 N
ATOM      9  H6  UNL     1       4.858  10.713  25.481  1.00  0.00     0.168 HD
HETATM   10  C6  UNL     1       6.378   9.240  25.599  1.00  0.00     0.182 A
HETATM   11  N7  UNL     1       6.762   8.301  24.717  1.00  0.00    -0.346 N
ATOM     12  H7  UNL     1       7.514   7.628  24.863  1.00  0.00     0.167 HD
HETATM   13  C7  UNL     1       5.996   8.386  23.601  1.00  0.00     0.122 A
ENDROOT
BRANCH   1  14
HETATM   14  N3  UNL     1       6.797   6.737  22.258  1.00  0.00    -0.373 N
ATOM     15  H3  UNL     1       7.604   6.937  21.667  1.00  0.00     0.161 HD
BRANCH  14  16
HETATM   16  C2  UNL     1       6.733   5.427  22.824  1.00  0.00     0.139 C
BRANCH  16  17
HETATM   17  C1  UNL     1       7.920   5.108  23.697  1.00  0.00     0.153 C
BRANCH  17  18
HETATM   18  N2  UNL     1       8.943   6.122  23.631  1.00  0.00    -0.147 NA
BRANCH  18  19
HETATM   19  N1  UNL     1      10.115   5.763  24.254  1.00  0.00    -0.348 N
ATOM     20  H12 UNL     1      10.133   5.160  25.077  1.00  0.00     0.172 HD
ATOM     21  H11 UNL     1      10.948   6.155  23.815  1.00  0.00     0.172 HD
ENDBRANCH  18  19
ENDBRANCH  17  18
ENDBRANCH  16  17
ENDBRANCH  14  16
ENDBRANCH   1  14
TORSDOF 5
ENDMDL