MODEL 3
REMARK VINA RESULT: -4.672756033      5.342      6.526
REMARK  4 active torsions:
REMARK  status: ('A' for Active; 'I' for Inactive)
REMARK    1  A    between atoms: N5_15  and  C6_16
REMARK    2  A    between atoms: C6_16  and  C7_17
REMARK    3  A    between atoms: C7_17  and  N6_18
REMARK    4  A    between atoms: N6_18  and  N7_20
ROOT
HETATM    1  N1  UNL     1      10.583   4.495  24.120  1.00  0.00    -0.383 N
ATOM      2  H11 UNL     1      10.268   5.150  24.836  1.00  0.00     0.157 HD
ATOM      3  H12 UNL     1      10.105   3.596  24.045  1.00  0.00     0.157 HD
HETATM    4  C1  UNL     1      11.548   4.907  23.421  1.00  0.00     0.133 A
HETATM    5  C2  UNL     1      11.984   3.999  22.428  1.00  0.00     0.122 A
HETATM    6  N2  UNL     1      11.509   2.789  22.106  1.00  0.00    -0.346 N
ATOM      7  H2  UNL     1      10.749   2.301  22.582  1.00  0.00     0.167 HD
HETATM    8  C3  UNL     1      12.211   2.317  21.039  1.00  0.00     0.182 A
HETATM    9  N3  UNL     1      13.143   3.270  20.726  1.00  0.00    -0.337 N
ATOM     10  H3  UNL     1      13.828   3.209  19.972  1.00  0.00     0.168 HD
HETATM   11  C4  UNL     1      13.003   4.308  21.586  1.00  0.00     0.138 A
HETATM   12  N4  UNL     1      13.591   5.494  21.733  1.00  0.00    -0.336 N
ATOM     13  H4  UNL     1      14.363   5.737  21.113  1.00  0.00     0.168 HD
HETATM   14  C5  UNL     1      13.204   6.399  22.681  1.00  0.00     0.186 A
HETATM   15  N5  UNL     1      12.174   6.084  23.520  1.00  0.00    -0.326 N
ENDROOT
BRANCH  15  16
HETATM   16  C6  UNL     1      11.905   6.917  24.629  1.00  0.00     0.152 C
BRANCH  16  17
HETATM   17  C7  UNL     1      12.903   8.145  24.618  1.00  0.00     0.159 C
BRANCH  17  18
HETATM   18  N6  UNL     1      12.039   9.213  24.657  1.00  0.00    -0.341 N
ATOM     19  H6  UNL     1      11.040   9.008  24.646  1.00  0.00     0.179 HD
BRANCH  18  20
HETATM   20  N7  UNL     1      12.392  10.467  24.707  1.00  0.00    -0.349 N
ATOM     21  H72 UNL     1      12.097  10.987  25.533  1.00  0.00     0.176 HD
ATOM     22  H71 UNL     1      12.932  10.955  23.992  1.00  0.00     0.176 HD
ENDBRANCH  18  20
ENDBRANCH  17  18
ENDBRANCH  16  17
ENDBRANCH  15  16
TORSDOF 4
ENDMDL