MODEL 5
REMARK VINA RESULT: -4.403122711      2.924      4.968
REMARK  6 active torsions:
REMARK  status: ('A' for Active; 'I' for Inactive)
REMARK    1  A    between atoms: N1_1  and  C1_5
REMARK    2  A    between atoms: C1_5  and  C2_6
REMARK    3  A    between atoms: C2_6  and  S1_7
REMARK    4  A    between atoms: S1_7  and  S2_8
REMARK    5  A    between atoms: S2_8  and  C3_9
REMARK    6  A    between atoms: N2_10  and  O1_11
ROOT
HETATM    1  C3  UNL     1       5.157   7.775  23.081  1.00  0.00     0.210 C
HETATM    2  N2  UNL     1       5.067   8.622  22.125  1.00  0.00    -0.123 N
HETATM    3  N3  UNL     1       4.317   9.741  22.527  1.00  0.00     0.022 NA
HETATM    4  N4  UNL     1       3.643   9.399  23.705  1.00  0.00    -0.004 NA
HETATM    5  N5  UNL     1       4.442   8.337  24.161  1.00  0.00    -0.262 N
ATOM      6  H5  UNL     1       4.497   8.020  25.129  1.00  0.00     0.186 HD
ENDROOT
BRANCH   1   7
HETATM    7  S2  UNL     1       5.996   6.229  23.052  1.00  0.00    -0.017 SA
BRANCH   7   8
HETATM    8  S1  UNL     1       7.938   6.501  23.872  1.00  0.00    -0.088 SA
BRANCH   8   9
HETATM    9  C2  UNL     1       8.665   4.852  24.078  1.00  0.00     0.114 C
BRANCH   9  10
HETATM   10  C1  UNL     1      10.172   5.028  24.104  1.00  0.00     0.240 C
BRANCH  10  11
HETATM   11  N1  UNL     1      10.832   4.015  23.289  1.00  0.00    -0.079 N
ATOM     12  H13 UNL     1      11.144   3.224  23.853  1.00  0.00     0.274 HD
ATOM     13  H12 UNL     1      10.168   3.524  22.688  1.00  0.00     0.274 HD
ATOM     14  H11 UNL     1      11.598   4.419  22.751  1.00  0.00     0.274 HD
ENDBRANCH  10  11
ENDBRANCH   9  10
ENDBRANCH   8   9
ENDBRANCH   7   8
ENDBRANCH   1   7
BRANCH   2  15
HETATM   15  O1  UNL     1       5.598   8.546  20.838  1.00  0.00    -0.268 OA
ATOM     16  H1  UNL     1       5.795   7.774  20.320  1.00  0.00     0.246 HD
ENDBRANCH   2  15
TORSDOF 6
ENDMDL