MODEL 3
REMARK VINA RESULT: -4.570822620      1.986      3.639
REMARK  6 active torsions:
REMARK  status: ('A' for Active; 'I' for Inactive)
REMARK    1  A    between atoms: N1_2  and  C2_4
REMARK    2  A    between atoms: N5_11  and  C4_12
REMARK    3  A    between atoms: C4_12  and  C5_13
REMARK    4  A    between atoms: C5_13  and  C6_14
REMARK    5  A    between atoms: C6_14  and  N6_15
REMARK    6  A    between atoms: N6_15  and  N7_16
ROOT
HETATM    1  C2  UNL     1       7.837   7.269  24.585  1.00  0.00     0.697 A
HETATM    2  N2  UNL     1       8.185   6.177  23.818  1.00  0.00    -0.161 N
ATOM      3  H2  UNL     1       9.102   5.730  23.797  1.00  0.00     0.187 HD
HETATM    4  C3  UNL     1       7.116   5.805  23.108  1.00  0.00     0.222 A
HETATM    5  N3  UNL     1       7.029   4.713  22.176  1.00  0.00    -0.061 NA
HETATM    6  N4  UNL     1       6.140   6.661  23.444  1.00  0.00    -0.257 N
ATOM      7  H4  UNL     1       5.194   6.631  23.063  1.00  0.00     0.190 HD
HETATM    8  N5  UNL     1       6.560   7.553  24.336  1.00  0.00    -0.121 N
ENDROOT
BRANCH   8   9
HETATM    9  C4  UNL     1       5.701   8.610  24.897  1.00  0.00     0.169 C
BRANCH   9  10
HETATM   10  C5  UNL     1       4.447   8.597  24.078  1.00  0.00     0.040 C
BRANCH  10  11
HETATM   11  C6  UNL     1       4.541   9.463  22.872  1.00  0.00     0.136 C
BRANCH  11  12
HETATM   12  N6  UNL     1       4.342   8.727  21.668  1.00  0.00    -0.148 NA
BRANCH  12  13
HETATM   13  N7  UNL     1       5.541   8.630  20.910  1.00  0.00    -0.348 N
ATOM     14  H72 UNL     1       5.902   9.390  20.333  1.00  0.00     0.172 HD
ATOM     15  H71 UNL     1       5.981   7.717  21.019  1.00  0.00     0.172 HD
ENDBRANCH  12  13
ENDBRANCH  11  12
ENDBRANCH  10  11
ENDBRANCH   9  10
ENDBRANCH   8   9
BRANCH   1  16
HETATM   16  N1  UNL     1       8.666   7.823  25.348  1.00  0.00    -0.229 N
HETATM   17  C1  UNL     1      10.049   8.043  25.307  1.00  0.00     0.165 C
ATOM     18  H1  UNL     1       8.233   8.199  26.191  1.00  0.00     0.177 HD
ENDBRANCH   1  16
TORSDOF 6
ENDMDL