MODEL 3
REMARK VINA RESULT: -4.229151554      0.981      2.021
REMARK  6 active torsions:
REMARK  status: ('A' for Active; 'I' for Inactive)
REMARK    1  A    between atoms: C2_2  and  N1_3
REMARK    2  A    between atoms: N1_3  and  C3_6
REMARK    3  A    between atoms: C3_6  and  C4_7
REMARK    4  A    between atoms: C4_7  and  N2_8
REMARK    5  A    between atoms: C6_12  and  N4_13
REMARK    6  A    between atoms: C7_18  and  N6_19
ROOT
HETATM    1  N2  UNL     1      12.472   5.184  22.712  1.00  0.00    -0.177 N
HETATM    2  C5  UNL     1      13.498   5.569  21.892  1.00  0.00     0.218 A
HETATM    3  N3  UNL     1      13.931   4.843  20.855  1.00  0.00    -0.187 N
ATOM      4  H3  UNL     1      14.701   5.184  20.280  1.00  0.00     0.185 HD
HETATM    5  C6  UNL     1      13.350   3.663  20.567  1.00  0.00     0.691 A
HETATM    6  N5  UNL     1      12.346   3.257  21.346  1.00  0.00    -0.023 N
ATOM      7  H5  UNL     1      11.890   2.366  21.148  1.00  0.00     0.203 HD
HETATM    8  C7  UNL     1      11.917   4.006  22.399  1.00  0.00     0.693 A
ENDROOT
BRANCH   1   9
HETATM    9  C4  UNL     1      12.063   6.029  23.798  1.00  0.00     0.175 C
BRANCH   9  10
HETATM   10  C3  UNL     1      13.035   6.990  24.326  1.00  0.00     0.253 C
BRANCH  10  11
HETATM   11  N1  UNL     1      12.721   8.380  24.206  1.00  0.00    -0.074 N
ATOM     12  H12 UNL     1      11.796   8.517  23.796  1.00  0.00     0.277 HD
ATOM     13  H11 UNL     1      13.284   8.825  23.481  1.00  0.00     0.277 HD
BRANCH  11  14
HETATM   14  C2  UNL     1      12.845   9.075  25.470  1.00  0.00     0.228 C
HETATM   15  C1  UNL     1      12.477  10.513  25.305  1.00  0.00     0.034 C
ENDBRANCH  11  14
ENDBRANCH  10  11
ENDBRANCH   9  10
ENDBRANCH   1   9
BRANCH   8  16
HETATM   16  N6  UNL     1      10.972   3.558  23.102  1.00  0.00    -0.234 N
ATOM     17  H62 UNL     1      10.953   3.800  24.092  1.00  0.00     0.174 HD
ATOM     18  H61 UNL     1      10.253   2.979  22.668  1.00  0.00     0.174 HD
ENDBRANCH   8  16
BRANCH   5  19
HETATM   19  N4  UNL     1      13.752   2.941  19.567  1.00  0.00    -0.234 N
ATOM     20  H42 UNL     1      14.656   3.111  19.128  1.00  0.00     0.174 HD
ATOM     21  H41 UNL     1      13.176   2.187  19.193  1.00  0.00     0.174 HD
ENDBRANCH   5  19
TORSDOF 6
ENDMDL