MODEL 2
REMARK VINA RESULT: -4.160234786      2.799      4.467
REMARK  6 active torsions:
REMARK  status: ('A' for Active; 'I' for Inactive)
REMARK    1  A    between atoms: C2_5  and  N3_6
REMARK    2  A    between atoms: N4_9  and  C3_10
REMARK    3  A    between atoms: C3_10  and  C4_11
REMARK    4  A    between atoms: C4_11  and  C5_12
REMARK    5  A    between atoms: C5_12  and  N5_13
REMARK    6  A    between atoms: N5_13  and  N6_14
ROOT
HETATM    1  C1  UNL     1       4.161   9.028  21.591  1.00  0.00     0.198 C
HETATM    2  N1  UNL     1       4.853   8.243  22.618  1.00  0.00    -0.114 N
HETATM    3  N2  UNL     1       4.390   7.834  23.773  1.00  0.00    -0.116 N
ATOM      4  H2  UNL     1       3.467   8.058  24.145  1.00  0.00     0.206 HD
HETATM    5  C2  UNL     1       5.316   7.071  24.402  1.00  0.00     0.707 A
HETATM    6  N4  UNL     1       6.355   7.052  23.599  1.00  0.00    -0.012 N
HETATM    7  C6  UNL     1       6.130   7.775  22.457  1.00  0.00     0.709 A
HETATM    8  N7  UNL     1       6.896   7.966  21.448  1.00  0.00    -0.232 N
ATOM      9  H71 UNL     1       7.847   7.618  21.328  1.00  0.00     0.174 HD
ATOM     10  H72 UNL     1       6.728   8.504  20.597  1.00  0.00     0.174 HD
ENDROOT
BRANCH   6  11
HETATM   11  C3  UNL     1       7.645   6.312  23.634  1.00  0.00     0.168 C
BRANCH  11  12
HETATM   12  C4  UNL     1       8.464   7.129  24.624  1.00  0.00     0.039 C
BRANCH  12  13
HETATM   13  C5  UNL     1       9.931   6.939  24.520  1.00  0.00     0.136 C
BRANCH  13  14
HETATM   14  N5  UNL     1      10.419   8.296  24.236  1.00  0.00    -0.148 NA
BRANCH  14  15
HETATM   15  N6  UNL     1      11.774   8.270  24.255  1.00  0.00    -0.348 N
ATOM     16  H62 UNL     1      12.354   7.596  23.756  1.00  0.00     0.172 HD
ATOM     17  H61 UNL     1      12.099   9.034  24.848  1.00  0.00     0.172 HD
ENDBRANCH  14  15
ENDBRANCH  13  14
ENDBRANCH  12  13
ENDBRANCH  11  12
ENDBRANCH   6  11
BRANCH   5  18
HETATM   18  N3  UNL     1       5.198   6.476  25.536  1.00  0.00    -0.233 N
ATOM     19  H32 UNL     1       5.430   6.849  26.457  1.00  0.00     0.174 HD
ATOM     20  H31 UNL     1       4.865   5.527  25.705  1.00  0.00     0.174 HD
ENDBRANCH   5  18
TORSDOF 6
ENDMDL