MODEL 2
REMARK VINA RESULT: -4.237155561      1.563      1.767
REMARK  6 active torsions:
REMARK  status: ('A' for Active; 'I' for Inactive)
REMARK    1  A    between atoms: N1_2  and  C2_3
REMARK    2  A    between atoms: N1_2  and  C4_9
REMARK    3  A    between atoms: C2_3  and  C3_4
REMARK    4  A    between atoms: C3_4  and  N2_5
REMARK    5  A    between atoms: C5_12  and  N4_13
REMARK    6  A    between atoms: C6_18  and  N6_19
ROOT
HETATM    1  C4  UNL     1       6.693   7.934  24.136  1.00  0.00     0.709 A
HETATM    2  N3  UNL     1       5.674   8.619  24.731  1.00  0.00    -0.022 N
ATOM      3  H3  UNL     1       5.652   8.657  25.751  1.00  0.00     0.203 HD
HETATM    4  C5  UNL     1       4.709   9.239  24.063  1.00  0.00     0.705 A
HETATM    5  N5  UNL     1       4.736   9.190  22.728  1.00  0.00    -0.022 N
ATOM      6  H5  UNL     1       4.010   9.655  22.183  1.00  0.00     0.203 HD
HETATM    7  C6  UNL     1       5.735   8.517  22.100  1.00  0.00     0.705 A
HETATM    8  N7  UNL     1       6.705   7.894  22.791  1.00  0.00    -0.022 N
ATOM      9  H7  UNL     1       7.446   7.395  22.298  1.00  0.00     0.203 HD
ENDROOT
BRANCH   1  10
HETATM   10  N1  UNL     1       7.685   7.299  24.928  1.00  0.00    -0.219 N
HETATM   11  C1  UNL     1       7.253   6.822  26.224  1.00  0.00     0.168 C
BRANCH  10  12
HETATM   12  C2  UNL     1       9.005   7.175  24.412  1.00  0.00     0.168 C
BRANCH  12  13
HETATM   13  C3  UNL     1      10.061   7.899  25.200  1.00  0.00     0.250 C
BRANCH  13  14
HETATM   14  N2  UNL     1      11.102   8.460  24.380  1.00  0.00    -0.078 N
ATOM     15  H23 UNL     1      11.319   9.412  24.673  1.00  0.00     0.274 HD
ATOM     16  H22 UNL     1      11.997   8.014  24.578  1.00  0.00     0.274 HD
ATOM     17  H21 UNL     1      10.893   8.427  23.383  1.00  0.00     0.274 HD
ENDBRANCH  13  14
ENDBRANCH  12  13
ENDBRANCH  10  12
ENDBRANCH   1  10
BRANCH   4  18
HETATM   18  N4  UNL     1       3.793   9.859  24.728  1.00  0.00    -0.234 N
ATOM     19  H42 UNL     1       3.799   9.938  25.745  1.00  0.00     0.174 HD
ATOM     20  H41 UNL     1       3.025  10.292  24.216  1.00  0.00     0.174 HD
ENDBRANCH   4  18
BRANCH   7  21
HETATM   21  N6  UNL     1       5.739   8.483  20.814  1.00  0.00    -0.234 N
ATOM     22  H62 UNL     1       4.892   8.222  20.309  1.00  0.00     0.174 HD
ATOM     23  H61 UNL     1       6.600   8.723  20.323  1.00  0.00     0.174 HD
ENDBRANCH   7  21
TORSDOF 6
ENDMDL