MODEL 1
REMARK VINA RESULT: -5.475558800      0.000      0.000
REMARK  5 active torsions:
REMARK  status: ('A' for Active; 'I' for Inactive)
REMARK    1  A    between atoms: N1_1  and  C1_4
REMARK    2  A    between atoms: C2_7  and  N3_8
REMARK    3  A    between atoms: N3_8  and  N4_10
REMARK    4  A    between atoms: N4_10  and  N5_11
REMARK    5  A    between atoms: N4_10  and  C3_14
ROOT
HETATM    1  C1  UNL     1       5.391   8.511  22.133  1.00  0.00     0.694 A
HETATM    2  N2  UNL     1       6.192   7.712  22.859  1.00  0.00    -0.021 N
ATOM      3  H2  UNL     1       6.899   7.141  22.395  1.00  0.00     0.203 HD
HETATM    4  C2  UNL     1       6.060   7.663  24.203  1.00  0.00     0.717 A
HETATM    5  N6  UNL     1       5.132   8.411  24.797  1.00  0.00    -0.139 N
ATOM      6  H6  UNL     1       5.034   8.373  25.812  1.00  0.00     0.189 HD
HETATM    7  C4  UNL     1       4.330   9.208  24.096  1.00  0.00     0.352 A
HETATM    8  O2  UNL     1       3.436   9.929  24.677  1.00  0.00    -0.246 OA
HETATM    9  N7  UNL     1       4.452   9.265  22.762  1.00  0.00    -0.141 N
ATOM     10  H7  UNL     1       3.842   9.876  22.220  1.00  0.00     0.189 HD
ENDROOT
BRANCH   4  11
HETATM   11  N3  UNL     1       6.876   6.783  24.979  1.00  0.00    -0.108 N
ATOM     12  H3  UNL     1       6.597   6.522  25.925  1.00  0.00     0.208 HD
BRANCH  11  13
HETATM   13  N4  UNL     1       8.044   6.289  24.434  1.00  0.00    -0.162 N
BRANCH  13  14
HETATM   14  N5  UNL     1       9.187   7.059  24.400  1.00  0.00    -0.321 N
ATOM     15  H52 UNL     1       9.262   7.889  24.988  1.00  0.00     0.179 HD
ATOM     16  H51 UNL     1       9.969   6.805  23.795  1.00  0.00     0.179 HD
ENDBRANCH  13  14
BRANCH  13  17
HETATM   17  C3  UNL     1       8.054   4.983  23.899  1.00  0.00     0.394 C
HETATM   18  O1  UNL     1       7.501   4.809  22.755  1.00  0.00    -0.280 OA
ENDBRANCH  13  17
ENDBRANCH  11  13
ENDBRANCH   4  11
BRANCH   1  19
HETATM   19  N1  UNL     1       5.471   8.593  20.850  1.00  0.00    -0.234 N
ATOM     20  H12 UNL     1       6.358   8.348  20.409  1.00  0.00     0.174 HD
ATOM     21  H11 UNL     1       4.688   8.892  20.268  1.00  0.00     0.174 HD
ENDBRANCH   1  19
TORSDOF 5
ENDMDL