MODEL 1
REMARK VINA RESULT: -4.205703421      0.000      0.000
REMARK  6 active torsions:
REMARK  status: ('A' for Active; 'I' for Inactive)
REMARK    1  A    between atoms: N1_2  and  C2_4
REMARK    2  A    between atoms: C2_4  and  C3_5
REMARK    3  A    between atoms: C4_9  and  N3_10
REMARK    4  A    between atoms: C5_14  and  C6_15
REMARK    5  A    between atoms: C6_15  and  N4_16
REMARK    6  A    between atoms: C7_20  and  N5_21
ROOT
HETATM    1  C3  UNL     1       6.732   6.976  24.375  1.00  0.00     0.236 C
HETATM    2  N2  UNL     1       5.762   7.669  25.185  1.00  0.00    -0.038 N
ATOM      3  H21 UNL     1       6.189   8.223  25.927  1.00  0.00     0.280 HD
ATOM      4  H22 UNL     1       5.220   7.041  25.779  1.00  0.00     0.280 HD
HETATM    5  C4  UNL     1       4.932   8.460  24.299  1.00  0.00     0.388 C
HETATM    6  C5  UNL     1       4.951   7.777  22.989  1.00  0.00     0.101 C
HETATM    7  C7  UNL     1       6.269   6.992  22.969  1.00  0.00     0.225 C
ENDROOT
BRANCH   6   8
HETATM    8  C6  UNL     1       4.846   8.655  21.777  1.00  0.00     0.240 C
BRANCH   8   9
HETATM    9  N4  UNL     1       5.954   8.596  20.879  1.00  0.00    -0.079 N
ATOM     10  H43 UNL     1       6.162   7.626  20.645  1.00  0.00     0.274 HD
ATOM     11  H42 UNL     1       5.679   8.948  19.962  1.00  0.00     0.274 HD
ATOM     12  H41 UNL     1       6.799   9.069  21.195  1.00  0.00     0.274 HD
ENDBRANCH   8   9
ENDBRANCH   6   8
BRANCH   5  13
HETATM   13  N3  UNL     1       5.294   9.803  24.348  1.00  0.00    -0.050 N
ATOM     14  H33 UNL     1       5.487  10.107  25.302  1.00  0.00     0.276 HD
ATOM     15  H32 UNL     1       6.219   9.959  23.946  1.00  0.00     0.276 HD
ATOM     16  H31 UNL     1       4.586  10.387  23.902  1.00  0.00     0.276 HD
ENDBRANCH   5  13
BRANCH   7  17
HETATM   17  N5  UNL     1       5.957   5.655  22.458  1.00  0.00    -0.072 N
ATOM     18  H53 UNL     1       6.632   4.969  22.796  1.00  0.00     0.274 HD
ATOM     19  H52 UNL     1       5.113   5.285  22.894  1.00  0.00     0.274 HD
ATOM     20  H51 UNL     1       5.886   5.627  21.441  1.00  0.00     0.274 HD
ENDBRANCH   7  17
BRANCH   1  21
HETATM   21  C2  UNL     1       8.089   7.525  24.624  1.00  0.00     0.148 C
BRANCH  21  22
HETATM   22  N1  UNL     1       9.179   6.695  24.231  1.00  0.00    -0.423 N
HETATM   23  C1  UNL     1       9.112   5.339  24.682  1.00  0.00     0.139 C
ATOM     24  H1  UNL     1       9.954   7.044  23.666  1.00  0.00     0.152 HD
ENDBRANCH  21  22
ENDBRANCH   1  21
TORSDOF 6
ENDMDL