MODEL 3
REMARK VINA RESULT: -6.721114913      0.740      1.775
REMARK  2 active torsions:
REMARK  status: ('A' for Active; 'I' for Inactive)
REMARK    1  A    between atoms: C1_1  and  C7_11
REMARK    2  A    between atoms: C2_2  and  C3_3
ROOT
HETATM    1  C1  UNL     1      17.838  -6.695  11.848  1.00  0.00    -0.040 C
HETATM    2  C2  UNL     1      18.415  -5.744  12.321  1.00  0.00    -0.023 C
ENDROOT
BRANCH   2   3
HETATM    3  C3  UNL     1      19.116  -4.605  12.866  1.00  0.00     0.161 A
HETATM    4  N1  UNL     1      20.287  -4.177  12.334  1.00  0.00    -0.345 N
HETATM    5  C4  UNL     1      20.966  -3.130  12.808  1.00  0.00     0.091 A
ATOM      6  H1  UNL     1      20.669  -4.681  11.534  1.00  0.00     0.167 HD
HETATM    7  C5  UNL     1      20.489  -2.426  13.882  1.00  0.00     0.034 A
HETATM    8  C6  UNL     1      19.299  -2.843  14.440  1.00  0.00     0.091 A
HETATM    9  N2  UNL     1      18.653  -3.911  13.919  1.00  0.00    -0.345 N
ATOM     10  H2  UNL     1      17.773  -4.204  14.346  1.00  0.00     0.167 HD
ENDBRANCH   2   3
BRANCH   1  11
HETATM   11  C7  UNL     1      17.155  -7.826  11.257  1.00  0.00     0.086 A
HETATM   12  C8  UNL     1      15.863  -7.685  10.743  1.00  0.00     0.039 A
HETATM   13  C9  UNL     1      15.210  -8.747  10.183  1.00  0.00     0.004 A
HETATM   14  C10 UNL     1      15.858  -9.961  10.137  1.00  0.00     0.017 A
HETATM   15  C11 UNL     1      17.131 -10.066  10.651  1.00  0.00     0.089 A
HETATM   16  N3  UNL     1      17.767  -9.001  11.204  1.00  0.00    -0.359 N
ATOM     17  H3  UNL     1      18.712  -9.105  11.577  1.00  0.00     0.166 HD
ENDBRANCH   1  11
TORSDOF 2
ENDMDL