MODEL 2
REMARK VINA RESULT: -4.850446263      0.154      1.236
REMARK  2 active torsions:
REMARK  status: ('A' for Active; 'I' for Inactive)
REMARK    1  A    between atoms: C2_2  and  C5_5
REMARK    2  A    between atoms: C5_5  and  S1_8
ROOT
HETATM    1  C5  UNL     1      23.618  -0.921  10.925  1.00  0.00     0.082 C
HETATM    2  C6  UNL     1      24.488  -1.806  10.022  1.00  0.00     0.035 C
HETATM    3  C7  UNL     1      22.324  -1.692  11.101  1.00  0.00     0.035 C
ENDROOT
BRANCH   1   4
HETATM    4  C2  UNL     1      24.322  -0.744  12.235  1.00  0.00    -0.028 C
HETATM    5  C1  UNL     1      23.295  -0.328  13.286  1.00  0.00     0.016 C
HETATM    6  C3  UNL     1      25.385   0.302  12.233  1.00  0.00     0.016 C
HETATM    7  C4  UNL     1      24.955  -2.022  12.736  1.00  0.00     0.016 C
ENDBRANCH   1   4
BRANCH   1   8
HETATM    8  S1  UNL     1      23.237   0.573  10.100  1.00  0.00     0.111 S
HETATM    9  O1  UNL     1      24.428   1.269   9.522  1.00  0.00    -0.594 OA
HETATM   10  O2  UNL     1      22.439   1.461  11.010  1.00  0.00    -0.594 OA
HETATM   11  O3  UNL     1      22.220   0.195   8.798  1.00  0.00    -0.594 OA
ENDBRANCH   1   8
TORSDOF 2
ENDMDL