MODEL 4
REMARK VINA RESULT: -6.453950536      2.022      2.849
REMARK  1 active torsions:
REMARK  status: ('A' for Active; 'I' for Inactive)
REMARK    1  A    between atoms: O1_1  and  N1_3
ROOT
HETATM    1  N1  UNL     1      18.444  -9.434  11.157  1.00  0.00    -0.160 NA
HETATM    2  C1  UNL     1      17.038  -9.777  10.981  1.00  0.00     0.121 C
HETATM    3  C2  UNL     1      16.669 -10.013   9.552  1.00  0.00     0.024 C
HETATM    4  C3  UNL     1      15.191  -9.673   9.530  1.00  0.00     0.004 C
HETATM    5  C4  UNL     1      15.123  -8.427  10.352  1.00  0.00     0.038 C
HETATM    6  C5  UNL     1      16.264  -8.497  11.297  1.00  0.00     0.245 C
HETATM    7  N2  UNL     1      17.314  -7.512  10.986  1.00  0.00     0.115 N
HETATM    8  C6  UNL     1      16.974  -6.194  11.376  1.00  0.00     0.275 C
HETATM    9  C7  UNL     1      18.007  -5.634  12.311  1.00  0.00     0.030 C
HETATM   10  C8  UNL     1      19.372  -5.879  11.703  1.00  0.00     0.005 C
HETATM   11  C9  UNL     1      19.667  -7.363  11.691  1.00  0.00     0.054 C
HETATM   12  C10 UNL     1      18.392  -8.105  11.760  1.00  0.00     0.323 C
ENDROOT
BRANCH   1  13
HETATM   13  O1  UNL     1      19.108 -10.317  11.907  1.00  0.00    -0.311 OA
ATOM     14  H1  UNL     1      19.037 -11.207  11.583  1.00  0.00     0.237 HD
ENDBRANCH   1  13
TORSDOF 1
ENDMDL