MODEL 2
REMARK VINA RESULT: -5.729064434      1.942      3.857
REMARK  1 active torsions:
REMARK  status: ('A' for Active; 'I' for Inactive)
REMARK       I    between atoms: C2_2  and  N1_4
REMARK    1  A    between atoms: C6_9  and  O2_10
ROOT
HETATM    1  C1  UNL     1      24.634  -2.691  13.397  1.00  0.00     0.119 C
HETATM    2  C2  UNL     1      24.214  -2.373  12.000  1.00  0.00     0.231 C
HETATM    3  O1  UNL     1      24.707  -3.047  11.032  1.00  0.00    -0.272 OA
HETATM    4  N1  UNL     1      23.288  -1.355  11.673  1.00  0.00    -0.269 N
HETATM    5  N2  UNL     1      22.903  -1.072  10.375  1.00  0.00    -0.223 NA
HETATM    6  C3  UNL     1      22.578  -2.241   9.595  1.00  0.00     0.137 C
HETATM    7  C4  UNL     1      21.811  -0.128  10.450  1.00  0.00     0.106 C
HETATM    8  C5  UNL     1      21.964   0.834   9.284  1.00  0.00     0.031 C
HETATM    9  C6  UNL     1      21.959   0.546  11.779  1.00  0.00     0.166 C
HETATM   10  C7  UNL     1      22.643  -0.502  12.626  1.00  0.00     0.072 C
HETATM   11  C8  UNL     1      23.666   0.197  13.537  1.00  0.00     0.042 C
HETATM   12  C9  UNL     1      21.681  -1.204  13.522  1.00  0.00     0.042 C
ENDROOT
BRANCH   9  13
HETATM   13  O2  UNL     1      22.721   1.702  11.712  1.00  0.00    -0.391 OA
ATOM     14  H2  UNL     1      23.402   1.733  12.373  1.00  0.00     0.210 HD
ENDBRANCH   9  13
TORSDOF 1
ENDMDL