MODEL 5
REMARK VINA RESULT: -5.653898222      1.868      2.480
REMARK  1 active torsions:
REMARK  status: ('A' for Active; 'I' for Inactive)
REMARK    1  A    between atoms: C8_9  and  N1_10
ROOT
HETATM    1  C1  UNL     1      21.297  -3.294  12.305  1.00  0.00     0.051 C
HETATM    2  C2  UNL     1      21.533  -1.992  11.638  1.00  0.00     0.120 C
HETATM    3  O1  UNL     1      21.388  -2.047  10.259  1.00  0.00    -0.342 OA
HETATM    4  C3  UNL     1      22.505  -1.446   9.693  1.00  0.00     0.286 C
HETATM    5  C4  UNL     1      22.094  -0.088   9.244  1.00  0.00     0.029 C
HETATM    6  C5  UNL     1      21.995   0.972  10.037  1.00  0.00    -0.025 C
HETATM    7  C6  UNL     1      22.235   1.146  11.473  1.00  0.00     0.037 C
HETATM    8  C7  UNL     1      22.091  -0.079  12.298  1.00  0.00     0.060 C
HETATM    9  C8  UNL     1      20.773  -0.809  12.190  1.00  0.00     0.227 C
HETATM   10  C9  UNL     1      22.814  -1.280  11.893  1.00  0.00     0.099 C
HETATM   11  C10 UNL     1      23.708  -1.827  12.974  1.00  0.00     0.050 C
HETATM   12  O2  UNL     1      23.444  -1.299  10.687  1.00  0.00    -0.344 OA
ENDROOT
BRANCH   9  13
HETATM   13  N1  UNL     1      20.165  -1.173  13.456  1.00  0.00    -0.072 N
ATOM     14  H13 UNL     1      19.154  -1.038  13.452  1.00  0.00     0.274 HD
ATOM     15  H12 UNL     1      20.176  -2.181  13.613  1.00  0.00     0.274 HD
ATOM     16  H11 UNL     1      20.620  -0.660  14.211  1.00  0.00     0.274 HD
ENDBRANCH   9  13
TORSDOF 1
ENDMDL