MODEL 1
REMARK VINA RESULT: -6.038648148      0.000      0.000
REMARK  2 active torsions:
REMARK  status: ('A' for Active; 'I' for Inactive)
REMARK    1  A    between atoms: C3_3  and  O1_4
REMARK    2  A    between atoms: N2_10  and  O2_11
ROOT
HETATM    1  C1  UNL     1      24.348  -1.979  12.238  1.00  0.00     0.015 C
HETATM    2  C2  UNL     1      23.269  -1.326  11.445  1.00  0.00     0.038 C
HETATM    3  C3  UNL     1      23.382  -1.570   9.957  1.00  0.00     0.163 C
HETATM    4  C4  UNL     1      22.021  -1.056   9.531  1.00  0.00     0.149 C
HETATM    5  C5  UNL     1      21.503  -1.749   8.305  1.00  0.00     0.054 C
HETATM    6  C6  UNL     1      22.162   0.389   9.232  1.00  0.00     0.089 C
HETATM    7  N1  UNL     1      22.278   1.519   9.018  1.00  0.00    -0.195 NA
HETATM    8  N2  UNL     1      21.124  -1.240  10.629  1.00  0.00    -0.165 NA
HETATM    9  C7  UNL     1      21.893  -1.834  11.722  1.00  0.00     0.039 C
HETATM   10  C8  UNL     1      21.789  -3.340  11.709  1.00  0.00     0.035 C
HETATM   11  C9  UNL     1      21.443  -1.330  13.067  1.00  0.00     0.035 C
ENDROOT
BRANCH   3  12
HETATM   12  O1  UNL     1      24.372  -0.833   9.354  1.00  0.00    -0.392 OA
ATOM     13  H1  UNL     1      24.496  -1.044   8.436  1.00  0.00     0.210 HD
ENDBRANCH   3  12
BRANCH   8  14
HETATM   14  O2  UNL     1      20.610  -0.044  11.033  1.00  0.00    -0.310 OA
ATOM     15  H2  UNL     1      20.001   0.293  10.386  1.00  0.00     0.237 HD
ENDBRANCH   8  14
TORSDOF 2
ENDMDL