MODEL 2
REMARK VINA RESULT: -5.865392583      1.639      2.179
REMARK  1 active torsions:
REMARK  status: ('A' for Active; 'I' for Inactive)
REMARK    1  A    between atoms: C10_12  and  O3_13
ROOT
HETATM    1  C1  UNL     1      20.896  -1.305  14.052  1.00  0.00     0.049 C
HETATM    2  C2  UNL     1      21.347  -0.935  12.714  1.00  0.00     0.085 C
HETATM    3  C3  UNL     1      21.646  -2.134  11.795  1.00  0.00     0.050 C
HETATM    4  C4  UNL     1      22.005  -1.289  10.559  1.00  0.00     0.055 C
HETATM    5  C5  UNL     1      21.095  -0.086  10.791  1.00  0.00     0.139 C
HETATM    6  O1  UNL     1      20.304  -0.396  11.918  1.00  0.00    -0.372 OA
HETATM    7  C6  UNL     1      22.052   0.884  11.422  1.00  0.00     0.079 C
HETATM    8  C7  UNL     1      22.481   0.040  12.627  1.00  0.00     0.166 C
HETATM    9  O2  UNL     1      23.611  -0.686  12.198  1.00  0.00    -0.369 OA
HETATM   10  C8  UNL     1      23.390  -0.786  10.802  1.00  0.00     0.090 C
HETATM   11  C9  UNL     1      24.471  -1.404  10.048  1.00  0.00     0.049 C
HETATM   12  C10 UNL     1      23.254   0.724  10.520  1.00  0.00     0.162 C
ENDROOT
BRANCH  12  13
HETATM   13  O3  UNL     1      24.385   1.316  11.024  1.00  0.00    -0.392 OA
ATOM     14  H3  UNL     1      25.054   1.461  10.364  1.00  0.00     0.210 HD
ENDBRANCH  12  13
TORSDOF 1
ENDMDL