MODEL 4
REMARK VINA RESULT: -6.297527369      1.626      2.265
REMARK  1 active torsions:
REMARK  status: ('A' for Active; 'I' for Inactive)
REMARK    1  A    between atoms: C5_5  and  O1_6
ROOT
HETATM    1  C1  UNL     1      20.871  -3.683  12.147  1.00  0.00     0.015 C
HETATM    2  C2  UNL     1      20.221  -4.648  12.471  1.00  0.00    -0.085 C
HETATM    3  C3  UNL     1      19.446  -5.831  12.866  1.00  0.00     0.209 C
HETATM    4  C4  UNL     1      17.988  -5.645  12.619  1.00  0.00     0.082 C
HETATM    5  C5  UNL     1      17.439  -6.408  11.467  1.00  0.00     0.157 C
HETATM    6  C6  UNL     1      17.915  -7.814  11.442  1.00  0.00     0.004 A
HETATM    7  C7  UNL     1      17.088  -8.865  11.061  1.00  0.00     0.012 A
HETATM    8  C8  UNL     1      17.558 -10.166  11.046  1.00  0.00     0.001 A
HETATM    9  C9  UNL     1      18.865 -10.393  11.420  1.00  0.00     0.003 A
HETATM   10  C10 UNL     1      19.670  -9.336  11.795  1.00  0.00     0.037 A
HETATM   11  C11 UNL     1      19.224  -8.039  11.816  1.00  0.00     0.079 A
HETATM   12  O2  UNL     1      19.994  -6.952  12.184  1.00  0.00    -0.333 OA
ENDROOT
BRANCH   5  13
HETATM   13  O1  UNL     1      17.824  -5.754  10.274  1.00  0.00    -0.391 OA
ATOM     14  H1  UNL     1      18.730  -5.479  10.361  1.00  0.00     0.210 HD
ENDBRANCH   5  13
TORSDOF 1
ENDMDL