MODEL 4
REMARK VINA RESULT: -5.654915232      1.993      2.952
REMARK  1 active torsions:
REMARK  status: ('A' for Active; 'I' for Inactive)
REMARK    1  A    between atoms: C9_11  and  N1_13
ROOT
HETATM    1  C1  UNL     1      24.704  -3.755  11.195  1.00  0.00     0.046 C
HETATM    2  C2  UNL     1      24.534  -2.460  11.402  1.00  0.00     0.047 C
HETATM    3  O1  UNL     1      24.193  -1.576  10.383  1.00  0.00    -0.316 OA
HETATM    4  C3  UNL     1      24.030  -0.224  10.774  1.00  0.00     0.202 C
HETATM    5  C4  UNL     1      23.749   0.714   9.639  1.00  0.00     0.082 C
HETATM    6  O2  UNL     1      25.068   0.180  11.638  1.00  0.00    -0.338 OA
HETATM    7  C5  UNL     1      24.327  -0.390  12.679  1.00  0.00     0.108 C
HETATM    8  C6  UNL     1      24.389   0.333  13.986  1.00  0.00     0.050 C
HETATM    9  C7  UNL     1      24.689  -1.829  12.742  1.00  0.00     0.075 C
HETATM   10  C8  UNL     1      24.012  -2.600  13.830  1.00  0.00     0.020 C
HETATM   11  C9  UNL     1      23.098  -0.052  11.920  1.00  0.00     0.206 C
HETATM   12  C10 UNL     1      21.922  -0.944  12.028  1.00  0.00     0.055 C
ENDROOT
BRANCH  11  13
HETATM   13  N1  UNL     1      22.745   1.343  12.097  1.00  0.00    -0.062 N
ATOM     14  H13 UNL     1      23.499   1.869  12.539  1.00  0.00     0.275 HD
ATOM     15  H12 UNL     1      22.712   1.839  11.206  1.00  0.00     0.275 HD
ATOM     16  H11 UNL     1      21.869   1.436  12.611  1.00  0.00     0.275 HD
ENDBRANCH  11  13
TORSDOF 1
ENDMDL