MODEL 1
REMARK VINA RESULT: -5.712405002      0.000      0.000
REMARK  6 active torsions:
REMARK  status: ('A' for Active; 'I' for Inactive)
REMARK    1  A    between atoms: N1_1  and  C1_4
REMARK    2  A    between atoms: C2_10  and  C3_11
REMARK    3  A    between atoms: C3_11  and  N4_12
REMARK    4  A    between atoms: C3_11  and  C4_16
REMARK    5  A    between atoms: C4_16  and  C5_17
REMARK    6  A    between atoms: C5_17  and  N5_18
ROOT
HETATM    1  C3  UNL     1       3.109   2.508   5.846  1.00  0.00     0.240 C
ENDROOT
BRANCH   1   2
HETATM    2  C2  UNL     1       2.041   3.523   6.040  1.00  0.00     0.110 A
HETATM    3  C1  UNL     1       2.159   4.800   6.552  1.00  0.00     0.148 A
HETATM    4  N2  UNL     1       0.921   5.379   6.549  1.00  0.00    -0.224 N
HETATM    5  O1  UNL     1       0.107   4.496   6.063  1.00  0.00    -0.155 OA
ATOM      6  H2  UNL     1       0.685   6.319   6.867  1.00  0.00     0.198 HD
HETATM    7  N3  UNL     1       0.720   3.406   5.756  1.00  0.00    -0.240 N
ATOM      8  H3  UNL     1       0.277   2.578   5.357  1.00  0.00     0.196 HD
BRANCH   3   9
HETATM    9  N1  UNL     1       3.234   5.372   6.966  1.00  0.00    -0.382 N
ATOM     10  H12 UNL     1       3.672   6.209   6.580  1.00  0.00     0.157 HD
ATOM     11  H11 UNL     1       3.798   5.051   7.753  1.00  0.00     0.157 HD
ENDBRANCH   3   9
ENDBRANCH   1   2
BRANCH   1  12
HETATM   12  N4  UNL     1       2.724   1.464   4.914  1.00  0.00    -0.069 N
ATOM     13  H43 UNL     1       1.727   1.510   4.706  1.00  0.00     0.275 HD
ATOM     14  H42 UNL     1       3.096   1.649   3.983  1.00  0.00     0.275 HD
ATOM     15  H41 UNL     1       2.989   0.534   5.236  1.00  0.00     0.275 HD
ENDBRANCH   1  12
BRANCH   1  16
HETATM   16  C4  UNL     1       3.482   1.847   7.152  1.00  0.00     0.066 C
BRANCH  16  17
HETATM   17  C5  UNL     1       4.914   2.110   7.511  1.00  0.00     0.232 C
BRANCH  17  18
HETATM   18  N5  UNL     1       5.285   1.289   8.644  1.00  0.00    -0.079 N
ATOM     19  H53 UNL     1       5.307   1.820   9.515  1.00  0.00     0.274 HD
ATOM     20  H52 UNL     1       4.552   0.626   8.896  1.00  0.00     0.274 HD
ATOM     21  H51 UNL     1       6.174   0.826   8.451  1.00  0.00     0.274 HD
ENDBRANCH  17  18
ENDBRANCH  16  17
ENDBRANCH   1  16
TORSDOF 6
ENDMDL