MODEL 2
REMARK VINA RESULT: -6.158026849      0.838      2.293
REMARK  4 active torsions:
REMARK  status: ('A' for Active; 'I' for Inactive)
REMARK    1  A    between atoms: N1_1  and  C1_5
REMARK    2  A    between atoms: C3_7  and  N2_8
REMARK    3  A    between atoms: C4_12  and  N3_13
REMARK    4  A    between atoms: N3_13  and  C5_15
ROOT
HETATM    1  C1  UNL     1       3.808   1.675   7.658  1.00  0.00     0.210 C
HETATM    2  C2  UNL     1       5.312   1.525   7.917  1.00  0.00     0.070 C
HETATM    3  C3  UNL     1       5.518   2.265   6.588  1.00  0.00     0.210 C
HETATM    4  C4  UNL     1       4.162   2.880   6.848  1.00  0.00     0.160 C
ENDROOT
BRANCH   4   5
HETATM    5  N3  UNL     1       3.354   3.178   5.727  1.00  0.00    -0.215 N
ATOM      6  H3  UNL     1       3.605   2.842   4.797  1.00  0.00     0.178 HD
BRANCH   5   7
HETATM    7  C5  UNL     1       2.170   3.968   5.933  1.00  0.00     0.707 A
HETATM    8  N4  UNL     1       0.888   3.567   5.830  1.00  0.00    -0.114 N
HETATM    9  N5  UNL     1       0.083   4.579   6.094  1.00  0.00     0.009 NA
ATOM     10  H4  UNL     1       0.586   2.624   5.585  1.00  0.00     0.203 HD
HETATM   11  N6  UNL     1       0.833   5.634   6.367  1.00  0.00    -0.212 N
HETATM   12  N7  UNL     1       2.096   5.273   6.273  1.00  0.00    -0.118 N
ATOM     13  H6  UNL     1       0.493   6.565   6.609  1.00  0.00     0.206 HD
ATOM     14  H7  UNL     1       2.897   5.885   6.432  1.00  0.00     0.207 HD
ENDBRANCH   5   7
ENDBRANCH   4   5
BRANCH   1  15
HETATM   15  N1  UNL     1       3.334   0.530   6.917  1.00  0.00    -0.073 N
ATOM     16  H13 UNL     1       2.317   0.458   6.928  1.00  0.00     0.274 HD
ATOM     17  H12 UNL     1       3.460   0.642   5.911  1.00  0.00     0.274 HD
ATOM     18  H11 UNL     1       3.785  -0.313   7.272  1.00  0.00     0.274 HD
ENDBRANCH   1  15
BRANCH   3  19
HETATM   19  N2  UNL     1       6.637   3.144   6.669  1.00  0.00    -0.073 N
ATOM     20  H23 UNL     1       7.165   3.007   7.532  1.00  0.00     0.274 HD
ATOM     21  H22 UNL     1       7.367   2.890   6.002  1.00  0.00     0.274 HD
ATOM     22  H21 UNL     1       6.343   4.114   6.556  1.00  0.00     0.274 HD
ENDBRANCH   3  19
TORSDOF 4
ENDMDL