MODEL 5
REMARK VINA RESULT: -6.699878348      1.675      2.222
REMARK  4 active torsions:
REMARK  status: ('A' for Active; 'I' for Inactive)
REMARK    1  A    between atoms: O1_1  and  N1_3
REMARK    2  A    between atoms: C2_5  and  N2_6
REMARK    3  A    between atoms: N2_6  and  N3_8
REMARK    4  A    between atoms: N3_8  and  C3_10
ROOT
HETATM    1  N2  UNL     1       1.759   2.140   6.613  1.00  0.00    -0.269 N
ATOM      2  H2  UNL     1       1.299   1.635   7.370  1.00  0.00     0.189 HD
ENDROOT
BRANCH   1   3
HETATM    3  C2  UNL     1       3.131   1.908   6.367  1.00  0.00     0.153 A
HETATM    4  C1  UNL     1       4.218   2.723   6.612  1.00  0.00     0.192 A
HETATM    5  N1  UNL     1       5.317   2.053   6.207  1.00  0.00    -0.155 N
HETATM    6  N8  UNL     1       4.926   0.865   5.727  1.00  0.00     0.007 NA
HETATM    7  N7  UNL     1       3.607   0.769   5.821  1.00  0.00    -0.265 N
ATOM      8  H7  UNL     1       3.047  -0.031   5.528  1.00  0.00     0.186 HD
BRANCH   5   9
HETATM    9  O1  UNL     1       6.615   2.488   6.264  1.00  0.00    -0.270 OA
ATOM     10  H1  UNL     1       7.176   2.707   5.530  1.00  0.00     0.246 HD
ENDBRANCH   5   9
ENDBRANCH   1   3
BRANCH   1  11
HETATM   11  N3  UNL     1       1.017   3.037   5.853  1.00  0.00    -0.128 N
ATOM     12  H3  UNL     1       0.272   2.679   5.256  1.00  0.00     0.205 HD
BRANCH  11  13
HETATM   13  C3  UNL     1       1.261   4.438   5.880  1.00  0.00     0.723 A
HETATM   14  N4  UNL     1       0.755   5.529   6.448  1.00  0.00    -0.113 N
HETATM   15  N5  UNL     1       1.651   6.327   5.864  1.00  0.00     0.007 NA
ATOM     16  H4  UNL     1      -0.023   5.694   7.088  1.00  0.00     0.203 HD
HETATM   17  N6  UNL     1       2.167   5.246   5.289  1.00  0.00    -0.113 N
ATOM     18  H6  UNL     1       2.946   5.088   4.650  1.00  0.00     0.203 HD
ENDBRANCH  11  13
ENDBRANCH   1  11
TORSDOF 4
ENDMDL