MODEL 3
REMARK VINA RESULT: -5.225240168      1.511      2.702
REMARK  5 active torsions:
REMARK  status: ('A' for Active; 'I' for Inactive)
REMARK    1  A    between atoms: C3_5  and  C4_6
REMARK    2  A    between atoms: C4_6  and  N3_7
REMARK    3  A    between atoms: C4_6  and  C5_11
REMARK    4  A    between atoms: C5_11  and  N4_12
REMARK    5  A    between atoms: C6_17  and  N5_18
ROOT
HETATM    1  C1  UNL     1       4.901   6.171   8.216  1.00  0.00     0.161 C
HETATM    2  N1  UNL     1       4.517   4.902   7.654  1.00  0.00    -0.304 N
HETATM    3  C2  UNL     1       3.569   4.634   6.758  1.00  0.00     0.153 A
HETATM    4  N2  UNL     1       2.661   5.563   6.170  1.00  0.00    -0.080 NA
HETATM    5  C3  UNL     1       3.634   3.269   6.452  1.00  0.00     0.130 A
HETATM    6  O1  UNL     1       4.601   2.765   7.150  1.00  0.00    -0.278 OA
HETATM    7  C6  UNL     1       5.154   3.739   7.899  1.00  0.00     0.225 A
ENDROOT
BRANCH   5   8
HETATM    8  C4  UNL     1       2.731   2.579   5.538  1.00  0.00     0.269 C
BRANCH   8   9
HETATM    9  N3  UNL     1       1.350   2.770   6.223  1.00  0.00    -0.067 N
ATOM     10  H33 UNL     1       1.007   1.956   6.732  1.00  0.00     0.275 HD
ATOM     11  H32 UNL     1       1.353   3.397   7.027  1.00  0.00     0.275 HD
ATOM     12  H31 UNL     1       0.759   3.071   5.448  1.00  0.00     0.275 HD
ENDBRANCH   8   9
BRANCH   8  13
HETATM   13  C5  UNL     1       2.905   1.061   5.598  1.00  0.00     0.269 C
BRANCH  13  14
HETATM   14  N4  UNL     1       2.855   0.580   6.972  1.00  0.00    -0.077 N
ATOM     15  H43 UNL     1       3.780   0.570   7.400  1.00  0.00     0.274 HD
ATOM     16  H42 UNL     1       2.404   1.255   7.589  1.00  0.00     0.274 HD
ATOM     17  H41 UNL     1       2.406  -0.335   7.026  1.00  0.00     0.274 HD
ENDBRANCH  13  14
ENDBRANCH   8  13
ENDBRANCH   5   8
BRANCH   7  18
HETATM   18  N5  UNL     1       6.118   3.474   8.669  1.00  0.00    -0.365 N
ATOM     19  H52 UNL     1       5.962   3.391   9.673  1.00  0.00     0.159 HD
ATOM     20  H51 UNL     1       7.104   3.309   8.468  1.00  0.00     0.159 HD
ENDBRANCH   7  18
TORSDOF 5
ENDMDL