MODEL 2
REMARK VINA RESULT: -5.227273113      1.343      2.131
REMARK  5 active torsions:
REMARK  status: ('A' for Active; 'I' for Inactive)
REMARK    1  A    between atoms: N1_1  and  C1_4
REMARK    2  A    between atoms: C2_9  and  S1_10
REMARK    3  A    between atoms: S1_10  and  C3_11
REMARK    4  A    between atoms: C3_11  and  N4_12
REMARK    5  A    between atoms: C3_11  and  N5_16
ROOT
HETATM    1  C1  UNL     1       1.387   4.806   6.074  1.00  0.00     0.692 A
HETATM    2  N2  UNL     1       0.454   3.910   5.722  1.00  0.00    -0.130 N
ATOM      3  H2  UNL     1      -0.528   4.118   5.538  1.00  0.00     0.205 HD
HETATM    4  N3  UNL     1       1.012   2.718   5.651  1.00  0.00    -0.265 N
ATOM      5  H3  UNL     1       0.529   1.854   5.403  1.00  0.00     0.189 HD
HETATM    6  C2  UNL     1       2.316   2.820   5.955  1.00  0.00     0.178 A
HETATM    7  N6  UNL     1       2.531   4.121   6.214  1.00  0.00    -0.168 N
ATOM      8  H6  UNL     1       3.429   4.525   6.478  1.00  0.00     0.186 HD
ENDROOT
BRANCH   6   9
HETATM    9  S1  UNL     1       3.548   1.532   6.017  1.00  0.00    -0.031 SA
BRANCH   9  10
HETATM   10  C3  UNL     1       4.929   2.095   7.019  1.00  0.00     0.447 C
BRANCH  10  11
HETATM   11  N4  UNL     1       6.199   1.913   6.350  1.00  0.00    -0.041 N
ATOM     12  H43 UNL     1       6.287   0.968   5.974  1.00  0.00     0.277 HD
ATOM     13  H42 UNL     1       6.235   2.438   5.476  1.00  0.00     0.277 HD
ATOM     14  H41 UNL     1       6.988   2.145   6.953  1.00  0.00     0.277 HD
ENDBRANCH  10  11
BRANCH  10  15
HETATM   15  N5  UNL     1       4.907   1.409   8.313  1.00  0.00    -0.041 N
ATOM     16  H53 UNL     1       4.556   2.008   9.061  1.00  0.00     0.277 HD
ATOM     17  H52 UNL     1       4.189   0.686   8.354  1.00  0.00     0.277 HD
ATOM     18  H51 UNL     1       5.836   1.041   8.520  1.00  0.00     0.277 HD
ENDBRANCH  10  15
ENDBRANCH   9  10
ENDBRANCH   6   9
BRANCH   1  19
HETATM   19  N1  UNL     1       1.214   6.090   6.244  1.00  0.00    -0.233 N
ATOM     20  H12 UNL     1       0.331   6.600   6.213  1.00  0.00     0.174 HD
ATOM     21  H11 UNL     1       1.937   6.784   6.436  1.00  0.00     0.174 HD
ENDBRANCH   1  19
TORSDOF 5
ENDMDL