MODEL 3
REMARK VINA RESULT: -5.299875418      1.168      1.698
REMARK  7 active torsions:
REMARK  status: ('A' for Active; 'I' for Inactive)
REMARK    1  A    between atoms: N1_1  and  C1_4
REMARK    2  A    between atoms: C2_7  and  N3_8
REMARK    3  A    between atoms: N4_11  and  C3_12
REMARK    4  A    between atoms: C3_12  and  C4_13
REMARK    5  A    between atoms: C4_13  and  C5_14
REMARK    6  A    between atoms: C5_14  and  N5_15
REMARK    7  A    between atoms: N6_19  and  O1_20
ROOT
HETATM    1  C1  UNL     1       1.345   3.675   6.075  1.00  0.00     0.733 A
HETATM    2  N2  UNL     1       1.425   2.343   6.101  1.00  0.00    -0.018 N
ATOM      3  H2  UNL     1       0.649   1.687   5.999  1.00  0.00     0.203 HD
HETATM    4  C2  UNL     1       2.730   2.024   6.286  1.00  0.00     0.709 A
HETATM    5  N4  UNL     1       3.464   3.173   6.377  1.00  0.00    -0.082 N
HETATM    6  N6  UNL     1       2.587   4.150   6.244  1.00  0.00     0.033 N
ENDROOT
BRANCH   5   7
HETATM    7  C3  UNL     1       4.883   3.225   6.575  1.00  0.00     0.173 C
BRANCH   7   8
HETATM    8  C4  UNL     1       5.261   3.567   8.008  1.00  0.00     0.050 C
BRANCH   8   9
HETATM    9  C5  UNL     1       6.261   2.494   8.444  1.00  0.00     0.231 C
BRANCH   9  10
HETATM   10  N5  UNL     1       5.605   1.273   8.829  1.00  0.00    -0.079 N
ATOM     11  H53 UNL     1       5.353   1.285   9.817  1.00  0.00     0.274 HD
ATOM     12  H52 UNL     1       4.671   1.211   8.425  1.00  0.00     0.274 HD
ATOM     13  H51 UNL     1       6.164   0.452   8.598  1.00  0.00     0.274 HD
ENDBRANCH   9  10
ENDBRANCH   8   9
ENDBRANCH   7   8
ENDBRANCH   5   7
BRANCH   4  14
HETATM   14  N3  UNL     1       3.230   0.840   6.369  1.00  0.00    -0.233 N
ATOM     15  H32 UNL     1       3.568   0.305   5.568  1.00  0.00     0.174 HD
ATOM     16  H31 UNL     1       3.354   0.288   7.217  1.00  0.00     0.174 HD
ENDBRANCH   4  14
BRANCH   6  17
HETATM   17  O1  UNL     1       2.966   5.490   6.283  1.00  0.00    -0.254 OA
ATOM     18  H1  UNL     1       2.605   6.163   6.847  1.00  0.00     0.247 HD
ENDBRANCH   6  17
BRANCH   1  19
HETATM   19  N1  UNL     1       0.257   4.340   5.917  1.00  0.00    -0.231 N
ATOM     20  H12 UNL     1      -0.257   4.509   5.053  1.00  0.00     0.174 HD
ATOM     21  H11 UNL     1      -0.253   4.806   6.667  1.00  0.00     0.174 HD
ENDBRANCH   1  19
TORSDOF 7
ENDMDL