MODEL 5
REMARK VINA RESULT: -5.202236814      1.652      2.700
REMARK  5 active torsions:
REMARK  status: ('A' for Active; 'I' for Inactive)
REMARK    1  A    between atoms: N1_2  and  N2_3
REMARK    2  A    between atoms: N2_3  and  N3_4
REMARK    3  A    between atoms: N3_4  and  C2_6
REMARK    4  A    between atoms: N4_7  and  N5_9
REMARK    5  A    between atoms: N5_9  and  C3_11
ROOT
HETATM    1  N5  UNL     1       4.006   1.372   7.969  1.00  0.00    -0.271 N
ATOM      2  H5  UNL     1       3.691   1.745   8.864  1.00  0.00     0.190 HD
ENDROOT
BRANCH   1   3
HETATM    3  N4  UNL     1       3.078   0.757   7.134  1.00  0.00    -0.293 N
HETATM    4  C2  UNL     1       2.219   1.376   6.419  1.00  0.00     0.211 C
ATOM      5  H4  UNL     1       3.083  -0.262   7.089  1.00  0.00     0.187 HD
BRANCH   4   6
HETATM    6  N3  UNL     1       2.078   2.786   6.363  1.00  0.00    -0.282 N
ATOM      7  H3  UNL     1       2.917   3.366   6.339  1.00  0.00     0.184 HD
BRANCH   6   8
HETATM    8  N2  UNL     1       0.833   3.403   6.339  1.00  0.00    -0.031 NA
BRANCH   8   9
HETATM    9  N1  UNL     1       0.849   4.728   6.722  1.00  0.00    -0.131 NA
HETATM   10  C1  UNL     1       1.680   5.570   5.908  1.00  0.00     0.156 C
ENDBRANCH   8   9
ENDBRANCH   6   8
ENDBRANCH   4   6
ENDBRANCH   1   3
BRANCH   1  11
HETATM   11  C3  UNL     1       5.396   1.501   7.614  1.00  0.00     0.190 C
HETATM   12  N6  UNL     1       5.827   2.113   6.571  1.00  0.00    -0.360 N
HETATM   13  C4  UNL     1       7.262   2.055   6.520  1.00  0.00     0.142 C
ATOM     14  H6  UNL     1       5.236   2.574   5.879  1.00  0.00     0.162 HD
HETATM   15  C5  UNL     1       7.611   0.920   7.453  1.00  0.00     0.142 C
HETATM   16  N7  UNL     1       6.482   0.967   8.360  1.00  0.00    -0.360 N
ATOM     17  H7  UNL     1       6.469   0.674   9.337  1.00  0.00     0.162 HD
ENDBRANCH   1  11
TORSDOF 5
ENDMDL