MODEL 5
REMARK VINA RESULT: -5.358064427      1.406      5.032
REMARK  6 active torsions:
REMARK  status: ('A' for Active; 'I' for Inactive)
REMARK    1  A    between atoms: N1_2  and  C2_3
REMARK    2  A    between atoms: N1_2  and  C4_14
REMARK    3  A    between atoms: C3_6  and  N3_7
REMARK    4  A    between atoms: C4_14  and  N6_15
REMARK    5  A    between atoms: C4_14  and  C5_19
REMARK    6  A    between atoms: C5_19  and  N7_20
ROOT
HETATM    1  C1  UNL     1       3.799   5.083   6.993  1.00  0.00     0.171 C
HETATM    2  N1  UNL     1       3.540   3.723   6.588  1.00  0.00    -0.189 N
ENDROOT
BRANCH   2   3
HETATM    3  C2  UNL     1       4.496   2.724   6.956  1.00  0.00     0.711 A
HETATM    4  N2  UNL     1       4.871   2.384   8.216  1.00  0.00    -0.020 N
HETATM    5  C3  UNL     1       5.786   1.404   8.112  1.00  0.00     0.705 A
ATOM      6  H2  UNL     1       4.522   2.796   9.082  1.00  0.00     0.203 HD
HETATM    7  N4  UNL     1       5.994   1.120   6.813  1.00  0.00    -0.118 N
HETATM    8  N5  UNL     1       5.201   1.932   6.137  1.00  0.00    -0.117 N
ATOM      9  H4  UNL     1       6.631   0.423   6.430  1.00  0.00     0.206 HD
ATOM     10  H5  UNL     1       5.134   1.953   5.120  1.00  0.00     0.206 HD
BRANCH   5  11
HETATM   11  N3  UNL     1       6.341   0.863   9.141  1.00  0.00    -0.233 N
ATOM     12  H32 UNL     1       6.765   1.327   9.945  1.00  0.00     0.174 HD
ATOM     13  H31 UNL     1       6.413  -0.148   9.256  1.00  0.00     0.174 HD
ENDBRANCH   5  11
ENDBRANCH   2   3
BRANCH   2  14
HETATM   14  C4  UNL     1       2.356   3.420   5.845  1.00  0.00     0.324 C
BRANCH  14  15
HETATM   15  N6  UNL     1       1.697   2.217   6.277  1.00  0.00    -0.056 N
ATOM     16  H63 UNL     1       2.359   1.587   6.730  1.00  0.00     0.276 HD
ATOM     17  H62 UNL     1       1.078   2.409   7.064  1.00  0.00     0.276 HD
ATOM     18  H61 UNL     1       1.194   1.736   5.531  1.00  0.00     0.276 HD
ENDBRANCH  14  15
BRANCH  14  19
HETATM   19  C5  UNL     1       1.434   4.607   5.827  1.00  0.00     0.284 C
BRANCH  19  20
HETATM   20  N7  UNL     1       0.042   4.289   5.880  1.00  0.00    -0.076 N
ATOM     21  H73 UNL     1      -0.477   5.053   6.314  1.00  0.00     0.274 HD
ATOM     22  H72 UNL     1      -0.360   4.311   4.942  1.00  0.00     0.274 HD
ATOM     23  H71 UNL     1      -0.180   3.406   6.338  1.00  0.00     0.274 HD
ENDBRANCH  19  20
ENDBRANCH  14  19
ENDBRANCH   2  14
TORSDOF 6
ENDMDL