MODEL 2
REMARK VINA RESULT: -5.732436462      1.268      2.704
REMARK  2 active torsions:
REMARK  status: ('A' for Active; 'I' for Inactive)
REMARK       I    between atoms: N2_7  and  C4_9
REMARK       I    between atoms: C4_9  and  N3_10
REMARK       I    between atoms: C4_9  and  N4_14
REMARK    1  A    between atoms: C5_18  and  N5_19
REMARK    2  A    between atoms: N5_19  and  N6_21
ROOT
HETATM    1  C1  UNL     1       1.508   2.956   5.718  1.00  0.00     0.073 C
HETATM    2  C2  UNL     1       2.656   2.429   6.497  1.00  0.00     0.061 A
HETATM    3  N1  UNL     1       2.863   1.187   6.953  1.00  0.00    -0.261 N
ATOM      4  H1  UNL     1       2.225   0.403   6.818  1.00  0.00     0.194 HD
HETATM    5  O1  UNL     1       3.990   1.125   7.592  1.00  0.00    -0.217 OA
HETATM    6  C3  UNL     1       4.592   2.290   7.604  1.00  0.00     0.199 A
HETATM    7  N2  UNL     1       5.712   2.642   8.124  1.00  0.00    -0.318 N
ATOM      8  H2  UNL     1       5.994   3.615   8.011  1.00  0.00     0.165 HD
HETATM    9  C4  UNL     1       6.594   1.783   8.848  1.00  0.00     0.482 C
HETATM   10  N3  UNL     1       6.895   0.553   8.130  1.00  0.00    -0.033 N
ATOM     11  H31 UNL     1       7.525  -0.060   8.647  1.00  0.00     0.278 HD
ATOM     12  H32 UNL     1       7.261   0.753   7.199  1.00  0.00     0.278 HD
ATOM     13  H33 UNL     1       6.040   0.063   7.869  1.00  0.00     0.278 HD
HETATM   14  N4  UNL     1       6.100   1.407  10.150  1.00  0.00    -0.033 N
ATOM     15  H41 UNL     1       6.730   0.793  10.667  1.00  0.00     0.278 HD
ATOM     16  H42 UNL     1       5.173   0.988  10.076  1.00  0.00     0.278 HD
ATOM     17  H43 UNL     1       5.872   2.234  10.701  1.00  0.00     0.278 HD
HETATM   18  C5  UNL     1       3.766   3.150   6.911  1.00  0.00     0.125 A
ENDROOT
BRANCH  18  19
HETATM   19  N5  UNL     1       3.960   4.538   6.636  1.00  0.00    -0.301 N
ATOM     20  H5  UNL     1       4.379   4.825   5.751  1.00  0.00     0.186 HD
BRANCH  19  21
HETATM   21  N6  UNL     1       3.584   5.501   7.566  1.00  0.00    -0.344 N
ATOM     22  H62 UNL     1       2.602   5.563   7.839  1.00  0.00     0.176 HD
ATOM     23  H61 UNL     1       4.277   6.133   7.967  1.00  0.00     0.176 HD
ENDBRANCH  19  21
ENDBRANCH  18  19
TORSDOF 2
ENDMDL