MODEL 1
REMARK VINA RESULT: -5.324771809      0.000      0.000
REMARK  6 active torsions:
REMARK  status: ('A' for Active; 'I' for Inactive)
REMARK    1  A    between atoms: N1_1  and  C1_4
REMARK    2  A    between atoms: N3_8  and  C3_9
REMARK    3  A    between atoms: C3_9  and  C4_10
REMARK    4  A    between atoms: C4_10  and  C5_11
REMARK    5  A    between atoms: C5_11  and  N4_12
REMARK    6  A    between atoms: C5_11  and  N5_16
ROOT
HETATM    1  C3  UNL     1       2.280   1.529   6.492  1.00  0.00     0.173 C
ENDROOT
BRANCH   1   2
HETATM    2  N3  UNL     1       3.664   1.596   6.874  1.00  0.00    -0.233 N
HETATM    3  N2  UNL     1       4.733   1.855   6.110  1.00  0.00    -0.292 N
HETATM    4  C2  UNL     1       5.850   1.823   6.860  1.00  0.00     0.158 A
ATOM      5  H2  UNL     1       4.706   2.049   5.108  1.00  0.00     0.188 HD
HETATM    6  C1  UNL     1       5.416   1.527   8.143  1.00  0.00     0.132 A
HETATM    7  N6  UNL     1       4.078   1.395   8.121  1.00  0.00    -0.268 N
ATOM      8  H6  UNL     1       3.484   1.179   8.922  1.00  0.00     0.190 HD
BRANCH   6   9
HETATM    9  N1  UNL     1       6.216   1.410   9.165  1.00  0.00    -0.383 N
ATOM     10  H12 UNL     1       7.212   1.624   9.209  1.00  0.00     0.157 HD
ATOM     11  H11 UNL     1       5.916   1.073  10.080  1.00  0.00     0.157 HD
ENDBRANCH   6   9
ENDBRANCH   1   2
BRANCH   1  12
HETATM   12  C4  UNL     1       1.920   2.501   5.395  1.00  0.00     0.085 C
BRANCH  12  13
HETATM   13  C5  UNL     1       1.566   3.820   6.094  1.00  0.00     0.379 C
BRANCH  13  14
HETATM   14  N4  UNL     1       0.201   4.188   5.878  1.00  0.00    -0.050 N
ATOM     15  H43 UNL     1      -0.137   3.845   4.978  1.00  0.00     0.276 HD
ATOM     16  H42 UNL     1      -0.425   3.668   6.493  1.00  0.00     0.276 HD
ATOM     17  H41 UNL     1       0.059   5.194   5.969  1.00  0.00     0.276 HD
ENDBRANCH  13  14
BRANCH  13  18
HETATM   18  N5  UNL     1       2.496   4.805   5.618  1.00  0.00    -0.050 N
ATOM     19  H53 UNL     1       3.302   4.400   5.144  1.00  0.00     0.276 HD
ATOM     20  H52 UNL     1       2.140   5.346   4.829  1.00  0.00     0.276 HD
ATOM     21  H51 UNL     1       2.750   5.383   6.420  1.00  0.00     0.276 HD
ENDBRANCH  13  18
ENDBRANCH  12  13
ENDBRANCH   1  12
TORSDOF 6
ENDMDL