MODEL 3
REMARK VINA RESULT: -6.970318329      2.585      4.850
REMARK  9 active torsions:
REMARK  status: ('A' for Active; 'I' for Inactive)
REMARK    1  A    between atoms: N1_1  and  C1_5
REMARK    2  A    between atoms: C1_5  and  C2_6
REMARK    3  A    between atoms: N2_8  and  C4_9
REMARK    4  A    between atoms: C4_9  and  C5_10
REMARK    5  A    between atoms: C5_10  and  N3_11
REMARK    6  A    between atoms: C5_10  and  C6_15
REMARK    7  A    between atoms: C6_15  and  N4_16
REMARK    8  A    between atoms: N4_16  and  N5_18
REMARK    9  A    between atoms: N6_20  and  C7_22
ROOT
HETATM    1  C5  UNL     1      -6.089  -0.642 -12.958  1.00  0.00     0.222 C
ENDROOT
BRANCH   1   2
HETATM    2  C4  UNL     1      -7.475  -0.054 -12.808  1.00  0.00     0.184 C
BRANCH   2   3
HETATM    3  N2  UNL     1      -7.431   1.291 -12.286  1.00  0.00    -0.285 N
HETATM    4  C3  UNL     1      -7.131   2.411 -12.934  1.00  0.00     0.140 A
HETATM    5  C2  UNL     1      -7.207   3.478 -12.065  1.00  0.00     0.069 A
HETATM    6  N11 UNL     1      -7.564   2.944 -10.883  1.00  0.00    -0.287 N
HETATM    7  N10 UNL     1      -7.690   1.638 -11.043  1.00  0.00    -0.241 N
ATOM      8  H11 UNL     1      -7.711   3.458 -10.014  1.00  0.00     0.188 HD
ATOM      9  H10 UNL     1      -7.953   0.987 -10.303  1.00  0.00     0.208 HD
BRANCH   5  10
HETATM   10  C1  UNL     1      -6.942   4.895 -12.407  1.00  0.00     0.289 C
BRANCH  10  11
HETATM   11  N1  UNL     1      -5.716   5.305 -11.804  1.00  0.00    -0.074 N
ATOM     12  H13 UNL     1      -5.863   5.952 -11.029  1.00  0.00     0.274 HD
ATOM     13  H12 UNL     1      -5.271   4.551 -11.281  1.00  0.00     0.274 HD
ATOM     14  H11 UNL     1      -5.102   5.694 -12.519  1.00  0.00     0.274 HD
ENDBRANCH  10  11
ENDBRANCH   5  10
ENDBRANCH   2   3
ENDBRANCH   1   2
BRANCH   1  15
HETATM   15  N3  UNL     1      -5.952  -1.448 -14.130  1.00  0.00    -0.072 N
ATOM     16  H33 UNL     1      -6.649  -1.195 -14.831  1.00  0.00     0.274 HD
ATOM     17  H32 UNL     1      -5.104  -1.205 -14.642  1.00  0.00     0.274 HD
ATOM     18  H31 UNL     1      -5.983  -2.447 -13.929  1.00  0.00     0.274 HD
ENDBRANCH   1  15
BRANCH   1  19
HETATM   19  C6  UNL     1      -5.720  -1.481 -11.760  1.00  0.00     0.175 C
BRANCH  19  20
HETATM   20  N4  UNL     1      -4.470  -2.164 -11.993  1.00  0.00    -0.320 N
ATOM     21  H4  UNL     1      -4.196  -2.349 -12.958  1.00  0.00     0.181 HD
BRANCH  20  22
HETATM   22  N5  UNL     1      -3.620  -2.580 -10.981  1.00  0.00    -0.245 N
HETATM   23  N6  UNL     1      -3.364  -1.783 -10.033  1.00  0.00    -0.269 N
ATOM     24  H6  UNL     1      -3.793  -0.858 -10.047  1.00  0.00     0.190 HD
ATOM     25  H5  UNL     1      -3.208  -3.513 -11.000  1.00  0.00     0.208 HD
BRANCH  23  26
HETATM   26  C7  UNL     1      -2.506  -2.116  -8.949  1.00  0.00     0.155 A
HETATM   27  N7  UNL     1      -1.217  -1.728  -8.953  1.00  0.00    -0.292 N
HETATM   28  C8  UNL     1      -0.420  -2.051  -7.920  1.00  0.00     0.328 A
ATOM     29  H7  UNL     1      -0.847  -1.191  -9.737  1.00  0.00     0.172 HD
HETATM   30  O1  UNL     1       0.785  -1.693  -7.919  1.00  0.00    -0.247 OA
HETATM   31  N8  UNL     1      -0.861  -2.761  -6.857  1.00  0.00    -0.274 N
HETATM   32  C9  UNL     1      -2.141  -3.174  -6.801  1.00  0.00     0.277 A
ATOM     33  H8  UNL     1      -0.221  -2.984  -6.095  1.00  0.00     0.173 HD
HETATM   34  O2  UNL     1      -2.618  -3.830  -5.858  1.00  0.00    -0.266 OA
HETATM   35  C10 UNL     1      -2.970  -2.840  -7.871  1.00  0.00     0.159 A
HETATM   36  N9  UNL     1      -4.340  -3.234  -7.900  1.00  0.00    -0.092 NA
ENDBRANCH  23  26
ENDBRANCH  20  22
ENDBRANCH  19  20
ENDBRANCH   1  19
TORSDOF 9
ENDMDL