MODEL 4
REMARK VINA RESULT: -5.956777533      1.978      4.192
REMARK  12 active torsions:
REMARK  status: ('A' for Active; 'I' for Inactive)
REMARK    1  A    between atoms: C2_2  and  C3_3
REMARK    2  A    between atoms: C3_3  and  N1_4
REMARK    3  A    between atoms: N1_4  and  C4_7
REMARK    4  A    between atoms: C4_7  and  C5_8
REMARK    5  A    between atoms: C6_9  and  C7_10
REMARK    6  A    between atoms: C7_10  and  N2_11
REMARK    7  A    between atoms: C7_10  and  C8_15
REMARK    8  A    between atoms: C8_15  and  N3_16
REMARK    9  A    between atoms: C8_15  and  O1_20
REMARK   10  A    between atoms: C9_24  and  N5_25
REMARK   11  A    between atoms: C12_30  and  O2_31
REMARK   12  A    between atoms: C13_35  and  N8_36
ROOT
HETATM    1  C5  UNL     1      -5.882  -3.153 -10.046  1.00  0.00     0.037 A
HETATM    2  C6  UNL     1      -5.457  -3.817  -8.888  1.00  0.00     0.073 A
HETATM    3  N4  UNL     1      -4.288  -3.479  -8.329  1.00  0.00    -0.192 N
ATOM      4  H4  UNL     1      -3.986  -3.967  -7.486  1.00  0.00     0.184 HD
HETATM    5  C9  UNL     1      -3.498  -2.515  -8.843  1.00  0.00     0.689 A
HETATM    6  N7  UNL     1      -3.913  -1.903  -9.930  1.00  0.00    -0.176 N
ATOM      7  H7  UNL     1      -3.306  -1.176 -10.310  1.00  0.00     0.186 HD
HETATM    8  C13 UNL     1      -5.089  -2.148 -10.608  1.00  0.00     0.124 A
ENDROOT
BRANCH   2   9
HETATM    9  C7  UNL     1      -6.287  -4.886  -8.263  1.00  0.00     0.289 C
BRANCH   9  10
HETATM   10  N2  UNL     1      -5.784  -6.182  -8.658  1.00  0.00    -0.065 N
ATOM     11  H23 UNL     1      -5.864  -6.336  -9.663  1.00  0.00     0.275 HD
ATOM     12  H22 UNL     1      -4.769  -6.241  -8.581  1.00  0.00     0.275 HD
ATOM     13  H21 UNL     1      -6.254  -6.910  -8.119  1.00  0.00     0.275 HD
ENDBRANCH   9  10
BRANCH   9  14
HETATM   14  C8  UNL     1      -6.162  -4.799  -6.743  1.00  0.00     0.352 C
BRANCH  14  15
HETATM   15  N3  UNL     1      -6.935  -5.841  -6.101  1.00  0.00    -0.051 N
ATOM     16  H33 UNL     1      -6.498  -6.155  -5.235  1.00  0.00     0.277 HD
ATOM     17  H32 UNL     1      -7.806  -5.478  -5.713  1.00  0.00     0.277 HD
ATOM     18  H31 UNL     1      -7.102  -6.617  -6.742  1.00  0.00     0.277 HD
ENDBRANCH  14  15
BRANCH  14  19
HETATM   19  O1  UNL     1      -6.641  -3.592  -6.242  1.00  0.00    -0.368 OA
ATOM     20  H1  UNL     1      -6.166  -3.309  -5.470  1.00  0.00     0.212 HD
ENDBRANCH  14  19
ENDBRANCH   9  14
ENDBRANCH   2   9
BRANCH   1  21
HETATM   21  C4  UNL     1      -7.139  -3.542 -10.676  1.00  0.00     0.276 C
BRANCH  21  22
HETATM   22  N1  UNL     1      -8.281  -2.803 -10.240  1.00  0.00    -0.071 N
ATOM     23  H12 UNL     1      -8.050  -2.147  -9.494  1.00  0.00     0.277 HD
ATOM     24  H11 UNL     1      -8.941  -3.388  -9.726  1.00  0.00     0.277 HD
BRANCH  22  25
HETATM   25  C3  UNL     1      -8.917  -2.132 -11.388  1.00  0.00     0.232 C
BRANCH  25  26
HETATM   26  C2  UNL     1      -8.696  -2.928 -12.634  1.00  0.00     0.023 C
HETATM   27  C1  UNL     1      -8.406  -1.922 -13.751  1.00  0.00     0.007 C
ENDBRANCH  25  26
ENDBRANCH  22  25
ENDBRANCH  21  22
ENDBRANCH   1  21
BRANCH   8  28
HETATM   28  N8  UNL     1      -5.397  -1.553 -11.613  1.00  0.00    -0.385 N
ATOM     29  H82 UNL     1      -5.536  -2.023 -12.507  1.00  0.00     0.157 HD
ATOM     30  H81 UNL     1      -5.553  -0.546 -11.635  1.00  0.00     0.157 HD
ENDBRANCH   8  28
BRANCH   5  31
HETATM   31  N5  UNL     1      -2.263  -2.212  -8.182  1.00  0.00    -0.151 N
HETATM   32  C10 UNL     1      -1.512  -3.060  -7.324  1.00  0.00     0.199 C
HETATM   33  N6  UNL     1      -0.305  -2.618  -7.212  1.00  0.00    -0.381 N
HETATM   34  C11 UNL     1      -0.117  -1.417  -7.989  1.00  0.00     0.175 C
ATOM     35  H6  UNL     1       0.421  -3.060  -6.648  1.00  0.00     0.160 HD
HETATM   36  C12 UNL     1      -1.533  -0.968  -8.256  1.00  0.00     0.261 C
BRANCH  36  37
HETATM   37  O2  UNL     1      -1.644  -0.342  -9.497  1.00  0.00    -0.374 OA
ATOM     38  H2  UNL     1      -2.339  -0.703 -10.035  1.00  0.00     0.212 HD
ENDBRANCH  36  37
ENDBRANCH   5  31
TORSDOF 12
ENDMDL