MODEL 4
REMARK VINA RESULT: -6.591956970      2.171      4.507
REMARK  12 active torsions:
REMARK  status: ('A' for Active; 'I' for Inactive)
REMARK    1  A    between atoms: C2_2  and  C3_3
REMARK    2  A    between atoms: C2_2  and  N7_24
REMARK    3  A    between atoms: C3_3  and  N1_4
REMARK    4  A    between atoms: C4_11  and  C5_12
REMARK    5  A    between atoms: C5_12  and  N5_13
REMARK    6  A    between atoms: N5_13  and  C6_16
REMARK    7  A    between atoms: C6_16  and  O1_17
REMARK    8  A    between atoms: C6_16  and  C7_19
REMARK    9  A    between atoms: C7_19  and  N6_20
REMARK   10  A    between atoms: N7_24  and  C8_26
REMARK   11  A    between atoms: C10_30  and  N9_31
REMARK   12  A    between atoms: C11_36  and  N11_37
ROOT
HETATM    1  N1  UNL     1      -4.029  -3.934  -7.850  1.00  0.00    -0.260 N
HETATM    2  N2  UNL     1      -4.564  -5.162  -7.913  1.00  0.00    -0.225 N
ATOM      3  H2  UNL     1      -5.321  -5.436  -8.539  1.00  0.00     0.210 HD
HETATM    4  N3  UNL     1      -3.975  -5.961  -7.055  1.00  0.00    -0.227 N
ATOM      5  H3  UNL     1      -4.181  -6.947  -6.891  1.00  0.00     0.210 HD
HETATM    6  N4  UNL     1      -3.071  -5.237  -6.452  1.00  0.00    -0.271 N
ATOM      7  H4  UNL     1      -2.445  -5.584  -5.725  1.00  0.00     0.190 HD
HETATM    8  C4  UNL     1      -3.072  -3.955  -6.923  1.00  0.00     0.141 A
ENDROOT
BRANCH   1   9
HETATM    9  C3  UNL     1      -4.464  -2.875  -8.684  1.00  0.00     0.176 C
BRANCH   9  10
HETATM   10  C2  UNL     1      -5.441  -3.228  -9.770  1.00  0.00     0.098 C
HETATM   11  C1  UNL     1      -5.220  -2.356 -10.977  1.00  0.00     0.034 C
BRANCH  10  12
HETATM   12  N7  UNL     1      -6.781  -3.122  -9.240  1.00  0.00    -0.380 N
ATOM     13  H7  UNL     1      -7.102  -2.188  -8.986  1.00  0.00     0.160 HD
BRANCH  12  14
HETATM   14  C8  UNL     1      -7.685  -4.174  -9.041  1.00  0.00     0.089 A
HETATM   15  C9  UNL     1      -8.210  -4.921 -10.072  1.00  0.00     0.139 A
HETATM   16  N8  UNL     1      -9.067  -5.945  -9.877  1.00  0.00    -0.200 N
HETATM   17  C10 UNL     1      -9.429  -6.257  -8.628  1.00  0.00     0.677 A
ATOM     18  H8  UNL     1      -9.434  -6.472 -10.670  1.00  0.00     0.183 HD
HETATM   19  N10 UNL     1      -8.932  -5.547  -7.623  1.00  0.00    -0.175 N
HETATM   20  C11 UNL     1      -8.081  -4.523  -7.754  1.00  0.00     0.142 A
ATOM     21  H10 UNL     1      -9.222  -5.800  -6.678  1.00  0.00     0.186 HD
BRANCH  17  22
HETATM   22  N9  UNL     1     -10.251  -7.239  -8.426  1.00  0.00    -0.234 N
ATOM     23  H92 UNL     1     -11.071  -7.135  -7.828  1.00  0.00     0.174 HD
ATOM     24  H91 UNL     1     -10.082  -8.140  -8.873  1.00  0.00     0.174 HD
ENDBRANCH  17  22
BRANCH  20  25
HETATM   25  N11 UNL     1      -7.623  -3.857  -6.721  1.00  0.00    -0.383 N
ATOM     26 2H11 UNL     1      -7.203  -2.932  -6.814  1.00  0.00     0.157 HD
ATOM     27 1H11 UNL     1      -7.679  -4.261  -5.786  1.00  0.00     0.157 HD
ENDBRANCH  20  25
ENDBRANCH  12  14
ENDBRANCH  10  12
ENDBRANCH   9  10
ENDBRANCH   1   9
BRANCH   8  28
HETATM   28  C5  UNL     1      -2.181  -2.863  -6.438  1.00  0.00     0.314 C
BRANCH  28  29
HETATM   29  N5  UNL     1      -0.820  -3.040  -6.849  1.00  0.00    -0.041 N
ATOM     30  H52 UNL     1      -0.206  -3.235  -6.059  1.00  0.00     0.280 HD
ATOM     31  H51 UNL     1      -0.688  -3.912  -7.361  1.00  0.00     0.280 HD
BRANCH  29  32
HETATM   32  C6  UNL     1      -0.378  -1.900  -7.606  1.00  0.00     0.344 C
BRANCH  32  33
HETATM   33  O1  UNL     1       0.998  -1.858  -7.811  1.00  0.00    -0.368 OA
ATOM     34  H1  UNL     1       1.253  -1.460  -8.635  1.00  0.00     0.212 HD
ENDBRANCH  32  33
BRANCH  32  35
HETATM   35  C7  UNL     1      -1.047  -1.850  -8.944  1.00  0.00     0.290 C
BRANCH  35  36
HETATM   36  N6  UNL     1      -1.320  -0.466  -9.338  1.00  0.00    -0.075 N
ATOM     37  H63 UNL     1      -1.727   0.072  -8.572  1.00  0.00     0.274 HD
ATOM     38  H62 UNL     1      -0.460   0.068  -9.462  1.00  0.00     0.274 HD
ATOM     39  H61 UNL     1      -1.905  -0.435 -10.173  1.00  0.00     0.274 HD
ENDBRANCH  35  36
ENDBRANCH  32  35
ENDBRANCH  29  32
ENDBRANCH  28  29
ENDBRANCH   8  28
TORSDOF 12
ENDMDL