MODEL 4
REMARK VINA RESULT: -7.505558169      1.318      1.842
REMARK  10 active torsions:
REMARK  status: ('A' for Active; 'I' for Inactive)
REMARK    1  A    between atoms: N2_3  and  C2_4
REMARK    2  A    between atoms: N2_3  and  C9_23
REMARK    3  A    between atoms: C2_4  and  C3_5
REMARK    4  A    between atoms: N3_6  and  C4_8
REMARK    5  A    between atoms: C4_8  and  O1_9
REMARK    6  A    between atoms: C4_8  and  C5_11
REMARK    7  A    between atoms: C7_15  and  N5_16
REMARK    8  A    between atoms: C10_26  and  C11_27
REMARK    9  A    between atoms: C11_27  and  O2_28
REMARK   10  A    between atoms: O2_28  and  N9_29
ROOT
HETATM    1  N1  UNL     1      -7.278  -3.856 -10.542  1.00  0.00    -0.171 NA
HETATM    2  C1  UNL     1      -7.363  -4.730  -9.778  1.00  0.00     0.199 C
HETATM    3  N2  UNL     1      -7.442  -5.789  -8.856  1.00  0.00    -0.113 N
ENDROOT
BRANCH   3   4
HETATM    4  C2  UNL     1      -6.296  -6.418  -8.284  1.00  0.00     0.204 C
BRANCH   4   5
HETATM    5  C3  UNL     1      -5.545  -5.556  -7.350  1.00  0.00     0.080 C
HETATM    6  N3  UNL     1      -4.301  -5.332  -7.418  1.00  0.00    -0.371 N
ATOM      7  H3  UNL     1      -3.739  -5.759  -8.154  1.00  0.00     0.161 HD
BRANCH   6   8
HETATM    8  C4  UNL     1      -3.684  -4.460  -6.433  1.00  0.00     0.256 C
BRANCH   8   9
HETATM    9  O1  UNL     1      -4.706  -3.718  -5.850  1.00  0.00    -0.372 OA
ATOM     10  H1  UNL     1      -5.140  -4.285  -5.224  1.00  0.00     0.212 HD
ENDBRANCH   8   9
BRANCH   8  11
HETATM   11  C5  UNL     1      -2.741  -3.522  -7.096  1.00  0.00     0.047 A
HETATM   12  C6  UNL     1      -1.422  -3.394  -6.705  1.00  0.00     0.121 A
HETATM   13  N4  UNL     1      -0.598  -2.524  -7.319  1.00  0.00    -0.201 N
HETATM   14  C7  UNL     1      -1.061  -1.763  -8.330  1.00  0.00     0.676 A
ATOM     15  H4  UNL     1       0.374  -2.441  -7.019  1.00  0.00     0.183 HD
HETATM   16  N6  UNL     1      -2.340  -1.843  -8.758  1.00  0.00    -0.178 N
HETATM   17  C8  UNL     1      -3.158  -2.710  -8.145  1.00  0.00     0.143 A
ATOM     18  H6  UNL     1      -2.673  -1.259  -9.526  1.00  0.00     0.185 HD
HETATM   19  N7  UNL     1      -4.499  -2.815  -8.584  1.00  0.00    -0.081 NA
BRANCH  14  20
HETATM   20  N5  UNL     1      -0.263  -0.948  -8.890  1.00  0.00    -0.234 N
ATOM     21  H52 UNL     1      -0.446   0.055  -8.831  1.00  0.00     0.174 HD
ATOM     22  H51 UNL     1       0.546  -1.322  -9.385  1.00  0.00     0.174 HD
ENDBRANCH  14  20
ENDBRANCH   8  11
ENDBRANCH   6   8
ENDBRANCH   4   5
ENDBRANCH   3   4
BRANCH   3  23
HETATM   23  C9  UNL     1      -8.733  -6.242  -8.493  1.00  0.00     0.694 A
HETATM   24  N8  UNL     1      -9.379  -5.909  -7.366  1.00  0.00    -0.191 N
HETATM   25  C10 UNL     1     -10.593  -6.505  -7.312  1.00  0.00     0.068 A
ATOM     26  H8  UNL     1      -9.006  -5.289  -6.646  1.00  0.00     0.184 HD
HETATM   27  C12 UNL     1     -10.679  -7.241  -8.479  1.00  0.00     0.134 A
HETATM   28  N10 UNL     1      -9.554  -7.080  -9.190  1.00  0.00    -0.199 N
ATOM     29  H10 UNL     1      -9.347  -7.507 -10.093  1.00  0.00     0.183 HD
BRANCH  25  30
HETATM   30  C11 UNL     1     -11.578  -6.362  -6.200  1.00  0.00     0.259 C
BRANCH  30  31
HETATM   31  O2  UNL     1     -11.445  -7.458  -5.367  1.00  0.00    -0.281 OA
BRANCH  31  32
HETATM   32  N9  UNL     1     -12.231  -7.454  -4.298  1.00  0.00    -0.311 N
ATOM     33  H92 UNL     1     -11.926  -7.046  -3.414  1.00  0.00     0.184 HD
ATOM     34  H91 UNL     1     -13.147  -7.883  -4.430  1.00  0.00     0.184 HD
ENDBRANCH  31  32
ENDBRANCH  30  31
ENDBRANCH  25  30
ENDBRANCH   3  23
TORSDOF 10
ENDMDL