MODEL 5
REMARK VINA RESULT: -6.455533536      1.753      3.442
REMARK  11 active torsions:
REMARK  status: ('A' for Active; 'I' for Inactive)
REMARK    1  A    between atoms: C2_2  and  O1_3
REMARK    2  A    between atoms: C2_2  and  N1_5
REMARK    3  A    between atoms: N1_5  and  C3_7
REMARK    4  A    between atoms: N6_21  and  C8_22
REMARK    5  A    between atoms: C8_22  and  O2_23
REMARK    6  A    between atoms: O2_23  and  C9_24
REMARK    7  A    between atoms: C9_24  and  O3_25
REMARK    8  A    between atoms: O3_25  and  C10_26
REMARK    9  A    between atoms: C10_26  and  N7_28
REMARK   10  A    between atoms: C10_26  and  N8_32
REMARK   11  A    between atoms: N8_32  and  N9_33
ROOT
HETATM    1  C3  UNL     1      -3.092  -2.011  -8.742  1.00  0.00     0.149 A
HETATM    2  N2  UNL     1      -3.522  -1.866  -9.984  1.00  0.00    -0.175 N
ATOM      3  H2  UNL     1      -3.137  -1.107 -10.544  1.00  0.00     0.186 HD
HETATM    4  C4  UNL     1      -4.453  -2.679 -10.551  1.00  0.00     0.679 A
HETATM    5  N3  UNL     1      -4.800  -2.440 -11.785  1.00  0.00    -0.234 N
ATOM      6  H31 UNL     1      -5.498  -3.049 -12.211  1.00  0.00     0.174 HD
ATOM      7  H32 UNL     1      -4.391  -1.670 -12.315  1.00  0.00     0.174 HD
HETATM    8  N4  UNL     1      -4.991  -3.692  -9.854  1.00  0.00    -0.174 N
ATOM      9  H4  UNL     1      -5.690  -4.302 -10.278  1.00  0.00     0.186 HD
HETATM   10  C5  UNL     1      -4.590  -3.885  -8.585  1.00  0.00     0.160 A
HETATM   11  C6  UNL     1      -3.650  -3.068  -8.007  1.00  0.00     0.123 A
HETATM   12  N5  UNL     1      -3.481  -3.525  -6.764  1.00  0.00    -0.346 N
ATOM     13  H5  UNL     1      -2.844  -3.132  -6.071  1.00  0.00     0.167 HD
HETATM   14  C7  UNL     1      -4.282  -4.584  -6.572  1.00  0.00     0.192 A
HETATM   15  N6  UNL     1      -4.986  -4.834  -7.689  1.00  0.00    -0.282 N
ENDROOT
BRANCH  15  16
HETATM   16  C8  UNL     1      -5.957  -5.855  -7.945  1.00  0.00     0.238 C
BRANCH  16  17
HETATM   17  O2  UNL     1      -6.368  -5.960  -9.247  1.00  0.00    -0.321 OA
BRANCH  17  18
HETATM   18  C9  UNL     1      -7.745  -6.117  -9.392  1.00  0.00     0.350 C
BRANCH  18  19
HETATM   19  O3  UNL     1      -8.170  -5.776 -10.670  1.00  0.00    -0.316 OA
BRANCH  19  20
HETATM   20  C10 UNL     1      -8.613  -4.466 -10.765  1.00  0.00     0.314 C
HETATM   21  C11 UNL     1      -9.992  -4.348 -11.332  1.00  0.00     0.101 C
BRANCH  20  22
HETATM   22  N7  UNL     1      -8.523  -3.772  -9.481  1.00  0.00    -0.030 N
ATOM     23  H73 UNL     1      -8.120  -4.373  -8.762  1.00  0.00     0.279 HD
ATOM     24  H72 UNL     1      -7.807  -3.046  -9.500  1.00  0.00     0.279 HD
ATOM     25  H71 UNL     1      -9.426  -3.398  -9.192  1.00  0.00     0.279 HD
ENDBRANCH  20  22
BRANCH  20  26
HETATM   26  N8  UNL     1      -7.702  -3.777 -11.662  1.00  0.00    -0.081 NA
BRANCH  26  27
HETATM   27  N9  UNL     1      -8.288  -2.679 -12.281  1.00  0.00    -0.344 N
ATOM     28  H92 UNL     1      -8.562  -2.680 -13.264  1.00  0.00     0.172 HD
ATOM     29  H91 UNL     1      -8.408  -1.888 -11.649  1.00  0.00     0.172 HD
ENDBRANCH  26  27
ENDBRANCH  20  26
ENDBRANCH  19  20
ENDBRANCH  18  19
ENDBRANCH  17  18
ENDBRANCH  16  17
ENDBRANCH  15  16
BRANCH   1  30
HETATM   30  N1  UNL     1      -2.143  -1.222  -8.072  1.00  0.00    -0.348 N
ATOM     31  H1  UNL     1      -2.457  -0.481  -7.445  1.00  0.00     0.163 HD
BRANCH  30  32
HETATM   32  C2  UNL     1      -0.731  -1.446  -8.256  1.00  0.00     0.215 C
HETATM   33  C1  UNL     1      -0.203  -2.374  -7.195  1.00  0.00     0.063 C
BRANCH  32  34
HETATM   34  O1  UNL     1      -0.460  -2.002  -9.513  1.00  0.00    -0.377 OA
ATOM     35  H1  UNL     1      -0.552  -1.324 -10.172  1.00  0.00     0.212 HD
ENDBRANCH  32  34
ENDBRANCH  30  32
ENDBRANCH   1  30
TORSDOF 11
ENDMDL