MODEL 4
REMARK VINA RESULT: -6.824938337      1.950      2.891
REMARK  11 active torsions:
REMARK  status: ('A' for Active; 'I' for Inactive)
REMARK    1  A    between atoms: N1_1  and  C1_4
REMARK    2  A    between atoms: C2_7  and  C3_8
REMARK    3  A    between atoms: N3_10  and  C5_11
REMARK    4  A    between atoms: C5_11  and  C6_12
REMARK    5  A    between atoms: C6_12  and  O1_13
REMARK    6  A    between atoms: C6_12  and  C7_15
REMARK    7  A    between atoms: C7_15  and  N4_16
REMARK    8  A    between atoms: C9_26  and  N8_27
REMARK    9  A    between atoms: N8_27  and  C10_29
REMARK   10  A    between atoms: C10_29  and  C11_30
REMARK   11  A    between atoms: C11_30  and  N9_31
ROOT
HETATM    1  C1  UNL     1      -7.614  -5.777  -6.650  1.00  0.00     0.678 A
HETATM    2  N2  UNL     1      -6.343  -5.438  -6.465  1.00  0.00    -0.188 N
ATOM      3  H2  UNL     1      -5.949  -5.569  -5.533  1.00  0.00     0.184 HD
HETATM    4  C2  UNL     1      -5.526  -4.928  -7.431  1.00  0.00     0.106 A
HETATM    5  C8  UNL     1      -6.093  -4.772  -8.660  1.00  0.00     0.120 A
HETATM    6  N7  UNL     1      -5.380  -4.259  -9.754  1.00  0.00    -0.096 NA
HETATM    7  C9  UNL     1      -7.433  -5.126  -8.866  1.00  0.00     0.143 A
HETATM    8  N10 UNL     1      -8.181  -5.621  -7.875  1.00  0.00    -0.175 N
ATOM      9  H10 UNL     1      -9.155  -5.877  -8.034  1.00  0.00     0.186 HD
ENDROOT
BRANCH   4  10
HETATM   10  C3  UNL     1      -4.143  -4.593  -7.099  1.00  0.00     0.096 A
HETATM   11  C4  UNL     1      -3.479  -3.402  -7.083  1.00  0.00     0.145 A
HETATM   12  N3  UNL     1      -2.181  -3.594  -6.701  1.00  0.00    -0.284 N
HETATM   13  N5  UNL     1      -2.058  -4.886  -6.489  1.00  0.00    -0.240 N
HETATM   14  N6  UNL     1      -3.203  -5.499  -6.717  1.00  0.00    -0.283 N
ATOM     15  H5  UNL     1      -1.199  -5.348  -6.192  1.00  0.00     0.208 HD
ATOM     16  H6  UNL     1      -3.361  -6.503  -6.620  1.00  0.00     0.188 HD
BRANCH  12  17
HETATM   17  C5  UNL     1      -1.138  -2.598  -6.554  1.00  0.00     0.183 C
BRANCH  17  18
HETATM   18  C6  UNL     1      -0.596  -2.166  -7.903  1.00  0.00     0.163 C
BRANCH  18  19
HETATM   19  O1  UNL     1       0.767  -1.894  -7.830  1.00  0.00    -0.392 OA
ATOM     20  H1  UNL     1       1.121  -1.691  -8.689  1.00  0.00     0.210 HD
ENDBRANCH  18  19
BRANCH  18  21
HETATM   21  C7  UNL     1      -1.378  -0.995  -8.452  1.00  0.00     0.262 C
BRANCH  21  22
HETATM   22  N4  UNL     1      -2.292  -1.468  -9.451  1.00  0.00    -0.077 N
ATOM     23  H43 UNL     1      -3.068  -0.824  -9.603  1.00  0.00     0.274 HD
ATOM     24  H42 UNL     1      -1.893  -1.435 -10.389  1.00  0.00     0.274 HD
ATOM     25  H41 UNL     1      -2.609  -2.404  -9.198  1.00  0.00     0.274 HD
ENDBRANCH  21  22
ENDBRANCH  18  21
ENDBRANCH  17  18
ENDBRANCH  12  17
ENDBRANCH   4  10
BRANCH   1  26
HETATM   26  N1  UNL     1      -8.299  -6.251  -5.666  1.00  0.00    -0.234 N
ATOM     27  H12 UNL     1      -9.286  -6.019  -5.561  1.00  0.00     0.174 HD
ATOM     28  H11 UNL     1      -7.849  -6.865  -4.986  1.00  0.00     0.174 HD
ENDBRANCH   1  26
BRANCH   7  29
HETATM   29  N8  UNL     1      -7.996  -4.925 -10.159  1.00  0.00    -0.373 N
ATOM     30  H8  UNL     1      -7.856  -5.642 -10.871  1.00  0.00     0.161 HD
BRANCH  29  31
HETATM   31  C10 UNL     1      -8.752  -3.754 -10.497  1.00  0.00     0.148 C
BRANCH  31  32
HETATM   32  C11 UNL     1      -8.378  -3.098 -11.784  1.00  0.00     0.249 C
BRANCH  32  33
HETATM   33  N9  UNL     1      -7.091  -2.427 -11.545  1.00  0.00    -0.078 N
ATOM     34  H93 UNL     1      -6.774  -2.490 -10.578  1.00  0.00     0.274 HD
ATOM     35  H92 UNL     1      -6.298  -2.909 -11.969  1.00  0.00     0.274 HD
ATOM     36  H91 UNL     1      -7.203  -1.468 -11.873  1.00  0.00     0.274 HD
ENDBRANCH  32  33
ENDBRANCH  31  32
ENDBRANCH  29  31
ENDBRANCH   7  29
TORSDOF 11
ENDMDL