MODEL 3
REMARK VINA RESULT: -7.561128159      2.182      3.449
REMARK  13 active torsions:
REMARK  status: ('A' for Active; 'I' for Inactive)
REMARK    1  A    between atoms: C3_6  and  N2_7
REMARK    2  A    between atoms: C4_10  and  C5_11
REMARK    3  A    between atoms: C5_11  and  C6_12
REMARK    4  A    between atoms: C6_12  and  O2_13
REMARK    5  A    between atoms: C6_12  and  N3_15
REMARK    6  A    between atoms: N3_15  and  C7_17
REMARK    7  A    between atoms: C7_17  and  O3_18
REMARK    8  A    between atoms: C7_17  and  C8_20
REMARK    9  A    between atoms: C8_20  and  O4_21
REMARK   10  A    between atoms: C8_20  and  C9_23
REMARK   11  A    between atoms: C9_23  and  O5_24
REMARK   12  A    between atoms: C9_23  and  N4_26
REMARK   13  A    between atoms: N4_26  and  N5_28
ROOT
HETATM    1  C7  UNL     1      -4.784  -4.635  -6.683  1.00  0.00     0.248 C
ENDROOT
BRANCH   1   2
HETATM    2  N3  UNL     1      -5.245  -3.850  -7.748  1.00  0.00    -0.369 N
ATOM      3  H3  UNL     1      -5.403  -2.857  -7.582  1.00  0.00     0.158 HD
BRANCH   2   4
HETATM    4  C6  UNL     1      -5.502  -4.363  -9.038  1.00  0.00     0.219 C
BRANCH   4   5
HETATM    5  C5  UNL     1      -6.906  -3.880  -9.426  1.00  0.00     0.098 C
BRANCH   5   6
HETATM    6  C4  UNL     1      -7.981  -4.600  -8.734  1.00  0.00     0.023 A
HETATM    7  C2  UNL     1      -8.880  -3.974  -7.838  1.00  0.00     0.082 A
HETATM    8  C1  UNL     1      -8.822  -2.523  -7.526  1.00  0.00     0.079 C
HETATM    9  O1  UNL     1      -9.668  -4.912  -7.426  1.00  0.00    -0.240 OA
HETATM   10  N1  UNL     1      -9.389  -6.058  -7.943  1.00  0.00    -0.245 N
HETATM   11  C3  UNL     1      -8.313  -5.923  -8.795  1.00  0.00     0.128 A
ATOM     12  H1  UNL     1      -9.884  -6.928  -7.752  1.00  0.00     0.196 HD
BRANCH  11  13
HETATM   13  N2  UNL     1      -7.815  -6.892  -9.482  1.00  0.00    -0.384 N
ATOM     14  H22 UNL     1      -8.008  -7.212 -10.431  1.00  0.00     0.157 HD
ATOM     15  H21 UNL     1      -7.111  -7.539  -9.126  1.00  0.00     0.157 HD
ENDBRANCH  11  13
ENDBRANCH   5   6
ENDBRANCH   4   5
BRANCH   4  16
HETATM   16  O2  UNL     1      -4.612  -3.918 -10.038  1.00  0.00    -0.377 OA
ATOM     17  H2  UNL     1      -3.874  -4.516 -10.048  1.00  0.00     0.212 HD
ENDBRANCH   4  16
ENDBRANCH   2   4
ENDBRANCH   1   2
BRANCH   1  18
HETATM   18  O3  UNL     1      -4.252  -5.862  -7.189  1.00  0.00    -0.374 OA
ATOM     19  H3  UNL     1      -3.323  -5.909  -6.995  1.00  0.00     0.212 HD
ENDBRANCH   1  18
BRANCH   1  20
HETATM   20  C8  UNL     1      -3.680  -4.061  -5.862  1.00  0.00     0.216 C
BRANCH  20  21
HETATM   21  O4  UNL     1      -3.590  -4.415  -4.567  1.00  0.00    -0.387 OA
ATOM     22  H4  UNL     1      -2.947  -5.069  -4.320  1.00  0.00     0.210 HD
ENDBRANCH  20  21
BRANCH  20  23
HETATM   23  C9  UNL     1      -2.315  -4.355  -6.502  1.00  0.00     0.266 C
BRANCH  23  24
HETATM   24  O5  UNL     1      -1.666  -5.332  -5.705  1.00  0.00    -0.373 OA
ATOM     25  H5  UNL     1      -2.098  -6.163  -5.858  1.00  0.00     0.212 HD
ENDBRANCH  23  24
BRANCH  23  26
HETATM   26  N4  UNL     1      -1.468  -3.194  -6.518  1.00  0.00    -0.297 N
ATOM     27  H4  UNL     1      -0.920  -3.003  -5.679  1.00  0.00     0.183 HD
BRANCH  26  28
HETATM   28  N5  UNL     1      -1.334  -2.301  -7.596  1.00  0.00    -0.247 N
HETATM   29  C10 UNL     1      -2.348  -1.815  -8.342  1.00  0.00     0.223 A
HETATM   30  N6  UNL     1      -1.774  -0.986  -9.226  1.00  0.00    -0.293 N
HETATM   31  N7  UNL     1      -0.485  -0.952  -9.050  1.00  0.00    -0.293 N
ATOM     32  H6  UNL     1      -2.278  -0.456  -9.937  1.00  0.00     0.187 HD
HETATM   33  C11 UNL     1      -0.140  -1.781  -8.015  1.00  0.00     0.223 A
ATOM     34  H7  UNL     1       0.169  -0.394  -9.599  1.00  0.00     0.187 HD
ENDBRANCH  26  28
ENDBRANCH  23  26
ENDBRANCH  20  23
ENDBRANCH   1  20
TORSDOF 13
ENDMDL