MODEL 3
REMARK VINA RESULT: -6.733100611      1.790      2.944
REMARK  10 active torsions:
REMARK  status: ('A' for Active; 'I' for Inactive)
REMARK    1  A    between atoms: N5_15  and  C6_16
REMARK    2  A    between atoms: C7_18  and  C8_19
REMARK    3  A    between atoms: C8_19  and  O2_20
REMARK    4  A    between atoms: C9_22  and  C10_23
REMARK    5  A    between atoms: C10_23  and  C11_24
REMARK    6  A    between atoms: C10_23  and  N7_29
REMARK    7  A    between atoms: C11_24  and  N6_25
REMARK    8  A    between atoms: N7_29  and  C12_31
REMARK    9  A    between atoms: C12_31  and  C13_32
REMARK   10  A    between atoms: C13_32  and  N8_33
ROOT
HETATM    1  C6  UNL     1      -5.536  -3.400  -8.661  1.00  0.00     0.380 C
HETATM    2  O1  UNL     1      -6.517  -2.537  -9.124  1.00  0.00    -0.333 OA
HETATM    3  C7  UNL     1      -7.687  -3.093  -8.612  1.00  0.00     0.181 C
HETATM    4  C9  UNL     1      -7.278  -3.664  -7.297  1.00  0.00     0.181 C
HETATM    5  O3  UNL     1      -5.890  -3.548  -7.311  1.00  0.00    -0.333 OA
ENDROOT
BRANCH   1   6
HETATM    6  N5  UNL     1      -4.212  -2.851  -8.805  1.00  0.00    -0.277 N
HETATM    7  C3  UNL     1      -3.223  -2.987  -7.905  1.00  0.00     0.144 A
HETATM    8  N3  UNL     1      -3.142  -3.599  -6.715  1.00  0.00    -0.336 N
HETATM    9  C4  UNL     1      -2.099  -2.330  -8.380  1.00  0.00     0.122 A
HETATM   10  C2  UNL     1      -2.040  -3.619  -5.952  1.00  0.00     0.183 A
ATOM     11  H3  UNL     1      -3.971  -4.081  -6.368  1.00  0.00     0.168 HD
HETATM   12  N2  UNL     1      -0.957  -2.985  -6.412  1.00  0.00    -0.337 N
HETATM   13  C1  UNL     1      -0.966  -2.347  -7.601  1.00  0.00     0.131 A
ATOM     14  H2  UNL     1      -0.105  -2.983  -5.852  1.00  0.00     0.168 HD
HETATM   15  N1  UNL     1       0.111  -1.742  -8.010  1.00  0.00    -0.383 N
ATOM     16  H12 UNL     1       0.951  -1.755  -7.432  1.00  0.00     0.157 HD
ATOM     17  H11 UNL     1       0.104  -1.260  -8.908  1.00  0.00     0.157 HD
HETATM   18  N4  UNL     1      -2.438  -1.806  -9.574  1.00  0.00    -0.346 N
HETATM   19  C5  UNL     1      -3.721  -2.127  -9.823  1.00  0.00     0.190 A
ATOM     20  H4  UNL     1      -1.828  -1.260 -10.183  1.00  0.00     0.167 HD
ENDBRANCH   1   6
BRANCH   3  21
HETATM   21  C8  UNL     1      -8.706  -1.972  -8.471  1.00  0.00     0.199 C
BRANCH  21  22
HETATM   22  O2  UNL     1      -8.876  -1.608  -7.142  1.00  0.00    -0.398 OA
ATOM     23  H2  UNL     1      -9.513  -2.165  -6.710  1.00  0.00     0.209 HD
ENDBRANCH  21  22
ENDBRANCH   3  21
BRANCH   4  24
HETATM   24  C10 UNL     1      -7.662  -5.138  -7.141  1.00  0.00     0.133 C
BRANCH  24  25
HETATM   25  C11 UNL     1      -8.396  -5.623  -8.357  1.00  0.00     0.256 C
BRANCH  25  26
HETATM   26  N6  UNL     1      -7.518  -6.552  -9.051  1.00  0.00    -0.077 N
ATOM     27  H63 UNL     1      -7.238  -6.221  -9.974  1.00  0.00     0.274 HD
ATOM     28  H62 UNL     1      -6.586  -6.602  -8.640  1.00  0.00     0.274 HD
ATOM     29  H61 UNL     1      -7.991  -7.455  -9.078  1.00  0.00     0.274 HD
ENDBRANCH  25  26
ENDBRANCH  24  25
BRANCH  24  30
HETATM   30  N7  UNL     1      -8.518  -5.259  -6.002  1.00  0.00    -0.411 N
ATOM     31  H7  UNL     1      -8.159  -5.466  -5.070  1.00  0.00     0.153 HD
BRANCH  30  32
HETATM   32  C12 UNL     1      -9.908  -5.071  -6.256  1.00  0.00     0.141 C
BRANCH  32  33
HETATM   33  C13 UNL     1     -10.521  -4.293  -5.101  1.00  0.00     0.248 C
BRANCH  33  34
HETATM   34  N8  UNL     1      -9.711  -3.170  -4.726  1.00  0.00    -0.078 N
ATOM     35  H83 UNL     1     -10.124  -2.659  -3.946  1.00  0.00     0.274 HD
ATOM     36  H82 UNL     1      -8.845  -3.471  -4.280  1.00  0.00     0.274 HD
ATOM     37  H81 UNL     1      -9.528  -2.554  -5.518  1.00  0.00     0.274 HD
ENDBRANCH  33  34
ENDBRANCH  32  33
ENDBRANCH  30  32
ENDBRANCH  24  30
ENDBRANCH   4  24
TORSDOF 10
ENDMDL