MODEL 5
REMARK VINA RESULT: -6.693218411      1.413      3.704
REMARK  12 active torsions:
REMARK  status: ('A' for Active; 'I' for Inactive)
REMARK    1  A    between atoms: C3_8  and  N4_9
REMARK    2  A    between atoms: N4_9  and  C4_11
REMARK    3  A    between atoms: C7_18  and  N7_19
REMARK    4  A    between atoms: N7_19  and  C8_21
REMARK    5  A    between atoms: C8_21  and  C9_22
REMARK    6  A    between atoms: C8_21  and  C10_25
REMARK    7  A    between atoms: C9_22  and  O1_23
REMARK    8  A    between atoms: C10_25  and  O2_26
REMARK    9  A    between atoms: C10_25  and  C11_28
REMARK   10  A    between atoms: C11_28  and  O3_29
REMARK   11  A    between atoms: C11_28  and  C12_31
REMARK   12  A    between atoms: C12_31  and  O4_32
ROOT
HETATM    1  C4  UNL     1      -6.107  -3.238  -9.792  1.00  0.00     0.136 A
HETATM    2  N5  UNL     1      -6.576  -2.570 -10.856  1.00  0.00    -0.337 N
ATOM      3  H5  UNL     1      -7.582  -2.440 -10.960  1.00  0.00     0.168 HD
HETATM    4  C5  UNL     1      -5.746  -2.069 -11.787  1.00  0.00     0.182 A
HETATM    5  N6  UNL     1      -4.444  -2.230 -11.666  1.00  0.00    -0.360 N
ATOM      6  H6  UNL     1      -3.812  -1.851 -12.371  1.00  0.00     0.166 HD
HETATM    7  C6  UNL     1      -3.946  -2.909 -10.588  1.00  0.00     0.122 A
HETATM    8  C7  UNL     1      -4.731  -3.443  -9.606  1.00  0.00     0.092 A
ENDROOT
BRANCH   8   9
HETATM    9  N7  UNL     1      -4.287  -4.140  -8.501  1.00  0.00    -0.355 N
ATOM     10  H7  UNL     1      -4.410  -5.150  -8.580  1.00  0.00     0.166 HD
BRANCH   9  11
HETATM   11  C8  UNL     1      -3.687  -3.734  -7.264  1.00  0.00     0.042 C
BRANCH  11  12
HETATM   12  C9  UNL     1      -4.374  -4.235  -6.029  1.00  0.00     0.219 C
BRANCH  12  13
HETATM   13  O1  UNL     1      -5.468  -5.012  -6.469  1.00  0.00    -0.395 OA
ATOM     14  H1  UNL     1      -5.878  -5.364  -5.688  1.00  0.00     0.209 HD
ENDBRANCH  12  13
ENDBRANCH  11  12
BRANCH  11  15
HETATM   15  C10 UNL     1      -2.202  -3.760  -7.287  1.00  0.00     0.196 C
BRANCH  15  16
HETATM   16  O2  UNL     1      -1.622  -4.662  -6.378  1.00  0.00    -0.387 OA
ATOM     17  H2  UNL     1      -0.812  -4.357  -5.985  1.00  0.00     0.210 HD
ENDBRANCH  15  16
BRANCH  15  18
HETATM   18  C11 UNL     1      -1.519  -2.447  -7.041  1.00  0.00     0.176 C
BRANCH  18  19
HETATM   19  O3  UNL     1      -0.766  -2.356  -5.906  1.00  0.00    -0.390 OA
ATOM     20  H3  UNL     1      -0.523  -1.481  -5.629  1.00  0.00     0.210 HD
ENDBRANCH  18  19
BRANCH  18  21
HETATM   21  C12 UNL     1      -0.636  -2.059  -8.233  1.00  0.00     0.198 C
BRANCH  21  22
HETATM   22  O4  UNL     1       0.585  -1.680  -7.732  1.00  0.00    -0.398 OA
ATOM     23  H4  UNL     1       1.197  -2.382  -7.916  1.00  0.00     0.209 HD
ENDBRANCH  21  22
ENDBRANCH  18  21
ENDBRANCH  15  18
ENDBRANCH  11  15
ENDBRANCH   9  11
ENDBRANCH   8   9
BRANCH   1  24
HETATM   24  N4  UNL     1      -6.967  -3.680  -8.956  1.00  0.00    -0.324 N
ATOM     25  H4  UNL     1      -7.020  -3.222  -8.047  1.00  0.00     0.169 HD
BRANCH  24  26
HETATM   26  C3  UNL     1      -7.846  -4.749  -9.194  1.00  0.00     0.149 A
HETATM   27  C1  UNL     1      -7.504  -6.088  -9.163  1.00  0.00     0.161 A
HETATM   28  N1  UNL     1      -6.243  -6.673  -8.896  1.00  0.00    -0.079 NA
HETATM   29  N2  UNL     1      -8.612  -6.800  -9.440  1.00  0.00    -0.338 N
HETATM   30  C2  UNL     1      -9.643  -5.966  -9.645  1.00  0.00     0.183 A
ATOM     31  H2  UNL     1      -8.659  -7.818  -9.487  1.00  0.00     0.168 HD
HETATM   32  N3  UNL     1      -9.155  -4.727  -9.491  1.00  0.00    -0.336 N
ATOM     33  H3  UNL     1      -9.708  -3.875  -9.586  1.00  0.00     0.168 HD
ENDBRANCH  24  26
ENDBRANCH   1  24
TORSDOF 12
ENDMDL