MODEL 1
REMARK VINA RESULT: -6.503167717      0.000      0.000
REMARK  14 active torsions:
REMARK  status: ('A' for Active; 'I' for Inactive)
REMARK    1  A    between atoms: C2_2  and  C3_3
REMARK    2  A    between atoms: C2_2  and  C4_5
REMARK    3  A    between atoms: C4_5  and  O2_6
REMARK    4  A    between atoms: C4_5  and  N1_8
REMARK    5  A    between atoms: N1_8  and  C5_10
REMARK    6  A    between atoms: C5_10  and  O3_11
REMARK    7  A    between atoms: C5_10  and  C6_13
REMARK    8  A    between atoms: C6_13  and  N2_14
REMARK    9  A    between atoms: C6_13  and  C7_18
REMARK   10  A    between atoms: C7_18  and  O4_19
REMARK   11  A    between atoms: C7_18  and  C8_21
REMARK   12  A    between atoms: C9_24  and  C10_25
REMARK   13  A    between atoms: C10_25  and  N4_26
REMARK   14  A    between atoms: C10_25  and  N5_30
ROOT
HETATM    1  C7  UNL     1      -5.006  -4.905  -7.340  1.00  0.00     0.209 C
ENDROOT
BRANCH   1   2
HETATM    2  C6  UNL     1      -5.663  -4.755  -8.662  1.00  0.00     0.266 C
BRANCH   2   3
HETATM    3  C5  UNL     1      -6.660  -5.939  -8.780  1.00  0.00     0.249 C
BRANCH   3   4
HETATM    4  N1  UNL     1      -7.858  -5.438  -9.290  1.00  0.00    -0.369 N
ATOM      5  H1  UNL     1      -7.852  -4.525  -9.744  1.00  0.00     0.158 HD
BRANCH   4   6
HETATM    6  C4  UNL     1      -9.065  -6.135  -9.204  1.00  0.00     0.225 C
BRANCH   6   7
HETATM    7  C2  UNL     1      -9.750  -6.207  -7.877  1.00  0.00     0.091 C
HETATM    8  C1  UNL     1     -10.394  -4.941  -7.429  1.00  0.00     0.022 C
BRANCH   7   9
HETATM    9  C3  UNL     1     -10.829  -7.250  -8.003  1.00  0.00     0.239 C
HETATM   10  O1  UNL     1     -11.015  -8.126  -7.197  1.00  0.00    -0.306 OA
ENDBRANCH   7   9
ENDBRANCH   6   7
BRANCH   6  11
HETATM   11  O2  UNL     1      -9.042  -7.437  -9.722  1.00  0.00    -0.376 OA
ATOM     12  H2  UNL     1      -9.225  -7.367 -10.652  1.00  0.00     0.212 HD
ENDBRANCH   6  11
ENDBRANCH   4   6
ENDBRANCH   3   4
BRANCH   3  13
HETATM   13  O3  UNL     1      -6.006  -6.920  -9.452  1.00  0.00    -0.375 OA
ATOM     14  H3  UNL     1      -5.207  -7.284  -9.089  1.00  0.00     0.212 HD
ENDBRANCH   3  13
ENDBRANCH   2   3
BRANCH   2  15
HETATM   15  N2  UNL     1      -6.449  -3.531  -8.807  1.00  0.00    -0.068 N
ATOM     16  H23 UNL     1      -6.025  -2.852  -9.440  1.00  0.00     0.275 HD
ATOM     17  H22 UNL     1      -7.315  -3.667  -9.327  1.00  0.00     0.275 HD
ATOM     18  H21 UNL     1      -6.596  -3.166  -7.866  1.00  0.00     0.275 HD
ENDBRANCH   2  15
ENDBRANCH   1   2
BRANCH   1  19
HETATM   19  O4  UNL     1      -4.750  -6.273  -7.152  1.00  0.00    -0.387 OA
ATOM     20  H4  UNL     1      -3.978  -6.344  -6.603  1.00  0.00     0.210 HD
ENDBRANCH   1  19
BRANCH   1  21
HETATM   21  C8  UNL     1      -3.751  -4.111  -7.156  1.00  0.00     0.082 A
HETATM   22  N3  UNL     1      -3.034  -3.437  -8.026  1.00  0.00    -0.352 N
HETATM   23  C9  UNL     1      -1.948  -2.827  -7.664  1.00  0.00     0.074 A
ATOM     24  H3  UNL     1      -3.335  -3.392  -8.999  1.00  0.00     0.166 HD
HETATM   25  C11 UNL     1      -1.583  -2.918  -6.341  1.00  0.00     0.080 A
HETATM   26  S1  UNL     1      -2.838  -3.881  -5.702  1.00  0.00    -0.084 SA
BRANCH  23  27
HETATM   27  C10 UNL     1      -1.075  -2.023  -8.617  1.00  0.00     0.427 C
BRANCH  27  28
HETATM   28  N4  UNL     1       0.210  -1.748  -7.984  1.00  0.00    -0.045 N
ATOM     29  H43 UNL     1       0.196  -1.941  -6.983  1.00  0.00     0.277 HD
ATOM     30  H42 UNL     1       0.925  -2.424  -8.252  1.00  0.00     0.277 HD
ATOM     31  H41 UNL     1       0.492  -0.789  -8.188  1.00  0.00     0.277 HD
ENDBRANCH  27  28
BRANCH  27  32
HETATM   32  N5  UNL     1      -1.742  -0.755  -8.834  1.00  0.00    -0.045 N
ATOM     33  H53 UNL     1      -2.755  -0.812  -8.731  1.00  0.00     0.277 HD
ATOM     34  H52 UNL     1      -1.575  -0.080  -8.086  1.00  0.00     0.277 HD
ATOM     35  H51 UNL     1      -1.450  -0.418  -9.751  1.00  0.00     0.277 HD
ENDBRANCH  27  32
ENDBRANCH  23  27
ENDBRANCH   1  21
TORSDOF 14
ENDMDL