MODEL 1
REMARK VINA RESULT: -5.056222183      0.000      0.000
REMARK  5 active torsions:
REMARK  status: ('A' for Active; 'I' for Inactive)
REMARK    1  A    between atoms: C2_2  and  O1_3
REMARK    2  A    between atoms: O1_3  and  C3_4
REMARK    3  A    between atoms: C4_5  and  C5_6
REMARK    4  A    between atoms: C6_15  and  C7_16
REMARK    5  A    between atoms: C11_29  and  N10_30
ROOT
HETATM    1  C3  UNL     1      12.948  60.374  10.577  1.00  0.00     0.127 A
HETATM    2  C4  UNL     1      11.964  61.311  10.228  1.00  0.00     0.064 A
HETATM    3  C6  UNL     1      12.218  62.632  10.497  1.00  0.00     0.050 A
HETATM    4  C9  UNL     1      13.400  63.054  11.094  1.00  0.00     0.022 A
HETATM    5  C10 UNL     1      13.604  64.503  11.354  1.00  0.00     0.069 C
HETATM    6  N9  UNL     1      14.305  62.130  11.409  1.00  0.00    -0.344 N
ATOM      7  H9  UNL     1      15.175  62.430  11.847  1.00  0.00     0.167 HD
HETATM    8  C11 UNL     1      14.117  60.789  11.170  1.00  0.00     0.134 A
ENDROOT
BRANCH   2   9
HETATM    9  C5  UNL     1      10.700  60.967   9.603  1.00  0.00     0.151 A
HETATM   10  N1  UNL     1      10.602  60.767   8.278  1.00  0.00    -0.268 N
HETATM   11  N2  UNL     1       9.385  60.461   7.948  1.00  0.00    -0.227 N
ATOM     12  H1  UNL     1      11.378  60.843   7.621  1.00  0.00     0.190 HD
HETATM   13  N3  UNL     1       8.700  60.466   9.077  1.00  0.00    -0.227 N
ATOM     14  H2  UNL     1       9.031  60.259   7.013  1.00  0.00     0.210 HD
HETATM   15  N4  UNL     1       9.473  60.771  10.101  1.00  0.00    -0.268 N
ATOM     16  H3  UNL     1       7.703  60.262   9.147  1.00  0.00     0.210 HD
ATOM     17  H4  UNL     1       9.192  60.843  11.079  1.00  0.00     0.190 HD
ENDBRANCH   2   9
BRANCH   1  18
HETATM   18  O1  UNL     1      12.707  59.059  10.312  1.00  0.00    -0.347 OA
BRANCH  18  19
HETATM   19  C2  UNL     1      12.420  58.008  11.161  1.00  0.00     0.171 C
HETATM   20  C1  UNL     1      11.187  58.087  11.987  1.00  0.00     0.034 C
ENDBRANCH  18  19
ENDBRANCH   1  18
BRANCH   3  21
HETATM   21  C7  UNL     1      11.198  63.623  10.137  1.00  0.00     0.150 A
HETATM   22  N5  UNL     1      10.433  64.364  10.965  1.00  0.00    -0.268 N
HETATM   23  N6  UNL     1       9.639  65.137  10.269  1.00  0.00    -0.225 N
ATOM     24  H5  UNL     1      10.469  64.327  11.984  1.00  0.00     0.190 HD
HETATM   25  N7  UNL     1       9.856  64.931   8.987  1.00  0.00    -0.223 N
ATOM     26  H6  UNL     1       8.962  65.793  10.657  1.00  0.00     0.210 HD
HETATM   27  C8  UNL     1       9.171  65.600   7.871  1.00  0.00     0.202 C
HETATM   28  N8  UNL     1      10.805  64.009   8.908  1.00  0.00    -0.266 N
ATOM     29  H8  UNL     1      11.185  63.642   8.036  1.00  0.00     0.190 HD
ENDBRANCH   3  21
BRANCH   8  30
HETATM   30  N10 UNL     1      15.002  59.952  11.557  1.00  0.00    -0.383 N
ATOM     31 2H10 UNL     1      15.931  59.975  11.137  1.00  0.00     0.157 HD
ATOM     32 1H10 UNL     1      14.816  59.290  12.311  1.00  0.00     0.157 HD
ENDBRANCH   8  30
TORSDOF 5
ENDMDL