MODEL 4
REMARK VINA RESULT: -3.938276905      8.692      9.467
REMARK  3 active torsions:
REMARK  status: ('A' for Active; 'I' for Inactive)
REMARK    1  A    between atoms: C2_2  and  C3_3
REMARK    2  A    between atoms: N1_5  and  N2_7
REMARK    3  A    between atoms: C6_13  and  N4_14
ROOT
HETATM    1  N2  UNL     1      13.230  61.067  10.728  1.00  0.00    -0.130 N
ATOM      2  H2  UNL     1      13.857  61.870  10.760  1.00  0.00     0.205 HD
HETATM    3  C4  UNL     1      12.157  61.298  10.095  1.00  0.00     0.716 A
HETATM    4  N3  UNL     1      11.975  62.550   9.551  1.00  0.00    -0.169 N
ATOM      5  H3  UNL     1      12.631  63.328   9.608  1.00  0.00     0.186 HD
HETATM    6  C5  UNL     1      10.803  62.566   8.944  1.00  0.00     0.196 A
HETATM    7  C6  UNL     1      10.214  63.629   8.258  1.00  0.00     0.172 A
HETATM    8  C7  UNL     1       8.985  63.400   7.710  1.00  0.00     0.059 A
HETATM    9  C8  UNL     1       8.309  64.511   6.963  1.00  0.00     0.071 C
HETATM   10  N5  UNL     1       8.397  62.216   7.835  1.00  0.00    -0.192 N
ATOM     11  H5  UNL     1       7.478  62.064   7.420  1.00  0.00     0.184 HD
HETATM   12  C9  UNL     1       9.005  61.202   8.512  1.00  0.00     0.700 A
HETATM   13  N6  UNL     1       8.377  60.118   8.581  1.00  0.00    -0.233 N
ATOM     14  H61 UNL     1       8.833  59.359   9.087  1.00  0.00     0.174 HD
ATOM     15  H62 UNL     1       7.460  60.000   8.152  1.00  0.00     0.174 HD
HETATM   16  N7  UNL     1      10.221  61.359   9.080  1.00  0.00    -0.051 N
HETATM   17  N8  UNL     1      11.061  60.587   9.789  1.00  0.00    -0.104 N
HETATM   18  C10 UNL     1      10.823  59.233  10.156  1.00  0.00     0.199 C
ENDROOT
BRANCH   1  19
HETATM   19  N1  UNL     1      13.715  59.994  11.363  1.00  0.00    -0.288 N
HETATM   20  C2  UNL     1      14.827  59.388  11.130  1.00  0.00     0.060 C
HETATM   21  C1  UNL     1      15.134  58.211  11.987  1.00  0.00     0.073 C
ATOM     22  H1  UNL     1      13.141  59.615  12.116  1.00  0.00     0.187 HD
BRANCH  20  23
HETATM   23  C3  UNL     1      15.686  59.865  10.084  1.00  0.00     0.284 C
HETATM   24  O1  UNL     1      16.601  60.716  10.265  1.00  0.00    -0.300 OA
ENDBRANCH  20  23
ENDBRANCH   1  19
BRANCH   7  25
HETATM   25  N4  UNL     1      10.862  64.876   8.142  1.00  0.00    -0.110 N
HETATM   26  O2  UNL     1      11.078  65.556   9.170  1.00  0.00    -0.532 OA
HETATM   27  O3  UNL     1      11.271  65.380   6.922  1.00  0.00    -0.532 OA
ENDBRANCH   7  25
TORSDOF 3
ENDMDL