MODEL 2
REMARK VINA RESULT: -7.742739123      0.135      1.015
REMARK  6 active torsions:
REMARK  status: ('A' for Active; 'I' for Inactive)
REMARK    1  A    between atoms: N1_1  and  N2_4
REMARK    2  A    between atoms: N2_4  and  C1_6
REMARK    3  A    between atoms: N3_7  and  C2_8
REMARK    4  A    between atoms: C5_11  and  N4_12
REMARK    5  A    between atoms: C8_19  and  C9_20
REMARK    6  A    between atoms: N8_27  and  N9_28
ROOT
HETATM    1  C1  UNL     1       5.663  57.213   3.148  1.00  0.00     0.740 A
HETATM    2  N3  UNL     1       6.895  57.144   2.637  1.00  0.00    -0.082 N
HETATM    3  N5  UNL     1       6.948  57.984   1.629  1.00  0.00    -0.260 N
ATOM      4  H5  UNL     1       7.773  58.141   1.050  1.00  0.00     0.190 HD
HETATM    5  C8  UNL     1       5.755  58.618   1.460  1.00  0.00     0.188 A
HETATM    6  N8  UNL     1       4.970  58.113   2.427  1.00  0.00    -0.069 N
ENDROOT
BRANCH   2   7
HETATM    7  C2  UNL     1       8.001  56.339   3.046  1.00  0.00     0.075 A
HETATM    8  C3  UNL     1       8.999  56.883   3.821  1.00  0.00     0.034 A
HETATM    9  C4  UNL     1      10.064  56.101   4.215  1.00  0.00     0.038 A
HETATM   10  C5  UNL     1      10.162  54.778   3.852  1.00  0.00     0.103 A
HETATM   11  C6  UNL     1       9.148  54.271   3.079  1.00  0.00     0.038 A
HETATM   12  C7  UNL     1       8.072  55.022   2.670  1.00  0.00     0.034 A
BRANCH  10  13
HETATM   13  N4  UNL     1      11.246  53.952   4.242  1.00  0.00    -0.116 N
HETATM   14  O1  UNL     1      12.180  54.429   4.913  1.00  0.00    -0.532 OA
HETATM   15  O2  UNL     1      11.310  52.627   3.904  1.00  0.00    -0.532 OA
ENDBRANCH  10  13
ENDBRANCH   2   7
BRANCH   1  16
HETATM   16  N2  UNL     1       5.268  56.517   4.151  1.00  0.00    -0.135 N
ATOM     17  H2  UNL     1       4.327  56.126   4.109  1.00  0.00     0.205 HD
BRANCH  16  18
HETATM   18  N1  UNL     1       6.013  56.254   5.284  1.00  0.00    -0.331 N
ATOM     19  H12 UNL     1       6.598  57.016   5.624  1.00  0.00     0.177 HD
ATOM     20  H11 UNL     1       6.020  55.370   5.794  1.00  0.00     0.177 HD
ENDBRANCH  16  18
ENDBRANCH   1  16
BRANCH   6  21
HETATM   21  N9  UNL     1       3.641  58.425   2.700  1.00  0.00    -0.322 N
ATOM     22  H92 UNL     1       2.975  57.894   3.260  1.00  0.00     0.178 HD
ATOM     23  H91 UNL     1       3.192  59.267   2.341  1.00  0.00     0.178 HD
ENDBRANCH   6  21
BRANCH   5  24
HETATM   24  C9  UNL     1       5.415  59.614   0.457  1.00  0.00     0.097 A
HETATM   25  C10 UNL     1       4.279  59.706  -0.305  1.00  0.00     0.122 A
HETATM   26  N6  UNL     1       4.376  60.783  -1.108  1.00  0.00    -0.360 N
HETATM   27  C11 UNL     1       5.564  61.378  -0.863  1.00  0.00     0.180 A
ATOM     28  H6  UNL     1       3.677  61.095  -1.782  1.00  0.00     0.166 HD
HETATM   29  N7  UNL     1       6.193  60.650   0.101  1.00  0.00    -0.348 N
ATOM     30  H7  UNL     1       7.112  60.859   0.491  1.00  0.00     0.167 HD
ENDBRANCH   5  24
TORSDOF 6
ENDMDL