MODEL 3
REMARK VINA RESULT: -6.325997222      1.558      2.685
REMARK  8 active torsions:
REMARK  status: ('A' for Active; 'I' for Inactive)
REMARK    1  A    between atoms: N1_2  and  N2_3
REMARK    2  A    between atoms: N1_2  and  C8_23
REMARK    3  A    between atoms: N2_3  and  N3_5
REMARK    4  A    between atoms: N3_5  and  C2_7
REMARK    5  A    between atoms: C5_10  and  N4_11
REMARK    6  A    between atoms: C6_14  and  N5_15
REMARK    7  A    between atoms: N5_15  and  N6_16
REMARK    8  A    between atoms: N5_15  and  N7_19
ROOT
HETATM    1  C2  UNL     1       8.606  56.173   3.705  1.00  0.00     0.051 A
HETATM    2  C3  UNL     1       7.963  55.204   2.974  1.00  0.00     0.033 A
HETATM    3  C4  UNL     1       8.596  54.025   2.746  1.00  0.00     0.041 A
HETATM    4  C5  UNL     1       9.902  53.789   3.251  1.00  0.00     0.133 A
HETATM    5  C6  UNL     1      10.556  54.738   3.984  1.00  0.00     0.108 A
HETATM    6  C7  UNL     1       9.864  55.954   4.199  1.00  0.00     0.066 A
ENDROOT
BRANCH   1   7
HETATM    7  N3  UNL     1       7.941  57.420   3.930  1.00  0.00    -0.286 N
ATOM      8  H3  UNL     1       8.060  57.946   4.796  1.00  0.00     0.188 HD
BRANCH   7   9
HETATM    9  N2  UNL     1       7.182  57.841   2.976  1.00  0.00    -0.238 N
ATOM     10  H2  UNL     1       7.614  58.229   2.137  1.00  0.00     0.208 HD
BRANCH   9  11
HETATM   11  N1  UNL     1       5.810  57.784   3.051  1.00  0.00    -0.253 N
HETATM   12  C1  UNL     1       5.163  57.179   4.195  1.00  0.00     0.182 C
BRANCH  11  13
HETATM   13  C8  UNL     1       4.970  58.316   2.029  1.00  0.00     0.193 C
HETATM   14  N8  UNL     1       3.690  58.405   2.008  1.00  0.00    -0.359 N
HETATM   15  C9  UNL     1       3.202  59.011   0.779  1.00  0.00     0.142 C
ATOM     16  H8  UNL     1       3.085  58.088   2.765  1.00  0.00     0.162 HD
HETATM   17  C10 UNL     1       4.464  59.586   0.132  1.00  0.00     0.142 C
HETATM   18  N9  UNL     1       5.511  58.856   0.826  1.00  0.00    -0.359 N
ATOM     19  H9  UNL     1       6.473  58.748   0.506  1.00  0.00     0.162 HD
ENDBRANCH  11  13
ENDBRANCH   9  11
ENDBRANCH   7   9
ENDBRANCH   1   7
BRANCH   5  20
HETATM   20  N5  UNL     1      11.802  54.554   4.596  1.00  0.00    -0.207 N
BRANCH  20  21
HETATM   21  N6  UNL     1      11.844  53.608   5.688  1.00  0.00    -0.324 N
ATOM     22  H62 UNL     1      10.956  53.184   5.959  1.00  0.00     0.178 HD
ATOM     23  H61 UNL     1      12.754  53.464   6.124  1.00  0.00     0.178 HD
ENDBRANCH  20  21
BRANCH  20  24
HETATM   24  N7  UNL     1      12.990  55.138   4.245  1.00  0.00    -0.324 N
ATOM     25  H72 UNL     1      13.177  55.228   3.246  1.00  0.00     0.178 HD
ATOM     26  H71 UNL     1      13.696  55.524   4.872  1.00  0.00     0.178 HD
ENDBRANCH  20  24
ENDBRANCH   5  20
BRANCH   4  27
HETATM   27  N4  UNL     1      10.426  52.532   2.913  1.00  0.00    -0.113 N
HETATM   28  O1  UNL     1       9.803  51.601   2.454  1.00  0.00    -0.532 OA
HETATM   29  O2  UNL     1      11.768  52.278   3.215  1.00  0.00    -0.532 OA
ENDBRANCH   4  27
TORSDOF 8
ENDMDL