MODEL 5
REMARK VINA RESULT: -3.791453539      3.107      4.562
REMARK  6 active torsions:
REMARK  status: ('A' for Active; 'I' for Inactive)
REMARK    1  A    between atoms: O1_2  and  C2_3
REMARK    2  A    between atoms: C2_3  and  O2_4
REMARK    3  A    between atoms: C2_3  and  C3_6
REMARK    4  A    between atoms: C6_9  and  C7_10
REMARK    5  A    between atoms: N2_14  and  O4_15
REMARK    6  A    between atoms: C11_25  and  N5_26
ROOT
HETATM    1  C3  UNL     1      11.985  61.089  10.528  1.00  0.00     0.041 A
HETATM    2  C4  UNL     1      13.003  60.159  10.682  1.00  0.00    -0.019 A
HETATM    3  C5  UNL     1      12.789  58.731  10.419  1.00  0.00     0.051 C
HETATM    4  C6  UNL     1      14.254  60.600  11.124  1.00  0.00     0.071 A
HETATM    5  N3  UNL     1      14.391  61.914  11.376  1.00  0.00    -0.338 N
ATOM      6  H3  UNL     1      15.303  62.238  11.698  1.00  0.00     0.167 HD
HETATM    7  C10 UNL     1      13.413  62.847  11.236  1.00  0.00     0.133 A
HETATM    8  N4  UNL     1      13.641  64.110  11.502  1.00  0.00    -0.383 N
ATOM      9  H41 UNL     1      12.907  64.810  11.396  1.00  0.00     0.157 HD
ATOM     10  H42 UNL     1      14.560  64.413  11.824  1.00  0.00     0.157 HD
HETATM   11  C11 UNL     1      12.176  62.439  10.803  1.00  0.00     0.158 A
ENDROOT
BRANCH   4  12
HETATM   12  C7  UNL     1      15.344  59.647  11.304  1.00  0.00     0.111 A
HETATM   13  N1  UNL     1      15.280  58.462  11.985  1.00  0.00    -0.235 N
HETATM   14  O3  UNL     1      16.411  57.862  11.977  1.00  0.00    -0.128 OA
ATOM     15  H1  UNL     1      14.441  58.104  12.441  1.00  0.00     0.197 HD
HETATM   16  N2  UNL     1      17.280  58.557  11.322  1.00  0.00    -0.104 N
HETATM   17  C8  UNL     1      16.640  59.695  10.881  1.00  0.00     0.095 A
HETATM   18  C9  UNL     1      17.365  60.699  10.106  1.00  0.00     0.076 C
BRANCH  16  19
HETATM   19  O4  UNL     1      18.579  58.212  11.118  1.00  0.00    -0.261 OA
ATOM     20  H4  UNL     1      19.238  58.109  11.795  1.00  0.00     0.247 HD
ENDBRANCH  16  19
ENDBRANCH   4  12
BRANCH   1  21
HETATM   21  C2  UNL     1      10.642  60.727  10.043  1.00  0.00     0.293 C
BRANCH  21  22
HETATM   22  O1  UNL     1      10.426  61.442   8.853  1.00  0.00    -0.362 OA
HETATM   23  C1  UNL     1       9.248  61.111   8.226  1.00  0.00     0.205 C
ENDBRANCH  21  22
BRANCH  21  24
HETATM   24  O2  UNL     1       9.677  61.146  10.988  1.00  0.00    -0.367 OA
ATOM     25  H2  UNL     1      10.056  61.847  11.504  1.00  0.00     0.213 HD
ENDBRANCH  21  24
ENDBRANCH   1  21
BRANCH  11  26
HETATM   26  N5  UNL     1      11.188  63.439  10.666  1.00  0.00    -0.111 N
HETATM   27  O5  UNL     1      10.410  63.677  11.588  1.00  0.00    -0.532 OA
HETATM   28  O6  UNL     1      11.111  64.150   9.507  1.00  0.00    -0.532 OA
ENDBRANCH  11  26
TORSDOF 6
ENDMDL