MODEL 3
REMARK VINA RESULT: -5.485009695      1.126      1.767
REMARK  7 active torsions:
REMARK  status: ('A' for Active; 'I' for Inactive)
REMARK    1  A    between atoms: N1_1  and  O1_4
REMARK    2  A    between atoms: O1_4  and  C1_5
REMARK       I    between atoms: C1_5  and  N2_7
REMARK    3  A    between atoms: N2_7  and  O3_8
REMARK    4  A    between atoms: N2_7  and  C2_10
REMARK    5  A    between atoms: C3_12  and  S2_13
REMARK    6  A    between atoms: S2_13  and  N3_14
REMARK    7  A    between atoms: C5_20  and  N4_21
ROOT
HETATM    1  C2  UNL     1       7.224  56.655   2.885  1.00  0.00     0.143 A
HETATM    2  S1  UNL     1       7.181  57.539   1.399  1.00  0.00    -0.054 SA
HETATM    3  C3  UNL     1       5.748  58.415   1.642  1.00  0.00     0.124 A
HETATM    4  C4  UNL     1       5.334  57.997   2.875  1.00  0.00     0.072 A
HETATM    5  C5  UNL     1       6.087  57.096   3.516  1.00  0.00     0.141 A
ENDROOT
BRANCH   1   6
HETATM    6  N2  UNL     1       8.192  55.719   3.346  1.00  0.00    -0.155 N
HETATM    7  C1  UNL     1       9.460  56.102   3.830  1.00  0.00     0.413 C
HETATM    8  O2  UNL     1       9.878  57.277   3.962  1.00  0.00    -0.234 OA
BRANCH   7   9
HETATM    9  O1  UNL     1      10.377  55.104   4.207  1.00  0.00    -0.186 OA
BRANCH   9  10
HETATM   10  N1  UNL     1      10.631  54.002   3.421  1.00  0.00    -0.301 N
ATOM     11  H12 UNL     1      11.569  53.901   3.033  1.00  0.00     0.184 HD
ATOM     12  H11 UNL     1       9.921  53.298   3.222  1.00  0.00     0.184 HD
ENDBRANCH   9  10
ENDBRANCH   7   9
BRANCH   6  13
HETATM   13  O3  UNL     1       7.865  54.417   3.317  1.00  0.00    -0.278 OA
ATOM     14  H3  UNL     1       8.423  53.787   3.760  1.00  0.00     0.245 HD
ENDBRANCH   6  13
ENDBRANCH   1   6
BRANCH   5  15
HETATM   15  N4  UNL     1       5.755  56.581   4.834  1.00  0.00    -0.113 N
HETATM   16  O6  UNL     1       6.651  56.199   5.601  1.00  0.00    -0.532 OA
HETATM   17  O7  UNL     1       4.437  56.559   5.167  1.00  0.00    -0.532 OA
ENDBRANCH   5  15
BRANCH   3  18
HETATM   18  S2  UNL     1       4.999  59.584   0.572  1.00  0.00     0.263 S
HETATM   19  O4  UNL     1       3.955  60.317   1.340  1.00  0.00    -0.200 OA
HETATM   20  O5  UNL     1       4.339  58.803  -0.557  1.00  0.00    -0.200 OA
BRANCH  18  21
HETATM   21  N3  UNL     1       6.159  60.680  -0.071  1.00  0.00    -0.324 N
ATOM     22  H32 UNL     1       6.118  61.048  -1.022  1.00  0.00     0.169 HD
ATOM     23  H31 UNL     1       6.879  60.905   0.615  1.00  0.00     0.169 HD
ENDBRANCH  18  21
ENDBRANCH   3  18
TORSDOF 7
ENDMDL