MODEL 1
REMARK VINA RESULT: -6.974181672      0.000      0.000
REMARK  4 active torsions:
REMARK  status: ('A' for Active; 'I' for Inactive)
REMARK    1  A    between atoms: N1_1  and  C1_4
REMARK    2  A    between atoms: C2_8  and  C3_9
REMARK    3  A    between atoms: C7_16  and  C8_17
REMARK       I    between atoms: C8_17  and  N4_19
REMARK    4  A    between atoms: N4_19  and  N5_21
ROOT
HETATM    1  C1  UNL     1       5.938  56.604   4.403  1.00  0.00     0.196 A
HETATM    2  O1  UNL     1       4.737  57.173   4.378  1.00  0.00    -0.216 OA
HETATM    3  N2  UNL     1       4.353  57.977   3.433  1.00  0.00    -0.242 N
ATOM      4  H2  UNL     1       3.420  58.388   3.460  1.00  0.00     0.196 HD
HETATM    5  C2  UNL     1       5.187  58.265   2.419  1.00  0.00     0.138 A
HETATM    6  N3  UNL     1       6.399  57.700   2.430  1.00  0.00    -0.332 N
ATOM      7  H3  UNL     1       7.039  57.913   1.665  1.00  0.00     0.168 HD
HETATM    8  C7  UNL     1       6.826  56.850   3.416  1.00  0.00     0.157 A
ENDROOT
BRANCH   8   9
HETATM    9  C8  UNL     1       8.167  56.322   3.297  1.00  0.00     0.291 C
HETATM   10  O3  UNL     1       9.113  57.183   3.098  1.00  0.00    -0.264 OA
HETATM   11  N4  UNL     1       8.599  55.003   3.369  1.00  0.00    -0.263 N
ATOM     12  H4  UNL     1       7.937  54.243   3.525  1.00  0.00     0.190 HD
BRANCH  11  13
HETATM   13  N5  UNL     1       9.982  54.741   3.219  1.00  0.00    -0.300 N
HETATM   14  C9  UNL     1      10.694  54.832   4.433  1.00  0.00     0.109 C
HETATM   15  C10 UNL     1      11.554  53.681   4.779  1.00  0.00     0.213 C
HETATM   16  O4  UNL     1      11.657  52.657   3.885  1.00  0.00    -0.384 OA
HETATM   17  C11 UNL     1      10.451  52.409   3.235  1.00  0.00     0.189 C
HETATM   18  C12 UNL     1      10.241  53.650   2.352  1.00  0.00     0.174 C
ENDBRANCH  11  13
ENDBRANCH   8   9
BRANCH   1  19
HETATM   19  N1  UNL     1       6.224  55.826   5.377  1.00  0.00    -0.376 N
ATOM     20  H12 UNL     1       6.547  54.872   5.218  1.00  0.00     0.158 HD
ATOM     21  H11 UNL     1       6.123  56.181   6.328  1.00  0.00     0.158 HD
ENDBRANCH   1  19
BRANCH   5  22
HETATM   22  C3  UNL     1       4.752  59.176   1.351  1.00  0.00     0.034 A
HETATM   23  C4  UNL     1       5.381  59.474   0.173  1.00  0.00     0.041 A
HETATM   24  C5  UNL     1       4.582  60.371  -0.479  1.00  0.00     0.142 A
HETATM   25  O2  UNL     1       3.532  60.598   0.266  1.00  0.00    -0.334 OA
HETATM   26  C6  UNL     1       3.586  59.911   1.365  1.00  0.00     0.156 A
ENDBRANCH   5  22
TORSDOF 4
ENDMDL