MODEL 5
REMARK VINA RESULT: -4.514830148      0.991      1.024
REMARK  4 active torsions:
REMARK  status: ('A' for Active; 'I' for Inactive)
REMARK    1  A    between atoms: O1_2  and  C2_3
REMARK    2  A    between atoms: C7_14  and  N4_15
REMARK    3  A    between atoms: C8_17  and  N5_18
REMARK       I    between atoms: N5_18  and  C9_20
REMARK       I    between atoms: C9_20  and  N6_22
REMARK    4  A    between atoms: N6_22  and  O3_24
ROOT
HETATM    1  C2  UNL     1       9.209  54.575   3.275  1.00  0.00     0.175 A
HETATM    2  N1  UNL     1      10.540  54.714   3.413  1.00  0.00    -0.325 N
ATOM      3  H1  UNL     1      11.150  53.961   3.098  1.00  0.00     0.169 HD
HETATM    4  C3  UNL     1      11.091  55.819   3.956  1.00  0.00     0.080 A
HETATM    5  C4  UNL     1      12.560  55.951   4.099  1.00  0.00     0.089 C
HETATM    6  N2  UNL     1      10.303  56.815   4.373  1.00  0.00    -0.329 N
ATOM      7  H2  UNL     1      10.736  57.643   4.780  1.00  0.00     0.168 HD
HETATM    8  C5  UNL     1       8.952  56.769   4.277  1.00  0.00     0.154 A
HETATM    9  C6  UNL     1       8.415  55.610   3.710  1.00  0.00     0.145 A
HETATM   10  N3  UNL     1       6.994  55.561   3.608  1.00  0.00    -0.182 N
ATOM     11  H3  UNL     1       6.535  54.744   3.204  1.00  0.00     0.184 HD
HETATM   12  C7  UNL     1       6.221  56.660   4.073  1.00  0.00     0.698 A
HETATM   13  N7  UNL     1       6.756  57.714   4.592  1.00  0.00    -0.130 N
ATOM     14  H7  UNL     1       6.157  58.474   4.911  1.00  0.00     0.205 HD
HETATM   15  N8  UNL     1       8.132  57.830   4.722  1.00  0.00    -0.269 N
ATOM     16  H8  UNL     1       8.545  58.667   5.132  1.00  0.00     0.189 HD
ENDROOT
BRANCH  12  17
HETATM   17  N4  UNL     1       4.813  56.590   3.962  1.00  0.00    -0.186 N
HETATM   18  C8  UNL     1       4.161  57.281   3.108  1.00  0.00     0.202 C
ATOM     19  H4  UNL     1       4.300  55.967   4.585  1.00  0.00     0.185 HD
BRANCH  18  20
HETATM   20  N5  UNL     1       4.850  58.148   2.238  1.00  0.00    -0.303 N
HETATM   21  C9  UNL     1       4.139  58.802   1.199  1.00  0.00     0.346 C
HETATM   22  O2  UNL     1       2.909  58.607   1.060  1.00  0.00    -0.245 OA
HETATM   23  N6  UNL     1       4.801  59.675   0.313  1.00  0.00    -0.215 N
HETATM   24  C10 UNL     1       4.055  60.329  -0.736  1.00  0.00     0.190 C
ATOM     25  H5  UNL     1       5.851  58.305   2.354  1.00  0.00     0.171 HD
BRANCH  23  26
HETATM   26  O3  UNL     1       6.110  59.894   0.448  1.00  0.00    -0.284 OA
ATOM     27  H3  UNL     1       6.659  59.976  -0.324  1.00  0.00     0.245 HD
ENDBRANCH  23  26
ENDBRANCH  18  20
ENDBRANCH  12  17
BRANCH   1  28
HETATM   28  O1  UNL     1       8.641  53.445   2.720  1.00  0.00    -0.339 OA
HETATM   29  C1  UNL     1       9.344  52.398   2.133  1.00  0.00     0.211 C
ENDBRANCH   1  28
TORSDOF 4
ENDMDL