MODEL 3
REMARK VINA RESULT: -6.146745204      2.782      6.143
REMARK  3 active torsions:
REMARK  status: ('A' for Active; 'I' for Inactive)
REMARK    1  A    between atoms: C3_3  and  C4_4
REMARK       I    between atoms: C4_4  and  N1_6
REMARK    2  A    between atoms: N1_6  and  N2_8
REMARK    3  A    between atoms: N3_10  and  C5_12
ROOT
HETATM    1  N2  UNL     1      11.495  58.545  10.948  1.00  0.00    -0.238 N
ATOM      2  H2  UNL     1      10.641  58.052  11.208  1.00  0.00     0.208 HD
HETATM    3  N3  UNL     1      12.611  58.085  11.348  1.00  0.00    -0.264 N
ATOM      4  H3  UNL     1      12.631  57.237  11.916  1.00  0.00     0.190 HD
ENDROOT
BRANCH   1   5
HETATM    5  N1  UNL     1      11.391  59.699  10.169  1.00  0.00    -0.251 N
HETATM    6  C4  UNL     1      10.345  60.630  10.308  1.00  0.00     0.278 C
HETATM    7  O1  UNL     1       9.466  60.370  11.201  1.00  0.00    -0.266 OA
ATOM      8  H1  UNL     1      12.108  59.875   9.465  1.00  0.00     0.192 HD
BRANCH   6   9
HETATM    9  C3  UNL     1      10.197  61.843   9.520  1.00  0.00     0.126 A
HETATM   10  C2  UNL     1      10.770  63.072   9.808  1.00  0.00     0.045 A
HETATM   11  C1  UNL     1      11.640  63.319  11.003  1.00  0.00     0.071 C
HETATM   12  N8  UNL     1      10.414  63.951   8.863  1.00  0.00    -0.295 N
HETATM   13  N7  UNL     1       9.640  63.356   7.974  1.00  0.00    -0.259 N
HETATM   14  C9  UNL     1      10.817  65.343   8.819  1.00  0.00     0.178 C
HETATM   15  C7  UNL     1       9.492  62.059   8.357  1.00  0.00     0.279 A
HETATM   16  C8  UNL     1       9.027  63.929   6.783  1.00  0.00     0.181 C
HETATM   17  O2  UNL     1       8.814  61.218   7.729  1.00  0.00    -0.265 OA
ENDBRANCH   6   9
ENDBRANCH   1   5
BRANCH   3  18
HETATM   18  C5  UNL     1      13.849  58.743  11.010  1.00  0.00     0.182 A
HETATM   19  N4  UNL     1      14.600  58.611   9.929  1.00  0.00    -0.276 N
HETATM   20  N5  UNL     1      15.669  59.277   9.800  1.00  0.00    -0.278 N
ATOM     21  H4  UNL     1      14.315  57.965   9.192  1.00  0.00     0.189 HD
HETATM   22  C6  UNL     1      16.026  60.118  10.774  1.00  0.00     0.160 A
ATOM     23  H5  UNL     1      16.247  59.174   8.966  1.00  0.00     0.189 HD
HETATM   24  N6  UNL     1      17.082  60.897  10.844  1.00  0.00    -0.378 N
HETATM   25  S1  UNL     1      14.750  59.909  11.897  1.00  0.00    -0.014 SA
ATOM     26  H62 UNL     1      17.842  61.022  10.175  1.00  0.00     0.158 HD
ATOM     27  H61 UNL     1      17.355  61.539  11.588  1.00  0.00     0.158 HD
ENDBRANCH   3  18
TORSDOF 3
ENDMDL