MODEL 2
REMARK VINA RESULT: -6.288516461      1.808      7.732
REMARK  5 active torsions:
REMARK  status: ('A' for Active; 'I' for Inactive)
REMARK    1  A    between atoms: C1_2  and  O2_3
REMARK    2  A    between atoms: O2_3  and  C2_4
REMARK    3  A    between atoms: C2_4  and  C3_6
REMARK    4  A    between atoms: C4_10  and  N3_11
REMARK    5  A    between atoms: N3_11  and  N4_13
ROOT
HETATM    1  C3  UNL     1       4.854  58.567   1.616  1.00  0.00     0.161 C
HETATM    2  N1  UNL     1       6.023  58.777   1.173  1.00  0.00    -0.290 N
ATOM      3  H1  UNL     1       6.175  59.444   0.417  1.00  0.00     0.183 HD
HETATM    4  N2  UNL     1       7.068  58.108   1.713  1.00  0.00    -0.102 NA
HETATM    5  C4  UNL     1       6.700  56.762   2.253  1.00  0.00     0.281 C
HETATM    6  S2  UNL     1       5.054  57.333   2.896  1.00  0.00    -0.060 SA
ENDROOT
BRANCH   5   7
HETATM    7  N3  UNL     1       7.545  56.455   3.333  1.00  0.00    -0.297 N
ATOM      8  H3  UNL     1       7.367  56.971   4.194  1.00  0.00     0.183 HD
BRANCH   7   9
HETATM    9  N4  UNL     1       8.580  55.548   3.383  1.00  0.00    -0.243 N
HETATM   10  C5  UNL     1       8.361  54.297   2.840  1.00  0.00     0.124 A
HETATM   11  C6  UNL     1       9.308  53.316   2.835  1.00  0.00     0.093 A
HETATM   12  C7  UNL     1      10.543  53.549   3.385  1.00  0.00     0.248 A
HETATM   13  O4  UNL     1      11.435  52.636   3.385  1.00  0.00    -0.268 OA
HETATM   14  N5  UNL     1      10.759  54.753   3.911  1.00  0.00    -0.299 N
HETATM   15  C8  UNL     1       9.787  55.724   3.903  1.00  0.00     0.199 A
ATOM     16  H5  UNL     1      11.667  54.959   4.329  1.00  0.00     0.171 HD
HETATM   17  S1  UNL     1      10.168  57.159   4.584  1.00  0.00    -0.039 SA
ENDBRANCH   7   9
ENDBRANCH   5   7
BRANCH   1  18
HETATM   18  C2  UNL     1       3.645  59.206   1.144  1.00  0.00     0.325 C
HETATM   19  O3  UNL     1       2.576  58.546   1.062  1.00  0.00    -0.256 OA
BRANCH  18  20
HETATM   20  O2  UNL     1       3.628  60.528   0.776  1.00  0.00    -0.247 OA
BRANCH  20  21
HETATM   21  C1  UNL     1       4.048  60.999  -0.461  1.00  0.00     0.406 C
HETATM   22  O1  UNL     1       5.279  61.249  -0.591  1.00  0.00    -0.276 OA
ENDBRANCH  20  21
ENDBRANCH  18  20
ENDBRANCH   1  18
TORSDOF 5
ENDMDL