MODEL 3
REMARK VINA RESULT: -6.232577307      2.884      6.630
REMARK  7 active torsions:
REMARK  status: ('A' for Active; 'I' for Inactive)
REMARK    1  A    between atoms: C2_2  and  C3_3
REMARK    2  A    between atoms: C3_3  and  N1_4
REMARK    3  A    between atoms: N1_4  and  C4_5
REMARK    4  A    between atoms: N1_4  and  C6_8
REMARK    5  A    between atoms: C4_5  and  C5_6
REMARK    6  A    between atoms: C6_8  and  C7_12
REMARK    7  A    between atoms: N5_17  and  C8_18
ROOT
HETATM    1  C7  UNL     1      57.244 -17.221  -1.479  1.00  0.00     0.181 A
HETATM    2  N3  UNL     1      57.738 -17.721  -2.612  1.00  0.00    -0.265 N
ATOM      3  H3  UNL     1      58.535 -17.347  -3.127  1.00  0.00     0.190 HD
HETATM    4  N4  UNL     1      57.019 -18.791  -2.966  1.00  0.00    -0.224 N
ATOM      5  H4  UNL     1      57.182 -19.364  -3.794  1.00  0.00     0.210 HD
HETATM    6  N5  UNL     1      56.068 -18.990  -2.080  1.00  0.00    -0.209 N
HETATM    7  N6  UNL     1      56.204 -18.038  -1.176  1.00  0.00    -0.263 N
ATOM      8  H6  UNL     1      55.605 -17.929  -0.358  1.00  0.00     0.190 HD
ENDROOT
BRANCH   1   9
HETATM    9  C6  UNL     1      57.644 -16.083  -0.663  1.00  0.00     0.144 C
HETATM   10  N2  UNL     1      56.822 -15.058  -0.551  1.00  0.00    -0.382 N
ATOM     11  H22 UNL     1      57.102 -14.261   0.021  1.00  0.00     0.157 HD
ATOM     12  H21 UNL     1      55.947 -15.151  -1.067  1.00  0.00     0.157 HD
BRANCH   9  13
HETATM   13  N1  UNL     1      58.843 -15.956   0.044  1.00  0.00    -0.362 N
BRANCH  13  14
HETATM   14  C3  UNL     1      60.066 -15.572  -0.605  1.00  0.00     0.124 C
BRANCH  14  15
HETATM   15  C2  UNL     1      60.755 -16.761  -1.227  1.00  0.00     0.015 C
HETATM   16  C1  UNL     1      61.658 -17.369  -0.154  1.00  0.00     0.006 C
ENDBRANCH  14  15
ENDBRANCH  13  14
BRANCH  13  17
HETATM   17  C4  UNL     1      58.877 -16.246   1.460  1.00  0.00     0.156 C
BRANCH  17  18
HETATM   18  C5  UNL     1      59.442 -15.038   2.201  1.00  0.00     0.241 C
HETATM   19  F1  UNL     1      58.643 -13.942   1.969  1.00  0.00    -0.254 F
ENDBRANCH  17  18
ENDBRANCH  13  17
ENDBRANCH   9  13
ENDBRANCH   1   9
BRANCH   6  20
HETATM   20  C8  UNL     1      55.035 -20.039  -2.037  1.00  0.00     0.061 C
HETATM   21  C9  UNL     1      54.592 -20.304  -0.639  1.00  0.00     0.041 C
HETATM   22  C10 UNL     1      55.668 -21.256  -2.687  1.00  0.00     0.041 C
HETATM   23  C11 UNL     1      53.858 -19.593  -2.906  1.00  0.00     0.041 C
ENDBRANCH   6  20
TORSDOF 7
ENDMDL