MODEL 1
REMARK VINA RESULT: -6.705875067      0.000      0.000
REMARK  5 active torsions:
REMARK  status: ('A' for Active; 'I' for Inactive)
REMARK    1  A    between atoms: C2_2  and  C3_3
REMARK    2  A    between atoms: C3_3  and  S1_4
REMARK    3  A    between atoms: S1_4  and  C4_5
REMARK    4  A    between atoms: C4_5  and  C5_6
REMARK       I    between atoms: C5_6  and  N1_8
REMARK    5  A    between atoms: N1_8  and  C6_10
ROOT
HETATM    1  C5  UNL     1      56.392 -18.473  -1.618  1.00  0.00     0.232 C
HETATM    2  O1  UNL     1      55.876 -18.681  -0.495  1.00  0.00    -0.272 OA
HETATM    3  N1  UNL     1      57.257 -17.429  -1.927  1.00  0.00    -0.305 N
ATOM      4  H1  UNL     1      57.333 -17.171  -2.911  1.00  0.00     0.171 HD
ENDROOT
BRANCH   3   5
HETATM    5  C6  UNL     1      57.979 -16.748  -1.087  1.00  0.00     0.177 A
HETATM    6  N2  UNL     1      59.294 -16.707  -0.871  1.00  0.00    -0.234 N
HETATM    7  O2  UNL     1      59.743 -15.954   0.020  1.00  0.00    -0.187 OA
ATOM      8  H2  UNL     1      59.926 -17.284  -1.426  1.00  0.00     0.197 HD
HETATM    9  C7  UNL     1      58.976 -15.215   0.735  1.00  0.00     0.351 A
HETATM   10  O3  UNL     1      59.286 -14.398   1.678  1.00  0.00    -0.249 OA
HETATM   11  S2  UNL     1      57.437 -15.609   0.102  1.00  0.00     0.019 SA
ENDBRANCH   3   5
BRANCH   1  12
HETATM   12  C4  UNL     1      56.036 -19.442  -2.707  1.00  0.00     0.177 C
BRANCH  12  13
HETATM   13  S1  UNL     1      54.374 -20.096  -2.442  1.00  0.00    -0.160 SA
BRANCH  13  14
HETATM   14  C3  UNL     1      54.478 -21.722  -1.652  1.00  0.00     0.074 C
BRANCH  14  15
HETATM   15  C2  UNL     1      53.754 -22.772  -2.498  1.00  0.00     0.006 C
HETATM   16  C1  UNL     1      54.184 -24.159  -2.111  1.00  0.00     0.006 C
ENDBRANCH  14  15
ENDBRANCH  13  14
ENDBRANCH  12  13
ENDBRANCH   1  12
TORSDOF 5
ENDMDL