MODEL 2
REMARK VINA RESULT: -4.950664512      2.299      4.316
REMARK  5 active torsions:
REMARK  status: ('A' for Active; 'I' for Inactive)
REMARK    1  A    between atoms: O1_2  and  C2_3
REMARK    2  A    between atoms: C2_3  and  C3_5
REMARK    3  A    between atoms: C3_5  and  C4_6
REMARK    4  A    between atoms: C4_6  and  C5_7
REMARK    5  A    between atoms: C5_7  and  S1_8
ROOT
HETATM    1  C3  UNL     1      54.600 -20.163  -3.449  1.00  0.00     0.167 C
HETATM    2  N1  UNL     1      53.553 -20.137  -2.513  1.00  0.00    -0.367 N
ATOM      3  H1  UNL     1      52.723 -19.576  -2.705  1.00  0.00     0.158 HD
HETATM    4  C7  UNL     1      53.632 -20.872  -1.317  1.00  0.00     0.267 C
HETATM    5  F1  UNL     1      54.087 -20.178  -0.209  1.00  0.00    -0.227 F
HETATM    6  C8  UNL     1      54.335 -22.186  -1.352  1.00  0.00     0.069 C
HETATM    7  C9  UNL     1      54.079 -22.901  -2.689  1.00  0.00     0.081 C
HETATM    8  S2  UNL     1      55.000 -21.881  -3.883  1.00  0.00    -0.128 SA
ENDROOT
BRANCH   1   9
HETATM    9  C2  UNL     1      55.849 -19.473  -3.040  1.00  0.00     0.297 C
HETATM   10  O2  UNL     1      56.990 -19.750  -3.491  1.00  0.00    -0.261 OA
BRANCH   9  11
HETATM   11  O1  UNL     1      55.808 -18.449  -2.104  1.00  0.00    -0.324 OA
HETATM   12  C1  UNL     1      56.967 -17.735  -1.724  1.00  0.00     0.213 C
ENDBRANCH   9  11
ENDBRANCH   1   9
BRANCH   1  13
HETATM   13  C4  UNL     1      54.062 -19.569  -4.755  1.00  0.00     0.063 C
BRANCH  13  14
HETATM   14  C5  UNL     1      54.342 -20.436  -5.925  1.00  0.00     0.077 C
BRANCH  14  15
HETATM   15  S1  UNL     1      53.960 -19.614  -7.497  1.00  0.00    -0.173 SA
HETATM   16  C6  UNL     1      52.550 -20.391  -8.327  1.00  0.00     0.089 C
ENDBRANCH  14  15
ENDBRANCH  13  14
ENDBRANCH   1  13
TORSDOF 5
ENDMDL