MODEL 5
REMARK VINA RESULT: -6.670353957      5.066      7.095
REMARK  5 active torsions:
REMARK  status: ('A' for Active; 'I' for Inactive)
REMARK    1  A    between atoms: N1_2  and  C2_3
REMARK    2  A    between atoms: N1_2  and  C8_16
REMARK    3  A    between atoms: C2_3  and  C3_4
REMARK    4  A    between atoms: C4_7  and  C5_8
REMARK    5  A    between atoms: C5_8  and  O1_11
ROOT
HETATM    1  C3  UNL     1      54.021 -20.979  -3.214  1.00  0.00     0.187 A
HETATM    2  N2  UNL     1      53.696 -22.279  -3.192  1.00  0.00    -0.320 N
ATOM      3  H2  UNL     1      53.184 -22.764  -3.931  1.00  0.00     0.169 HD
HETATM    4  C4  UNL     1      54.138 -22.852  -2.063  1.00  0.00     0.138 A
HETATM    5  N3  UNL     1      54.750 -21.864  -1.386  1.00  0.00    -0.244 N
ATOM      6  H3  UNL     1      55.199 -21.966  -0.475  1.00  0.00     0.196 HD
HETATM    7  O2  UNL     1      54.679 -20.751  -2.074  1.00  0.00    -0.217 OA
ENDROOT
BRANCH   1   8
HETATM    8  C2  UNL     1      53.772 -19.912  -4.209  1.00  0.00     0.144 C
BRANCH   8   9
HETATM    9  N1  UNL     1      54.329 -20.124  -5.474  1.00  0.00    -0.386 N
HETATM   10  C1  UNL     1      55.673 -20.506  -5.480  1.00  0.00     0.149 C
BRANCH   9  11
HETATM   11  C8  UNL     1      53.812 -19.366  -6.553  1.00  0.00     0.086 C
HETATM   12  C9  UNL     1      52.568 -18.621  -6.081  1.00  0.00     0.028 C
HETATM   13  C10 UNL     1      51.543 -18.705  -7.152  1.00  0.00     0.039 C
HETATM   14  C11 UNL     1      52.183 -19.478  -8.299  1.00  0.00     0.172 C
HETATM   15  F1  UNL     1      52.646 -18.632  -9.268  1.00  0.00    -0.249 F
HETATM   16  C12 UNL     1      53.305 -20.242  -7.676  1.00  0.00     0.062 C
ENDBRANCH   9  11
ENDBRANCH   8   9
ENDBRANCH   1   8
BRANCH   4  17
HETATM   17  C5  UNL     1      54.013 -24.246  -1.594  1.00  0.00     0.110 C
HETATM   18  C6  UNL     1      52.568 -24.685  -1.500  1.00  0.00     0.054 C
HETATM   19  C7  UNL     1      54.699 -24.455  -0.267  1.00  0.00     0.054 C
BRANCH  17  20
HETATM   20  O1  UNL     1      54.642 -25.133  -2.501  1.00  0.00    -0.383 OA
ATOM     21  H1  UNL     1      54.245 -25.994  -2.455  1.00  0.00     0.211 HD
ENDBRANCH  17  20
ENDBRANCH   4  17
TORSDOF 5
ENDMDL