MODEL 5
REMARK VINA RESULT: -7.073825194      0.909      1.054
REMARK  5 active torsions:
REMARK  status: ('A' for Active; 'I' for Inactive)
REMARK    1  A    between atoms: N1_2  and  N2_4
REMARK    2  A    between atoms: C2_6  and  C3_7
REMARK    3  A    between atoms: C3_7  and  C4_9
REMARK    4  A    between atoms: C4_9  and  O2_11
REMARK    5  A    between atoms: O2_11  and  C5_12
ROOT
HETATM    1  C4  UNL     1      54.868 -20.212  -6.539  1.00  0.00     0.283 C
HETATM    2  O1  UNL     1      55.908 -19.541  -6.747  1.00  0.00    -0.263 OA
ENDROOT
BRANCH   1   3
HETATM    3  C3  UNL     1      54.406 -21.146  -7.571  1.00  0.00     0.221 C
HETATM    4 CL1  UNL     1      52.864 -20.652  -8.296  1.00  0.00    -0.109 Cl
BRANCH   3   5
HETATM    5  C2  UNL     1      55.449 -21.207  -8.636  1.00  0.00     0.110 C
HETATM    6  N2  UNL     1      55.531 -22.162  -9.478  1.00  0.00    -0.319 N
ATOM      7  H2  UNL     1      54.858 -22.928  -9.434  1.00  0.00     0.185 HD
BRANCH   6   8
HETATM    8  N1  UNL     1      56.524 -22.179 -10.460  1.00  0.00    -0.341 N
HETATM    9  C1  UNL     1      56.677 -23.354 -11.304  1.00  0.00     0.167 C
ATOM     10  H1  UNL     1      57.138 -21.374 -10.583  1.00  0.00     0.179 HD
ENDBRANCH   6   8
ENDBRANCH   3   5
ENDBRANCH   1   3
BRANCH   1  11
HETATM   11  O2  UNL     1      54.228 -20.008  -5.326  1.00  0.00    -0.310 OA
BRANCH  11  12
HETATM   12  C5  UNL     1      54.733 -20.525  -4.141  1.00  0.00     0.164 C
HETATM   13  C6  UNL     1      56.012 -19.733  -3.694  1.00  0.00     0.116 C
HETATM   14  C7  UNL     1      55.891 -19.569  -2.306  1.00  0.00    -0.180 C
HETATM   15  C8  UNL     1      55.720 -19.419  -0.921  1.00  0.00     0.083 C
HETATM   16  C9  UNL     1      54.312 -20.037  -0.600  1.00  0.00     0.038 C
HETATM   17  C10 UNL     1      53.799 -20.896  -1.738  1.00  0.00    -0.027 C
HETATM   18  C11 UNL     1      53.632 -20.449  -3.085  1.00  0.00     0.002 C
ENDBRANCH  11  12
ENDBRANCH   1  11
TORSDOF 5
ENDMDL