MODEL 4
REMARK VINA RESULT: -6.223856864      1.207      2.062
REMARK  6 active torsions:
REMARK  status: ('A' for Active; 'I' for Inactive)
REMARK    1  A    between atoms: C5_7  and  C6_8
REMARK    2  A    between atoms: C6_8  and  O2_12
REMARK    3  A    between atoms: O2_12  and  C7_13
REMARK    4  A    between atoms: C7_13  and  C8_14
REMARK    5  A    between atoms: C8_14  and  O4_16
REMARK    6  A    between atoms: O4_16  and  C9_17
ROOT
HETATM    1  C6  UNL     1      55.854 -20.309  -4.281  1.00  0.00     0.124 C
HETATM    2  N1  UNL     1      56.855 -20.987  -3.835  1.00  0.00    -0.383 N
ATOM      3  H11 UNL     1      57.597 -21.250  -4.483  1.00  0.00     0.158 HD
ATOM      4  H12 UNL     1      56.873 -21.240  -2.847  1.00  0.00     0.158 HD
ENDROOT
BRANCH   1   5
HETATM    5  C5  UNL     1      54.788 -19.931  -3.350  1.00  0.00     0.136 C
HETATM    6  C2  UNL     1      55.225 -19.446  -2.043  1.00  0.00     0.050 C
HETATM    7  C1  UNL     1      56.198 -18.616  -1.755  1.00  0.00     0.047 C
HETATM    8  O1  UNL     1      54.378 -20.055  -1.096  1.00  0.00    -0.354 OA
HETATM    9  C3  UNL     1      53.215 -20.571  -1.760  1.00  0.00     0.196 C
HETATM   10  C4  UNL     1      53.879 -21.097  -3.043  1.00  0.00     0.124 C
HETATM   11 CL1  UNL     1      54.736 -22.564  -2.574  1.00  0.00    -0.121 Cl
ENDBRANCH   1   5
BRANCH   1  12
HETATM   12  O2  UNL     1      55.829 -19.965  -5.622  1.00  0.00    -0.329 OA
BRANCH  12  13
HETATM   13  C7  UNL     1      55.083 -20.761  -6.525  1.00  0.00     0.288 C
BRANCH  13  14
HETATM   14  C8  UNL     1      55.183 -20.265  -7.914  1.00  0.00     0.283 C
HETATM   15  O3  UNL     1      54.495 -19.269  -8.258  1.00  0.00    -0.263 OA
BRANCH  14  16
HETATM   16  O4  UNL     1      55.998 -20.844  -8.858  1.00  0.00    -0.320 OA
BRANCH  16  17
HETATM   17  C9  UNL     1      55.698 -22.053  -9.528  1.00  0.00     0.174 C
HETATM   18  C10 UNL     1      56.749 -22.228 -10.608  1.00  0.00     0.034 C
ENDBRANCH  16  17
ENDBRANCH  14  16
ENDBRANCH  13  14
ENDBRANCH  12  13
ENDBRANCH   1  12
TORSDOF 6
ENDMDL