MODEL 3
REMARK VINA RESULT: -5.819536006      6.959      9.434
REMARK  5 active torsions:
REMARK  status: ('A' for Active; 'I' for Inactive)
REMARK    1  A    between atoms: C2_2  and  C3_3
REMARK    2  A    between atoms: C3_3  and  S1_4
REMARK    3  A    between atoms: S1_4  and  C4_5
REMARK    4  A    between atoms: N1_9  and  N2_11
REMARK    5  A    between atoms: N2_11  and  N3_13
ROOT
HETATM    1  C1  UNL     1      53.239 -20.684  -8.106  1.00  0.00     0.066 C
HETATM    2  C2  UNL     1      54.714 -20.925  -7.990  1.00  0.00     0.010 C
HETATM    3  N1  UNL     1      55.328 -21.351  -8.983  1.00  0.00    -0.298 N
ATOM      4  H1  UNL     1      54.730 -21.491  -9.796  1.00  0.00     0.187 HD
ENDROOT
BRANCH   3   5
HETATM    5  N2  UNL     1      56.645 -21.673  -9.216  1.00  0.00    -0.258 N
ATOM      6  H2  UNL     1      57.345 -21.633  -8.477  1.00  0.00     0.202 HD
BRANCH   5   7
HETATM    7  N3  UNL     1      56.976 -22.063 -10.533  1.00  0.00    -0.158 NA
HETATM    8  C8  UNL     1      56.155 -23.152 -10.952  1.00  0.00     0.147 C
HETATM    9  C9  UNL     1      57.133 -23.965 -11.816  1.00  0.00     0.189 C
HETATM   10  O1  UNL     1      58.311 -23.804 -11.085  1.00  0.00    -0.343 OA
HETATM   11  C10 UNL     1      58.353 -22.466 -10.665  1.00  0.00     0.408 C
HETATM   12  F1  UNL     1      59.018 -22.317  -9.464  1.00  0.00    -0.200 F
ENDBRANCH   5   7
ENDBRANCH   3   5
BRANCH   2  13
HETATM   13  C3  UNL     1      55.391 -20.641  -6.708  1.00  0.00     0.128 C
BRANCH  13  14
HETATM   14  S1  UNL     1      54.282 -20.054  -5.415  1.00  0.00    -0.154 SA
BRANCH  14  15
HETATM   15  C4  UNL     1      54.917 -20.599  -3.819  1.00  0.00    -0.003 C
HETATM   16  C5  UNL     1      56.426 -20.625  -3.889  1.00  0.00     0.026 C
HETATM   17  C6  UNL     1      54.586 -19.551  -2.756  1.00  0.00     0.026 C
HETATM   18  C7  UNL     1      54.322 -21.910  -3.372  1.00  0.00     0.026 C
ENDBRANCH  14  15
ENDBRANCH  13  14
ENDBRANCH   2  13
TORSDOF 5
ENDMDL