MODEL 1
REMARK VINA RESULT: -5.651734654      0.000      0.000
REMARK  4 active torsions:
REMARK  status: ('A' for Active; 'I' for Inactive)
REMARK    1  A    between atoms: O1_2  and  C2_3
REMARK    2  A    between atoms: C2_3  and  C3_4
REMARK    3  A    between atoms: C7_10  and  O2_11
REMARK    4  A    between atoms: C10_15  and  O3_16
ROOT
HETATM    1  C3  UNL     1      56.062 -18.155  -1.615  1.00  0.00     0.170 C
HETATM    2  C4  UNL     1      55.876 -18.823  -0.254  1.00  0.00     0.154 C
HETATM    3  N1  UNL     1      55.076 -20.009  -0.382  1.00  0.00    -0.385 N
ATOM      4  H1  UNL     1      54.674 -20.391   0.475  1.00  0.00     0.159 HD
HETATM    5  C5  UNL     1      54.799 -20.689  -1.575  1.00  0.00     0.067 A
HETATM    6  C6  UNL     1      53.927 -21.758  -1.639  1.00  0.00     0.072 A
HETATM    7  C7  UNL     1      53.716 -22.359  -2.840  1.00  0.00     0.112 A
HETATM    8  C9  UNL     1      54.341 -21.948  -4.022  1.00  0.00     0.185 A
HETATM    9  F1  UNL     1      54.102 -22.579  -5.203  1.00  0.00    -0.200 F
HETATM   10  C10 UNL     1      55.211 -20.880  -3.943  1.00  0.00     0.145 A
HETATM   11  C12 UNL     1      55.434 -20.259  -2.731  1.00  0.00     0.132 A
HETATM   12  O4  UNL     1      56.298 -19.179  -2.587  1.00  0.00    -0.337 OA
ENDROOT
BRANCH   1  13
HETATM   13  C2  UNL     1      57.262 -17.276  -1.601  1.00  0.00     0.201 C
BRANCH  13  14
HETATM   14  O1  UNL     1      57.600 -16.930  -0.319  1.00  0.00    -0.393 OA
HETATM   15  C1  UNL     1      57.709 -15.566  -0.109  1.00  0.00     0.201 C
ENDBRANCH  13  14
ENDBRANCH   1  13
BRANCH  10  16
HETATM   16  O3  UNL     1      55.867 -20.411  -5.050  1.00  0.00    -0.350 OA
HETATM   17  C11 UNL     1      55.274 -19.960  -6.227  1.00  0.00     0.210 C
ENDBRANCH  10  16
BRANCH   7  18
HETATM   18  O2  UNL     1      52.850 -23.429  -2.936  1.00  0.00    -0.353 OA
HETATM   19  C8  UNL     1      52.859 -24.450  -1.984  1.00  0.00     0.210 C
ENDBRANCH   7  18
TORSDOF 4
ENDMDL