MODEL 4
REMARK VINA RESULT: -5.859844662      5.595      7.049
REMARK  7 active torsions:
REMARK  status: ('A' for Active; 'I' for Inactive)
REMARK    1  A    between atoms: C2_2  and  C4_5
REMARK    2  A    between atoms: C4_5  and  C5_7
REMARK    3  A    between atoms: C5_7  and  C6_8
REMARK    4  A    between atoms: C6_8  and  O2_10
REMARK    5  A    between atoms: O2_10  and  C7_11
REMARK    6  A    between atoms: C7_11  and  C8_12
REMARK    7  A    between atoms: C8_12  and  N1_13
ROOT
HETATM    1  C8  UNL     1      57.757 -16.038  -0.083  1.00  0.00     0.313 C
HETATM    2  C9  UNL     1      59.204 -16.121  -0.158  1.00  0.00     0.094 C
HETATM    3  N2  UNL     1      60.361 -16.206  -0.225  1.00  0.00    -0.195 NA
ENDROOT
BRANCH   1   4
HETATM    4  C7  UNL     1      57.103 -16.953  -1.122  1.00  0.00     0.224 C
BRANCH   4   5
HETATM    5  O2  UNL     1      56.512 -18.078  -0.546  1.00  0.00    -0.341 OA
BRANCH   5   6
HETATM    6  C6  UNL     1      55.644 -18.931  -1.203  1.00  0.00     0.119 C
HETATM    7  S1  UNL     1      54.811 -20.008  -0.301  1.00  0.00    -0.057 SA
BRANCH   6   8
HETATM    8  C5  UNL     1      55.487 -18.857  -2.662  1.00  0.00     0.157 C
BRANCH   8   9
HETATM    9  C4  UNL     1      54.417 -19.778  -3.161  1.00  0.00     0.156 C
HETATM   10  O1  UNL     1      53.245 -19.598  -2.981  1.00  0.00    -0.295 OA
BRANCH   9  11
HETATM   11  C2  UNL     1      54.893 -20.979  -3.924  1.00  0.00     0.090 C
HETATM   12  C1  UNL     1      54.442 -22.253  -3.253  1.00  0.00     0.041 C
HETATM   13  C3  UNL     1      54.381 -20.963  -5.345  1.00  0.00     0.041 C
HETATM   14 CL1  UNL     1      56.668 -20.884  -3.961  1.00  0.00    -0.112 Cl
ENDBRANCH   9  11
ENDBRANCH   8   9
ENDBRANCH   6   8
ENDBRANCH   5   6
ENDBRANCH   4   5
ENDBRANCH   1   4
BRANCH   1  15
HETATM   15  N1  UNL     1      57.364 -14.668  -0.448  1.00  0.00    -0.060 N
ATOM     16  H13 UNL     1      56.498 -14.622  -0.984  1.00  0.00     0.276 HD
ATOM     17  H12 UNL     1      57.046 -14.111   0.345  1.00  0.00     0.276 HD
ATOM     18  H11 UNL     1      58.166 -14.267  -0.934  1.00  0.00     0.276 HD
ENDBRANCH   1  15
TORSDOF 7
ENDMDL