MODEL 1
REMARK VINA RESULT: -5.800294748      0.000      0.000
REMARK  2 active torsions:
REMARK  status: ('A' for Active; 'I' for Inactive)
REMARK    1  A    between atoms: O1_2  and  C2_3
REMARK    2  A    between atoms: C7_9  and  O2_10
ROOT
HETATM    1  C2  UNL     1     -13.449  24.832  53.740  1.00  0.00     0.105 A
HETATM    2  C3  UNL     1     -12.158  24.707  53.260  1.00  0.00     0.056 A
HETATM    3  C4  UNL     1     -11.176  25.612  53.665  1.00  0.00     0.030 A
HETATM    4  C5  UNL     1     -11.439  26.642  54.537  1.00  0.00     0.002 A
HETATM    5  C6  UNL     1     -12.751  26.748  55.010  1.00  0.00     0.160 A
HETATM    6  F1  UNL     1     -13.125  27.723  55.873  1.00  0.00    -0.202 F
HETATM    7  C7  UNL     1     -13.709  25.848  54.601  1.00  0.00     0.141 A
HETATM    8  C9  UNL     1     -10.478  27.634  55.017  1.00  0.00     0.026 C
HETATM    9  C10 UNL     1     -10.767  29.025  54.471  1.00  0.00     0.015 C
HETATM   10  C11 UNL     1      -9.051  27.310  54.763  1.00  0.00     0.096 C
HETATM   11  C12 UNL     1      -8.815  26.445  53.606  1.00  0.00     0.200 C
HETATM   12  O3  UNL     1      -7.744  26.516  52.973  1.00  0.00    -0.289 OA
HETATM   13  C13 UNL     1      -9.814  25.487  53.165  1.00  0.00     0.228 C
HETATM   14  O4  UNL     1      -9.561  24.551  52.367  1.00  0.00    -0.284 OA
ENDROOT
BRANCH   1  15
HETATM   15  O1  UNL     1     -14.434  23.938  53.345  1.00  0.00    -0.353 OA
HETATM   16  C1  UNL     1     -14.709  22.744  54.049  1.00  0.00     0.210 C
ENDBRANCH   1  15
BRANCH   7  17
HETATM   17  O2  UNL     1     -15.018  25.968  55.082  1.00  0.00    -0.350 OA
HETATM   18  C8  UNL     1     -15.954  26.806  54.391  1.00  0.00     0.210 C
ENDBRANCH   7  17
TORSDOF 2
ENDMDL