MODEL 2
REMARK VINA RESULT: -4.776377503      1.849      3.912
REMARK  2 active torsions:
REMARK  status: ('A' for Active; 'I' for Inactive)
REMARK    1  A    between atoms: O1_2  and  C2_3
REMARK    2  A    between atoms: C9_12  and  N1_13
ROOT
HETATM    1  C2  UNL     1     -13.378  25.556  53.039  1.00  0.00     0.415 C
HETATM    2  O2  UNL     1     -13.032  26.591  52.171  1.00  0.00    -0.315 OA
HETATM    3  C3  UNL     1     -12.230  27.461  52.947  1.00  0.00     0.259 C
HETATM    4 CL1  UNL     1     -10.956  28.071  51.928  1.00  0.00    -0.092 Cl
HETATM    5  C4  UNL     1     -11.788  26.641  54.110  1.00  0.00     0.136 C
HETATM    6  C5  UNL     1     -12.535  27.026  55.351  1.00  0.00     0.044 C
HETATM    7  C6  UNL     1     -11.957  28.164  56.110  1.00  0.00     0.003 C
HETATM    8  C7  UNL     1     -10.816  28.868  55.453  1.00  0.00     0.002 C
HETATM    9  C8  UNL     1      -9.784  27.928  54.936  1.00  0.00     0.039 C
HETATM   10  C9  UNL     1     -10.320  26.643  54.370  1.00  0.00     0.260 C
HETATM   11  O3  UNL     1     -12.196  25.354  53.780  1.00  0.00    -0.322 OA
ENDROOT
BRANCH  10  12
HETATM   12  N1  UNL     1      -9.505  26.267  53.264  1.00  0.00     0.087 N
HETATM   13  C10 UNL     1      -9.514  24.888  52.905  1.00  0.00     0.310 C
HETATM   14  C11 UNL     1      -8.137  26.689  53.488  1.00  0.00     0.310 C
ENDBRANCH  10  12
BRANCH   1  15
HETATM   15  O1  UNL     1     -13.702  24.455  52.270  1.00  0.00    -0.344 OA
HETATM   16  C1  UNL     1     -14.435  23.491  53.000  1.00  0.00     0.207 C
ENDBRANCH   1  15
TORSDOF 2
ENDMDL