MODEL 2
REMARK VINA RESULT: -6.790505528      4.848      7.093
REMARK  4 active torsions:
REMARK  status: ('A' for Active; 'I' for Inactive)
REMARK    1  A    between atoms: C2_2  and  O1_3
REMARK    2  A    between atoms: O1_3  and  C3_4
REMARK    3  A    between atoms: C3_4  and  O3_6
REMARK    4  A    between atoms: O3_6  and  N1_7
ROOT
HETATM    1  N1  UNL     1     -13.076  17.870  64.437  1.00  0.00    -0.264 N
ATOM      2  H1  UNL     1     -13.209  17.194  63.684  1.00  0.00     0.194 HD
HETATM    3  C4  UNL     1     -12.411  18.916  64.160  1.00  0.00     0.016 C
HETATM    4  C5  UNL     1     -11.809  19.218  62.799  1.00  0.00     0.060 C
HETATM    5  C6  UNL     1     -11.083  20.483  63.188  1.00  0.00     0.007 C
HETATM    6  C7  UNL     1     -10.520  20.193  64.586  1.00  0.00     0.018 C
HETATM    7  C8  UNL     1     -12.011  20.087  64.936  1.00  0.00     0.048 C
HETATM    8  C9  UNL     1     -12.177  21.231  63.925  1.00  0.00     0.072 C
HETATM    9 BR1  UNL     1     -11.606  22.941  64.632  1.00  0.00    -0.090 Br
ENDROOT
BRANCH   1  10
HETATM   10  O3  UNL     1     -13.625  17.568  65.634  1.00  0.00    -0.175 OA
BRANCH  10  11
HETATM   11  C3  UNL     1     -14.490  16.517  65.880  1.00  0.00     0.433 C
HETATM   12  O2  UNL     1     -15.465  16.391  65.075  1.00  0.00    -0.227 OA
BRANCH  11  13
HETATM   13  O1  UNL     1     -14.346  15.630  66.920  1.00  0.00    -0.267 OA
BRANCH  13  14
HETATM   14  C2  UNL     1     -15.220  14.571  67.142  1.00  0.00     0.137 C
HETATM   15  C1  UNL     1     -16.196  14.650  68.029  1.00  0.00     0.038 C
ENDBRANCH  13  14
ENDBRANCH  11  13
ENDBRANCH  10  11
ENDBRANCH   1  10
TORSDOF 4
ENDMDL