MODEL 3
REMARK VINA RESULT: -4.020552852      2.397      2.663
REMARK  2 active torsions:
REMARK  status: ('A' for Active; 'I' for Inactive)
REMARK    1  A    between atoms: S1_2  and  C2_3
REMARK    2  A    between atoms: C2_3  and  C3_4
ROOT
HETATM    1  C3  UNL     1     -12.773  20.172  62.704  1.00  0.00     0.208 C
HETATM    2  O1  UNL     1     -13.343  19.903  61.436  1.00  0.00    -0.300 OA
HETATM    3  C4  UNL     1     -12.476  20.096  60.396  1.00  0.00     0.301 C
HETATM    4  O2  UNL     1     -12.735  20.727  59.310  1.00  0.00    -0.259 OA
HETATM    5  C5  UNL     1     -11.162  19.493  60.637  1.00  0.00     0.085 C
HETATM    6  C6  UNL     1     -10.238  19.101  59.786  1.00  0.00     0.080 C
HETATM    7 BR1  UNL     1     -10.585  19.319  57.928  1.00  0.00    -0.062 Br
HETATM    8  S2  UNL     1     -11.112  19.412  62.452  1.00  0.00    -0.090 SA
ENDROOT
BRANCH   1   9
HETATM    9  C2  UNL     1     -12.664  21.644  62.936  1.00  0.00     0.117 C
BRANCH   9  10
HETATM   10  S1  UNL     1     -11.368  21.953  64.139  1.00  0.00    -0.170 SA
HETATM   11  C1  UNL     1     -11.037  23.716  64.235  1.00  0.00     0.089 C
ENDBRANCH   9  10
ENDBRANCH   1   9
TORSDOF 2
ENDMDL