MODEL 3
REMARK VINA RESULT: -5.305289069     10.906     12.740
REMARK  3 active torsions:
REMARK  status: ('A' for Active; 'I' for Inactive)
REMARK    1  A    between atoms: O1_2  and  C2_3
REMARK       I    between atoms: C2_3  and  N1_5
REMARK    2  A    between atoms: C5_9  and  C7_11
REMARK    3  A    between atoms: C7_11  and  O4_13
ROOT
HETATM    1  C2  UNL     1     -14.107  16.977  65.063  1.00  0.00     0.364 C
HETATM    2  O2  UNL     1     -13.645  15.936  64.525  1.00  0.00    -0.238 OA
HETATM    3  N1  UNL     1     -13.349  18.066  65.501  1.00  0.00    -0.307 N
ATOM      4  H1  UNL     1     -13.482  18.339  66.475  1.00  0.00     0.170 HD
HETATM    5  C3  UNL     1     -12.521  18.755  64.842  1.00  0.00     0.026 C
HETATM    6  C4  UNL     1     -12.162  18.552  63.420  1.00  0.00     0.075 C
HETATM    7  C5  UNL     1     -12.281  19.869  62.658  1.00  0.00     0.049 C
HETATM    8  C6  UNL     1     -13.724  20.301  62.553  1.00  0.00     0.026 C
HETATM    9  C9  UNL     1     -11.438  20.909  63.386  1.00  0.00     0.023 C
HETATM   10  C10 UNL     1     -12.097  21.145  64.731  1.00  0.00     0.044 C
HETATM   11  C11 UNL     1     -11.837  19.875  65.552  1.00  0.00     0.215 C
HETATM   12  F1  UNL     1     -12.340  20.083  66.804  1.00  0.00    -0.243 F
ENDROOT
BRANCH   1  13
HETATM   13  O1  UNL     1     -15.490  17.029  65.224  1.00  0.00    -0.309 OA
HETATM   14  C1  UNL     1     -16.293  15.907  65.470  1.00  0.00     0.215 C
ENDBRANCH   1  13
BRANCH   7  15
HETATM   15  C7  UNL     1     -11.734  19.728  61.306  1.00  0.00     0.267 C
HETATM   16  O3  UNL     1     -10.604  19.236  61.134  1.00  0.00    -0.264 OA
BRANCH  15  17
HETATM   17  O4  UNL     1     -12.465  20.137  60.215  1.00  0.00    -0.326 OA
HETATM   18  C8  UNL     1     -12.336  19.557  58.929  1.00  0.00     0.213 C
ENDBRANCH  15  17
ENDBRANCH   7  15
TORSDOF 3
ENDMDL