MODEL 3
REMARK VINA RESULT: -5.509493351      6.496     10.133
REMARK  2 active torsions:
REMARK  status: ('A' for Active; 'I' for Inactive)
REMARK    1  A    between atoms: O1_2  and  C2_3
REMARK    2  A    between atoms: C7_9  and  O2_10
ROOT
HETATM    1  C2  UNL     1     -16.125  22.794  53.939  1.00  0.00     0.105 A
HETATM    2  C3  UNL     1     -16.720  23.839  53.271  1.00  0.00     0.056 A
HETATM    3  C4  UNL     1     -15.908  24.889  52.834  1.00  0.00     0.034 A
HETATM    4  C5  UNL     1     -14.553  24.890  53.056  1.00  0.00     0.070 A
HETATM    5  C6  UNL     1     -13.973  23.826  53.732  1.00  0.00     0.167 A
HETATM    6  F1  UNL     1     -12.630  23.860  53.934  1.00  0.00    -0.202 F
HETATM    7  C7  UNL     1     -14.769  22.783  54.169  1.00  0.00     0.141 A
HETATM    8  C9  UNL     1     -13.767  25.997  52.582  1.00  0.00     0.192 A
HETATM    9  O3  UNL     1     -12.515  26.001  52.786  1.00  0.00    -0.287 OA
HETATM   10  C10 UNL     1     -14.347  27.139  51.864  1.00  0.00    -0.007 A
HETATM   11  C11 UNL     1     -13.481  28.255  51.399  1.00  0.00     0.052 C
HETATM   12  C12 UNL     1     -15.653  27.104  51.668  1.00  0.00     0.066 A
HETATM   13  C13 UNL     1     -16.506  26.018  52.120  1.00  0.00     0.183 A
HETATM   14  O4  UNL     1     -17.756  26.039  51.902  1.00  0.00    -0.288 OA
ENDROOT
BRANCH   1  15
HETATM   15  O1  UNL     1     -16.873  21.744  54.389  1.00  0.00    -0.353 OA
HETATM   16  C1  UNL     1     -18.224  21.547  53.977  1.00  0.00     0.210 C
ENDBRANCH   1  15
BRANCH   7  17
HETATM   17  O2  UNL     1     -14.143  21.744  54.839  1.00  0.00    -0.350 OA
HETATM   18  C8  UNL     1     -13.910  21.860  56.233  1.00  0.00     0.210 C
ENDBRANCH   7  17
TORSDOF 2
ENDMDL