MODEL 3
REMARK VINA RESULT: -5.229558675      1.159      5.110
REMARK  2 active torsions:
REMARK  status: ('A' for Active; 'I' for Inactive)
REMARK    1  A    between atoms: C6_9  and  C7_10
REMARK    2  A    between atoms: N1_13  and  C9_14
ROOT
HETATM    1  C1  UNL     1     -14.976  25.413  55.271  1.00  0.00     0.026 C
HETATM    2  C2  UNL     1     -13.779  25.520  54.700  1.00  0.00     0.018 A
HETATM    3  C3  UNL     1     -13.358  24.541  53.733  1.00  0.00     0.294 A
HETATM    4  O1  UNL     1     -14.111  23.581  53.379  1.00  0.00    -0.259 OA
HETATM    5  O2  UNL     1     -12.095  24.674  53.194  1.00  0.00    -0.270 OA
HETATM    6  C4  UNL     1     -11.234  25.711  53.548  1.00  0.00     0.143 A
HETATM    7  C5  UNL     1      -9.930  26.006  53.125  1.00  0.00     0.182 A
HETATM    8  F1  UNL     1      -9.276  25.245  52.217  1.00  0.00    -0.200 F
HETATM    9  C6  UNL     1      -9.529  27.132  53.784  1.00  0.00     0.122 A
HETATM   10  N1  UNL     1     -10.541  27.515  54.580  1.00  0.00    -0.342 N
HETATM   11  C11 UNL     1     -11.591  26.667  54.453  1.00  0.00     0.058 A
HETATM   12  C12 UNL     1     -12.929  26.649  55.087  1.00  0.00     0.073 A
HETATM   13  C13 UNL     1     -13.680  27.944  54.758  1.00  0.00     0.022 C
ENDROOT
BRANCH   9  14
HETATM   14  C7  UNL     1      -8.228  27.743  53.601  1.00  0.00     0.175 C
HETATM   15  C8  UNL     1      -8.120  29.198  53.367  1.00  0.00     0.098 C
HETATM   16  O3  UNL     1      -7.174  27.088  53.632  1.00  0.00    -0.291 OA
ENDBRANCH   9  14
BRANCH  10  17
HETATM   17  C9  UNL     1     -10.502  28.645  55.465  1.00  0.00     0.125 C
HETATM   18  C10 UNL     1     -10.093  28.352  56.866  1.00  0.00     0.027 C
ENDBRANCH  10  17
TORSDOF 2
ENDMDL