MODEL 4
REMARK VINA RESULT: -5.571860867      9.535     10.761
REMARK  2 active torsions:
REMARK  status: ('A' for Active; 'I' for Inactive)
REMARK    1  A    between atoms: O1_2  and  C2_3
REMARK    2  A    between atoms: C8_12  and  N2_13
ROOT
HETATM    1  C2  UNL     1      -7.925  27.513  53.675  1.00  0.00     0.072 A
HETATM    2  C3  UNL     1      -8.439  28.677  54.214  1.00  0.00     0.081 A
HETATM    3  C4  UNL     1      -9.791  28.729  54.457  1.00  0.00     0.146 A
HETATM    4  F1  UNL     1     -10.371  29.844  54.986  1.00  0.00    -0.204 F
HETATM    5  C5  UNL     1     -10.651  27.663  54.181  1.00  0.00     0.086 A
HETATM    6  N1  UNL     1     -11.972  27.783  54.443  1.00  0.00    -0.354 N
ATOM      7  H1  UNL     1     -12.354  28.641  54.840  1.00  0.00     0.166 HD
HETATM    8  C6  UNL     1     -12.769  26.730  54.164  1.00  0.00     0.043 A
HETATM    9  C7  UNL     1     -14.216  26.816  54.426  1.00  0.00     0.071 C
HETATM   10  C8  UNL     1     -12.245  25.575  53.627  1.00  0.00     0.175 A
HETATM   11  C9  UNL     1     -10.895  25.439  53.354  1.00  0.00     0.219 A
HETATM   12  O4  UNL     1     -10.443  24.385  52.870  1.00  0.00    -0.285 OA
HETATM   13  C10 UNL     1     -10.082  26.537  53.649  1.00  0.00     0.049 A
HETATM   14  C11 UNL     1      -8.728  26.428  53.383  1.00  0.00     0.054 A
ENDROOT
BRANCH  10  15
HETATM   15  N2  UNL     1     -13.114  24.495  53.353  1.00  0.00    -0.110 N
HETATM   16  O2  UNL     1     -13.399  23.692  54.241  1.00  0.00    -0.532 OA
HETATM   17  O3  UNL     1     -13.647  24.341  52.107  1.00  0.00    -0.532 OA
ENDBRANCH  10  15
BRANCH   1  18
HETATM   18  O1  UNL     1      -6.569  27.467  53.430  1.00  0.00    -0.356 OA
HETATM   19  C1  UNL     1      -5.833  28.624  53.112  1.00  0.00     0.210 C
ENDBRANCH   1  18
TORSDOF 2
ENDMDL