MODEL 5
REMARK VINA RESULT: -5.640609573      2.548      5.125
REMARK  3 active torsions:
REMARK  status: ('A' for Active; 'I' for Inactive)
REMARK    1  A    between atoms: C2_2  and  O2_4
REMARK    2  A    between atoms: O2_4  and  C3_5
REMARK    3  A    between atoms: C3_5  and  C4_7
ROOT
HETATM    1  C4  UNL     1     -11.247  19.644  60.479  1.00  0.00     0.168 A
HETATM    2  O4  UNL     1     -10.180  18.960  60.786  1.00  0.00    -0.308 OA
HETATM    3  C5  UNL     1      -9.502  18.615  59.717  1.00  0.00     0.051 A
HETATM    4  C6  UNL     1      -8.236  17.833  59.659  1.00  0.00     0.077 C
HETATM    5  C7  UNL     1     -10.167  19.106  58.609  1.00  0.00     0.054 A
HETATM    6  C8  UNL     1     -11.276  19.757  59.127  1.00  0.00     0.053 A
HETATM    7 BR1  UNL     1     -12.602  20.653  58.116  1.00  0.00    -0.048 Br
ENDROOT
BRANCH   1   8
HETATM    8  C3  UNL     1     -12.200  20.166  61.455  1.00  0.00     0.326 C
HETATM    9  O3  UNL     1     -13.426  20.194  61.225  1.00  0.00    -0.256 OA
BRANCH   8  10
HETATM   10  O2  UNL     1     -11.784  20.660  62.689  1.00  0.00    -0.240 OA
BRANCH  10  11
HETATM   11  C2  UNL     1     -11.906  19.884  63.832  1.00  0.00     0.262 C
HETATM   12  C1  UNL     1     -11.608  20.472  65.139  1.00  0.00     0.126 C
HETATM   13  O1  UNL     1     -12.273  18.663  63.770  1.00  0.00    -0.265 OA
ENDBRANCH  10  11
ENDBRANCH   8  10
ENDBRANCH   1   8
TORSDOF 3
ENDMDL