MODEL 1
REMARK VINA RESULT: -4.713534268      0.000      0.000
REMARK  5 active torsions:
REMARK  status: ('A' for Active; 'I' for Inactive)
REMARK    1  A    between atoms: C2_2  and  O1_3
REMARK    2  A    between atoms: O1_3  and  C3_4
REMARK    3  A    between atoms: C3_4  and  O2_5
REMARK    4  A    between atoms: C3_4  and  C4_7
REMARK       I    between atoms: N1_15  and  C11_16
REMARK    5  A    between atoms: C11_16  and  O4_18
ROOT
HETATM    1  C4  UNL     1     -14.182  26.176  53.173  1.00  0.00     0.151 C
HETATM    2  C5  UNL     1     -14.931  26.665  54.419  1.00  0.00     0.046 C
HETATM    3  C6  UNL     1     -14.241  27.982  54.663  1.00  0.00    -0.001 C
HETATM    4  C7  UNL     1     -14.914  29.106  53.893  1.00  0.00     0.021 C
HETATM    5  C8  UNL     1     -14.176  28.360  56.110  1.00  0.00     0.021 C
HETATM    6  C9  UNL     1     -12.862  27.742  54.100  1.00  0.00     0.052 C
HETATM    7  C10 UNL     1     -11.927  28.652  54.121  1.00  0.00     0.214 C
HETATM    8  F1  UNL     1     -12.134  29.879  54.651  1.00  0.00    -0.217 F
HETATM    9  N1  UNL     1     -12.838  26.378  53.581  1.00  0.00    -0.285 N
HETATM   10  C11 UNL     1     -11.647  25.644  53.576  1.00  0.00     0.367 C
HETATM   11  O3  UNL     1     -11.541  24.476  53.108  1.00  0.00    -0.238 OA
ENDROOT
BRANCH   1  12
HETATM   12  C3  UNL     1     -14.650  24.896  52.715  1.00  0.00     0.279 C
BRANCH  12  13
HETATM   13  O1  UNL     1     -15.541  24.006  53.216  1.00  0.00    -0.360 OA
BRANCH  13  14
HETATM   14  C2  UNL     1     -15.189  22.709  53.654  1.00  0.00     0.166 C
HETATM   15  C1  UNL     1     -14.296  22.698  54.851  1.00  0.00     0.033 C
ENDBRANCH  13  14
ENDBRANCH  12  13
BRANCH  12  16
HETATM   16  O2  UNL     1     -14.110  24.512  51.588  1.00  0.00    -0.369 OA
ATOM     17  H2  UNL     1     -13.434  23.854  51.699  1.00  0.00     0.212 HD
ENDBRANCH  12  16
ENDBRANCH   1  12
BRANCH  10  18
HETATM   18  O4  UNL     1     -10.454  26.167  54.105  1.00  0.00    -0.309 OA
HETATM   19  C12 UNL     1      -9.243  26.064  53.385  1.00  0.00     0.215 C
ENDBRANCH  10  18
TORSDOF 5
ENDMDL