MODEL 1
REMARK VINA RESULT: -7.936547715      0.000      0.000
REMARK  12 active torsions:
REMARK  status: ('A' for Active; 'I' for Inactive)
REMARK    1  A    between atoms: C2_2  and  N1_3
REMARK    2  A    between atoms: C2_2  and  C15_40
REMARK    3  A    between atoms: N1_3  and  C3_5
REMARK    4  A    between atoms: C4_8  and  S1_9
REMARK    5  A    between atoms: S1_9  and  C5_10
REMARK    6  A    between atoms: C5_10  and  C6_11
REMARK    7  A    between atoms: C6_11  and  C7_12
REMARK    8  A    between atoms: C7_12  and  N3_13
REMARK    9  A    between atoms: N3_13  and  C8_15
REMARK   10  A    between atoms: C9_18  and  N5_19
REMARK   11  A    between atoms: C15_40  and  O2_41
REMARK   12  A    between atoms: C15_40  and  O3_43
ROOT
HETATM    1  C3  UNL     1      35.618  17.290 -34.302  1.00  0.00     0.697 A
HETATM    2  N2  UNL     1      35.040  16.111 -34.597  1.00  0.00    -0.167 N
ATOM      3  H2  UNL     1      34.166  16.102 -35.121  1.00  0.00     0.186 HD
HETATM    4  C4  UNL     1      35.598  14.930 -34.208  1.00  0.00     0.198 A
HETATM    5  N9  UNL     1      36.751  15.014 -33.516  1.00  0.00    -0.061 N
HETATM    6  N10 UNL     1      37.527  14.077 -33.007  1.00  0.00    -0.273 N
ATOM      7  H10 UNL     1      37.349  13.075 -33.069  1.00  0.00     0.189 HD
HETATM    8  C12 UNL     1      38.587  14.632 -32.395  1.00  0.00     0.216 A
HETATM    9  N11 UNL     1      38.484  15.964 -32.517  1.00  0.00    -0.184 N
ATOM     10  H11 UNL     1      39.131  16.666 -32.158  1.00  0.00     0.185 HD
HETATM   11  C13 UNL     1      37.343  16.184 -33.213  1.00  0.00     0.723 A
HETATM   12  N12 UNL     1      36.772  17.342 -33.609  1.00  0.00    -0.017 N
HETATM   13  C14 UNL     1      37.381  18.599 -33.300  1.00  0.00     0.195 C
ENDROOT
BRANCH   4  14
HETATM   14  S1  UNL     1      34.855  13.368 -34.584  1.00  0.00    -0.091 SA
BRANCH  14  15
HETATM   15  C5  UNL     1      33.484  13.001 -33.422  1.00  0.00     0.084 C
BRANCH  15  16
HETATM   16  C6  UNL     1      32.693  11.802 -33.960  1.00  0.00     0.030 C
BRANCH  16  17
HETATM   17  C7  UNL     1      31.513  12.286 -34.770  1.00  0.00     0.122 C
BRANCH  17  18
HETATM   18  N3  UNL     1      30.989  13.525 -34.327  1.00  0.00    -0.374 N
ATOM     19  H3  UNL     1      31.462  13.926 -33.516  1.00  0.00     0.161 HD
BRANCH  18  20
HETATM   20  C8  UNL     1      30.029  14.213 -34.774  1.00  0.00     0.149 A
HETATM   21  N4  UNL     1      29.229  13.676 -35.713  1.00  0.00    -0.175 N
HETATM   22  C9  UNL     1      28.177  14.353 -36.241  1.00  0.00     0.679 A
ATOM     23  H4  UNL     1      29.419  12.728 -36.040  1.00  0.00     0.186 HD
HETATM   24  N6  UNL     1      27.843  15.604 -35.882  1.00  0.00    -0.173 N
HETATM   25  C10 UNL     1      28.575  16.219 -34.961  1.00  0.00     0.175 A
ATOM     26  H6  UNL     1      27.043  16.071 -36.308  1.00  0.00     0.186 HD
HETATM   27  N7  UNL     1      28.599  17.415 -34.331  1.00  0.00    -0.223 N
HETATM   28  C11 UNL     1      29.719  15.496 -34.378  1.00  0.00     0.147 A
HETATM   29  O1  UNL     1      29.589  17.443 -33.494  1.00  0.00    -0.155 OA
ATOM     30  H7  UNL     1      27.940  18.177 -34.491  1.00  0.00     0.198 HD
HETATM   31  N8  UNL     1      30.260  16.331 -33.504  1.00  0.00    -0.234 N
ATOM     32  H8  UNL     1      31.077  16.131 -32.927  1.00  0.00     0.197 HD
BRANCH  22  33
HETATM   33  N5  UNL     1      27.450  13.779 -37.138  1.00  0.00    -0.234 N
ATOM     34  H52 UNL     1      27.392  14.227 -38.053  1.00  0.00     0.174 HD
ATOM     35  H51 UNL     1      26.969  12.911 -36.904  1.00  0.00     0.174 HD
ENDBRANCH  22  33
ENDBRANCH  18  20
ENDBRANCH  17  18
ENDBRANCH  16  17
ENDBRANCH  15  16
ENDBRANCH  14  15
ENDBRANCH   4  14
BRANCH   1  36
HETATM   36  N1  UNL     1      35.103  18.423 -34.664  1.00  0.00    -0.216 N
ATOM     37  H1  UNL     1      35.586  19.301 -34.477  1.00  0.00     0.178 HD
BRANCH  36  38
HETATM   38  C2  UNL     1      33.825  18.408 -35.339  1.00  0.00     0.150 C
HETATM   39  C1  UNL     1      33.780  19.405 -36.485  1.00  0.00     0.038 C
BRANCH  38  40
HETATM   40  C15 UNL     1      32.705  18.825 -34.380  1.00  0.00     0.276 C
BRANCH  40  41
HETATM   41  O2  UNL     1      32.611  17.943 -33.307  1.00  0.00    -0.369 OA
ATOM     42  H2  UNL     1      31.711  17.677 -33.162  1.00  0.00     0.212 HD
ENDBRANCH  40  41
BRANCH  40  43
HETATM   43  O3  UNL     1      31.479  18.791 -35.039  1.00  0.00    -0.369 OA
ATOM     44  H3  UNL     1      31.474  18.087 -35.676  1.00  0.00     0.212 HD
ENDBRANCH  40  43
ENDBRANCH  38  40
ENDBRANCH  36  38
ENDBRANCH   1  36
TORSDOF 12
ENDMDL