MODEL 1
REMARK VINA RESULT: -7.714086622      0.000      0.000
REMARK  12 active torsions:
REMARK  status: ('A' for Active; 'I' for Inactive)
REMARK    1  A    between atoms: C2_2  and  S1_3
REMARK    2  A    between atoms: S1_3  and  C3_4
REMARK    3  A    between atoms: C3_4  and  C4_5
REMARK    4  A    between atoms: C6_10  and  O1_11
REMARK    5  A    between atoms: C10_16  and  C11_17
REMARK    6  A    between atoms: C11_17  and  O3_18
REMARK    7  A    between atoms: O3_18  and  N2_19
REMARK    8  A    between atoms: C12_21  and  O4_22
REMARK    9  A    between atoms: C12_21  and  C13_24
REMARK   10  A    between atoms: C14_30  and  N5_31
REMARK   11  A    between atoms: C15_35  and  O7_36
REMARK   12  A    between atoms: N6_38  and  N7_39
ROOT
HETATM    1  C4  UNL     1      30.354  17.102 -34.649  1.00  0.00     0.312 C
HETATM    2  N1  UNL     1      30.463  17.898 -35.883  1.00  0.00    -0.027 N
ATOM      3  H11 UNL     1      30.194  18.875 -35.769  1.00  0.00     0.281 HD
ATOM      4  H12 UNL     1      29.763  17.666 -36.587  1.00  0.00     0.281 HD
HETATM    5  C5  UNL     1      31.811  17.715 -36.325  1.00  0.00     0.338 C
HETATM    6  C6  UNL     1      32.419  16.831 -35.275  1.00  0.00     0.311 C
HETATM    7  O2  UNL     1      32.626  15.542 -35.630  1.00  0.00    -0.301 OA
HETATM    8  C8  UNL     1      31.628  14.798 -36.116  1.00  0.00     0.169 C
HETATM    9  C9  UNL     1      32.082  14.004 -37.320  1.00  0.00     0.069 C
HETATM   10  C10 UNL     1      31.128  13.829 -35.029  1.00  0.00     0.204 C
HETATM   11  O6  UNL     1      30.543  14.734 -34.180  1.00  0.00    -0.325 OA
HETATM   12  C15 UNL     1      29.908  15.692 -34.990  1.00  0.00     0.308 C
HETATM   13  N6  UNL     1      30.373  15.468 -36.357  1.00  0.00    -0.137 NA
HETATM   14  O8  UNL     1      31.620  17.006 -34.142  1.00  0.00    -0.286 OA
ENDROOT
BRANCH  10  15
HETATM   15  C11 UNL     1      32.247  13.031 -34.492  1.00  0.00     0.237 C
BRANCH  15  16
HETATM   16  O3  UNL     1      32.673  13.546 -33.249  1.00  0.00    -0.276 OA
BRANCH  16  17
HETATM   17  N2  UNL     1      33.679  14.471 -33.259  1.00  0.00    -0.243 N
HETATM   18  C12 UNL     1      34.918  14.082 -33.189  1.00  0.00     0.193 C
ATOM     19  H2  UNL     1      33.458  15.464 -33.320  1.00  0.00     0.196 HD
BRANCH  18  20
HETATM   20  O4  UNL     1      35.155  12.720 -33.107  1.00  0.00    -0.343 OA
ATOM     21  H4  UNL     1      35.437  12.375 -32.268  1.00  0.00     0.219 HD
ENDBRANCH  18  20
BRANCH  18  22
HETATM   22  C13 UNL     1      36.008  15.059 -33.198  1.00  0.00     0.154 A
HETATM   23  N3  UNL     1      35.931  16.364 -33.543  1.00  0.00    -0.234 N
HETATM   24  O5  UNL     1      37.099  16.887 -33.421  1.00  0.00    -0.155 OA
ATOM     25  H3  UNL     1      35.089  16.851 -33.848  1.00  0.00     0.197 HD
HETATM   26  N4  UNL     1      37.970  16.040 -33.019  1.00  0.00    -0.224 N
HETATM   27  C14 UNL     1      37.318  14.843 -32.861  1.00  0.00     0.154 A
ATOM     28  H4  UNL     1      38.960  16.220 -32.850  1.00  0.00     0.198 HD
BRANCH  27  29
HETATM   29  N5  UNL     1      37.904  13.787 -32.468  1.00  0.00    -0.382 N
ATOM     30  H52 UNL     1      37.553  12.852 -32.672  1.00  0.00     0.157 HD
ATOM     31  H51 UNL     1      38.760  13.669 -31.925  1.00  0.00     0.157 HD
ENDBRANCH  27  29
ENDBRANCH  18  22
ENDBRANCH  16  17
ENDBRANCH  15  16
ENDBRANCH  10  15
BRANCH  13  32
HETATM   32  N7  UNL     1      29.531  14.557 -37.017  1.00  0.00    -0.356 NA
ATOM     33  H72 UNL     1      29.524  13.660 -36.530  1.00  0.00     0.171 HD
ATOM     34  H71 UNL     1      29.988  14.299 -37.893  1.00  0.00     0.171 HD
ENDBRANCH  13  32
BRANCH  12  35
HETATM   35  O7  UNL     1      28.552  15.515 -34.856  1.00  0.00    -0.348 OA
ATOM     36  H7  UNL     1      28.173  16.067 -34.182  1.00  0.00     0.214 HD
ENDBRANCH  12  35
BRANCH   6  37
HETATM   37  O1  UNL     1      33.664  17.386 -34.947  1.00  0.00    -0.336 OA
HETATM   38  C7  UNL     1      33.820  18.654 -35.493  1.00  0.00     0.208 C
ENDBRANCH   6  37
BRANCH   1  39
HETATM   39  C3  UNL     1      29.371  17.822 -33.781  1.00  0.00     0.150 C
BRANCH  39  40
HETATM   40  S1  UNL     1      28.448  19.107 -34.621  1.00  0.00    -0.164 SA
BRANCH  40  41
HETATM   41  C2  UNL     1      26.680  18.936 -34.279  1.00  0.00     0.069 C
HETATM   42  C1  UNL     1      26.019  17.955 -35.196  1.00  0.00     0.016 C
ENDBRANCH  40  41
ENDBRANCH  39  40
ENDBRANCH   1  39
TORSDOF 12
ENDMDL