MODEL 1
REMARK VINA RESULT: -8.219967802      0.000      0.000
REMARK  13 active torsions:
REMARK  status: ('A' for Active; 'I' for Inactive)
REMARK    1  A    between atoms: O1_2  and  C2_3
REMARK    2  A    between atoms: C2_3  and  C3_5
REMARK    3  A    between atoms: C3_5  and  C4_6
REMARK    4  A    between atoms: C4_6  and  N1_7
REMARK    5  A    between atoms: C4_6  and  C15_43
REMARK    6  A    between atoms: N1_7  and  C5_9
REMARK    7  A    between atoms: C5_9  and  O3_10
REMARK    8  A    between atoms: C5_9  and  C6_12
REMARK    9  A    between atoms: C7_13  and  N2_14
REMARK   10  A    between atoms: N3_16  and  C8_18
REMARK   11  A    between atoms: C9_21  and  N5_22
REMARK   12  A    between atoms: C10_27  and  N7_28
REMARK   13  A    between atoms: N8_31  and  N9_32
ROOT
HETATM    1  C6  UNL     1      28.697  17.577 -34.845  1.00  0.00     0.128 A
HETATM    2  C7  UNL     1      29.455  17.372 -33.681  1.00  0.00     0.142 A
HETATM    3  N10 UNL     1      29.105  17.938 -32.522  1.00  0.00    -0.330 N
ATOM      4  H10 UNL     1      29.684  17.763 -31.701  1.00  0.00     0.168 HD
HETATM    5  C11 UNL     1      28.038  18.715 -32.391  1.00  0.00     0.083 A
HETATM    6  C12 UNL     1      27.698  19.311 -31.089  1.00  0.00     0.089 C
HETATM    7  N11 UNL     1      27.285  18.944 -33.455  1.00  0.00    -0.307 N
HETATM    8  C13 UNL     1      26.112  19.786 -33.374  1.00  0.00     0.161 C
HETATM    9  C14 UNL     1      27.598  18.391 -34.667  1.00  0.00     0.267 A
HETATM   10  O4  UNL     1      26.843  18.652 -35.620  1.00  0.00    -0.267 OA
ENDROOT
BRANCH   2  11
HETATM   11  N2  UNL     1      30.620  16.543 -33.756  1.00  0.00    -0.270 N
HETATM   12  N3  UNL     1      30.528  15.290 -33.564  1.00  0.00    -0.128 N
ATOM     13  H3  UNL     1      29.612  14.891 -33.356  1.00  0.00     0.205 HD
ATOM     14  H2  UNL     1      31.528  16.959 -33.966  1.00  0.00     0.189 HD
BRANCH  12  15
HETATM   15  C8  UNL     1      31.649  14.429 -33.629  1.00  0.00     0.747 A
HETATM   16  N4  UNL     1      32.819  14.753 -33.037  1.00  0.00    -0.018 N
HETATM   17  C9  UNL     1      33.889  13.911 -33.108  1.00  0.00     0.705 A
ATOM     18  H4  UNL     1      32.904  15.635 -32.533  1.00  0.00     0.203 HD
HETATM   19  N6  UNL     1      33.794  12.752 -33.763  1.00  0.00    -0.020 N
HETATM   20  C10 UNL     1      32.633  12.423 -34.355  1.00  0.00     0.726 A
ATOM     21  H6  UNL     1      34.596  12.123 -33.815  1.00  0.00     0.203 HD
HETATM   22  N8  UNL     1      31.563  13.266 -34.284  1.00  0.00     0.085 N
BRANCH  17  23
HETATM   23  N5  UNL     1      34.982  14.249 -32.534  1.00  0.00    -0.234 N
ATOM     24  H52 UNL     1      34.971  14.710 -31.624  1.00  0.00     0.174 HD
ATOM     25  H51 UNL     1      35.867  14.052 -33.002  1.00  0.00     0.174 HD
ENDBRANCH  17  23
BRANCH  20  26
HETATM   26  N7  UNL     1      32.597  11.295 -34.973  1.00  0.00    -0.232 N
ATOM     27  H72 UNL     1      32.856  11.191 -35.954  1.00  0.00     0.174 HD
ATOM     28  H71 UNL     1      32.291  10.485 -34.434  1.00  0.00     0.174 HD
ENDBRANCH  20  26
BRANCH  22  29
HETATM   29  N9  UNL     1      30.404  12.843 -34.923  1.00  0.00    -0.309 N
ATOM     30  H92 UNL     1      29.532  13.261 -34.598  1.00  0.00     0.178 HD
ATOM     31  H91 UNL     1      30.407  12.156 -35.676  1.00  0.00     0.178 HD
ENDBRANCH  22  29
ENDBRANCH  12  15
ENDBRANCH   2  11
BRANCH   1  32
HETATM   32  C5  UNL     1      29.078  16.959 -36.095  1.00  0.00     0.156 C
BRANCH  32  33
HETATM   33  N1  UNL     1      29.573  17.588 -37.237  1.00  0.00    -0.355 N
ATOM     34  H1  UNL     1      28.949  17.705 -38.035  1.00  0.00     0.162 HD
BRANCH  33  35
HETATM   35  C4  UNL     1      30.942  18.088 -37.347  1.00  0.00     0.194 C
BRANCH  35  36
HETATM   36  C3  UNL     1      31.523  17.801 -38.695  1.00  0.00     0.147 C
BRANCH  36  37
HETATM   37  C2  UNL     1      31.650  16.363 -38.904  1.00  0.00     0.260 C
HETATM   38  O2  UNL     1      32.232  15.951 -39.961  1.00  0.00    -0.265 OA
BRANCH  37  39
HETATM   39  O1  UNL     1      31.195  15.365 -38.053  1.00  0.00    -0.326 OA
HETATM   40  C1  UNL     1      32.097  14.383 -37.560  1.00  0.00     0.213 C
ENDBRANCH  37  39
ENDBRANCH  36  37
ENDBRANCH  35  36
BRANCH  35  41
HETATM   41  C15 UNL     1      31.049  19.510 -37.036  1.00  0.00     0.197 C
HETATM   42  O5  UNL     1      30.002  20.254 -36.991  1.00  0.00    -0.646 OA
HETATM   43  O6  UNL     1      32.237  20.157 -36.775  1.00  0.00    -0.646 OA
ENDBRANCH  35  41
ENDBRANCH  33  35
ENDBRANCH  32  33
BRANCH  32  44
HETATM   44  O3  UNL     1      28.923  15.667 -36.109  1.00  0.00    -0.345 OA
ATOM     45  H3  UNL     1      28.067  15.311 -36.316  1.00  0.00     0.219 HD
ENDBRANCH  32  44
ENDBRANCH   1  32
TORSDOF 13
ENDMDL