MODEL 1
REMARK VINA RESULT: -8.559815287      0.000      0.000
REMARK  12 active torsions:
REMARK  status: ('A' for Active; 'I' for Inactive)
REMARK    1  A    between atoms: O1_2  and  N1_3
REMARK    2  A    between atoms: N3_12  and  C7_13
REMARK    3  A    between atoms: C7_13  and  N4_14
REMARK    4  A    between atoms: C7_13  and  C11_25
REMARK    5  A    between atoms: N4_14  and  O3_15
REMARK    6  A    between atoms: O3_15  and  C8_16
REMARK    7  A    between atoms: C8_16  and  O4_17
REMARK    8  A    between atoms: C8_16  and  C9_19
REMARK    9  A    between atoms: C9_19  and  O5_20
REMARK   10  A    between atoms: C9_19  and  C10_22
REMARK   11  A    between atoms: C10_22  and  O6_23
REMARK   12  A    between atoms: C15_32  and  N6_33
ROOT
HETATM    1  C7  UNL     1      30.347  16.087 -35.484  1.00  0.00     0.264 C
ENDROOT
BRANCH   1   2
HETATM    2  N3  UNL     1      29.870  17.412 -35.139  1.00  0.00    -0.076 N
HETATM    3  C2  UNL     1      29.912  18.400 -36.023  1.00  0.00     0.715 A
HETATM    4  N1  UNL     1      30.377  18.324 -37.225  1.00  0.00    -0.096 N
HETATM    5  N2  UNL     1      29.404  19.620 -35.621  1.00  0.00    -0.195 N
ATOM      6  H1  UNL     1      30.350  19.156 -37.816  1.00  0.00     0.213 HD
HETATM    7  C3  UNL     1      29.430  20.721 -36.550  1.00  0.00     0.175 C
HETATM    8  C4  UNL     1      28.892  19.813 -34.404  1.00  0.00     0.114 A
HETATM    9  C5  UNL     1      28.854  18.781 -33.496  1.00  0.00     0.093 A
HETATM   10  C6  UNL     1      29.359  17.581 -33.905  1.00  0.00     0.270 A
HETATM   11  O2  UNL     1      29.350  16.596 -33.112  1.00  0.00    -0.267 OA
BRANCH   4  12
HETATM   12  O1  UNL     1      30.894  17.194 -37.725  1.00  0.00    -0.271 OA
HETATM   13  C1  UNL     1      31.661  17.036 -38.881  1.00  0.00     0.238 C
ENDBRANCH   4  12
ENDBRANCH   1   2
BRANCH   1  14
HETATM   14  N4  UNL     1      29.621  15.396 -36.171  1.00  0.00    -0.256 NA
BRANCH  14  15
HETATM   15  O3  UNL     1      28.779  14.754 -36.733  1.00  0.00    -0.172 OA
BRANCH  15  16
HETATM   16  C8  UNL     1      27.638  13.978 -36.572  1.00  0.00     0.332 C
BRANCH  16  17
HETATM   17  O4  UNL     1      26.468  14.693 -36.490  1.00  0.00    -0.366 OA
ATOM     18  H4  UNL     1      25.679  14.165 -36.524  1.00  0.00     0.212 HD
ENDBRANCH  16  17
BRANCH  16  19
HETATM   19  C9  UNL     1      27.845  13.163 -35.282  1.00  0.00     0.200 C
BRANCH  19  20
HETATM   20  O5  UNL     1      29.171  12.732 -35.219  1.00  0.00    -0.388 OA
ATOM     21  H5  UNL     1      29.610  13.175 -34.502  1.00  0.00     0.210 HD
ENDBRANCH  19  20
BRANCH  19  22
HETATM   22  C10 UNL     1      26.887  11.988 -35.228  1.00  0.00     0.201 C
BRANCH  22  23
HETATM   23  O6  UNL     1      26.974  11.357 -36.487  1.00  0.00    -0.398 OA
ATOM     24  H6  UNL     1      26.818  10.433 -36.328  1.00  0.00     0.209 HD
ENDBRANCH  22  23
ENDBRANCH  19  22
ENDBRANCH  16  19
ENDBRANCH  15  16
ENDBRANCH  14  15
ENDBRANCH   1  14
BRANCH   1  25
HETATM   25  C11 UNL     1      31.627  15.556 -35.017  1.00  0.00     0.099 A
HETATM   26  C12 UNL     1      31.756  14.230 -34.565  1.00  0.00     0.056 A
HETATM   27  C13 UNL     1      33.059  13.984 -34.194  1.00  0.00     0.080 A
HETATM   28  C14 UNL     1      33.755  12.913 -33.696  1.00  0.00     0.273 A
HETATM   29  C16 UNL     1      33.725  15.147 -34.416  1.00  0.00     0.139 A
HETATM   30  O7  UNL     1      33.107  11.841 -33.500  1.00  0.00    -0.267 OA
HETATM   31  N5  UNL     1      35.062  12.948 -33.415  1.00  0.00    -0.156 N
HETATM   32  C15 UNL     1      35.712  14.105 -33.637  1.00  0.00     0.680 A
ATOM     33  H5  UNL     1      35.547  12.130 -33.047  1.00  0.00     0.187 HD
HETATM   34  N7  UNL     1      35.041  15.166 -34.127  1.00  0.00    -0.176 N
ATOM     35  H7  UNL     1      35.557  16.030 -34.287  1.00  0.00     0.186 HD
HETATM   36  N8  UNL     1      32.842  16.058 -34.905  1.00  0.00    -0.332 N
HETATM   37  C17 UNL     1      33.258  17.391 -35.251  1.00  0.00     0.158 C
BRANCH  32  38
HETATM   38  N6  UNL     1      36.974  14.187 -33.380  1.00  0.00    -0.234 N
ATOM     39  H62 UNL     1      37.548  13.346 -33.319  1.00  0.00     0.174 HD
ATOM     40  H61 UNL     1      37.401  15.102 -33.237  1.00  0.00     0.174 HD
ENDBRANCH  32  38
ENDBRANCH   1  25
TORSDOF 12
ENDMDL