MODEL 1
REMARK VINA RESULT: -7.916417053      0.000      0.000
REMARK  12 active torsions:
REMARK  status: ('A' for Active; 'I' for Inactive)
REMARK    1  A    between atoms: N1_2  and  C2_4
REMARK    2  A    between atoms: C3_5  and  O1_6
REMARK    3  A    between atoms: C6_11  and  O3_12
REMARK    4  A    between atoms: O3_12  and  C7_13
REMARK    5  A    between atoms: C9_17  and  C10_18
REMARK    6  A    between atoms: N2_19  and  O6_21
REMARK    7  A    between atoms: C11_23  and  O7_24
REMARK    8  A    between atoms: C13_26  and  O8_27
REMARK    9  A    between atoms: O8_27  and  C14_28
REMARK   10  A    between atoms: C15_30  and  O10_31
REMARK   11  A    between atoms: C16_33  and  O11_34
REMARK   12  A    between atoms: C17_36  and  O12_37
ROOT
HETATM    1  C2  UNL     1      30.751  16.157 -36.727  1.00  0.00     0.145 C
HETATM    2  C3  UNL     1      30.130  14.811 -36.431  1.00  0.00     0.172 C
HETATM    3  C4  UNL     1      29.699  14.657 -35.007  1.00  0.00     0.151 C
HETATM    4  C5  UNL     1      29.184  13.248 -34.826  1.00  0.00     0.042 C
HETATM    5  O2  UNL     1      30.678  14.998 -34.086  1.00  0.00    -0.351 OA
HETATM    6  C6  UNL     1      31.899  15.287 -34.677  1.00  0.00     0.294 C
HETATM    7  C13 UNL     1      31.803  16.415 -35.677  1.00  0.00     0.205 C
ENDROOT
BRANCH   6   8
HETATM    8  O3  UNL     1      32.756  15.706 -33.668  1.00  0.00    -0.326 OA
BRANCH   8   9
HETATM    9  C7  UNL     1      33.754  14.797 -33.473  1.00  0.00     0.297 C
HETATM   10  O4  UNL     1      33.970  14.119 -34.669  1.00  0.00    -0.334 OA
HETATM   11  C8  UNL     1      35.132  13.378 -34.543  1.00  0.00     0.342 C
HETATM   12  O5  UNL     1      35.486  13.129 -33.224  1.00  0.00    -0.354 OA
HETATM   13  C9  UNL     1      35.948  14.270 -32.578  1.00  0.00     0.198 C
HETATM   14  C11 UNL     1      35.076  15.425 -33.077  1.00  0.00     0.210 C
BRANCH  13  15
HETATM   15  C10 UNL     1      37.371  14.499 -32.845  1.00  0.00     0.121 C
HETATM   16  N2  UNL     1      38.242  13.835 -32.181  1.00  0.00    -0.282 N
ATOM     17  H2  UNL     1      37.892  13.172 -31.490  1.00  0.00     0.193 HD
BRANCH  16  18
HETATM   18  O6  UNL     1      39.586  13.935 -32.313  1.00  0.00    -0.290 OA
ATOM     19  H6  UNL     1      40.117  13.485 -32.961  1.00  0.00     0.244 HD
ENDBRANCH  16  18
ENDBRANCH  13  15
BRANCH  14  20
HETATM   20  O7  UNL     1      35.699  16.047 -34.145  1.00  0.00    -0.383 OA
HETATM   21  C12 UNL     1      35.819  17.428 -33.894  1.00  0.00     0.202 C
ENDBRANCH  14  20
ENDBRANCH   8   9
ENDBRANCH   6   8
BRANCH   7  22
HETATM   22  O8  UNL     1      31.535  17.638 -35.107  1.00  0.00    -0.346 OA
BRANCH  22  23
HETATM   23  C14 UNL     1      32.662  18.466 -35.099  1.00  0.00     0.295 C
HETATM   24  O9  UNL     1      33.332  18.413 -36.299  1.00  0.00    -0.326 OA
HETATM   25  C15 UNL     1      33.348  19.653 -36.881  1.00  0.00     0.291 C
HETATM   26  C16 UNL     1      33.184  20.683 -35.776  1.00  0.00     0.206 C
HETATM   27  C17 UNL     1      32.347  19.899 -34.785  1.00  0.00     0.207 C
BRANCH  25  28
HETATM   28  O10 UNL     1      34.556  19.814 -37.556  1.00  0.00    -0.368 OA
ATOM     29  H10 UNL     1      34.572  20.678 -37.951  1.00  0.00     0.212 HD
ENDBRANCH  25  28
BRANCH  26  30
HETATM   30  O11 UNL     1      34.452  20.956 -35.281  1.00  0.00    -0.388 OA
ATOM     31  H11 UNL     1      34.362  21.673 -34.664  1.00  0.00     0.210 HD
ENDBRANCH  26  30
BRANCH  27  32
HETATM   32  O12 UNL     1      31.008  20.226 -35.041  1.00  0.00    -0.388 OA
ATOM     33  H12 UNL     1      30.500  20.335 -34.247  1.00  0.00     0.210 HD
ENDBRANCH  27  32
ENDBRANCH  22  23
ENDBRANCH   7  22
BRANCH   1  34
HETATM   34  N1  UNL     1      29.709  17.131 -36.703  1.00  0.00    -0.398 N
HETATM   35  C1  UNL     1      29.780  18.139 -37.489  1.00  0.00     0.112 C
ATOM     36  H1  UNL     1      28.918  17.025 -36.067  1.00  0.00     0.158 HD
ENDBRANCH   1  34
BRANCH   2  37
HETATM   37  O1  UNL     1      28.981  14.715 -37.233  1.00  0.00    -0.391 OA
ATOM     38  H1  UNL     1      28.498  15.523 -37.111  1.00  0.00     0.210 HD
ENDBRANCH   2  37
TORSDOF 12
ENDMDL