MODEL 1
REMARK VINA RESULT: -7.903245533      0.000      0.000
REMARK  12 active torsions:
REMARK  status: ('A' for Active; 'I' for Inactive)
REMARK    1  A    between atoms: N1_1  and  C1_5
REMARK    2  A    between atoms: N2_9  and  C5_10
REMARK    3  A    between atoms: C6_13  and  N4_14
REMARK    4  A    between atoms: C10_18  and  C11_19
REMARK    5  A    between atoms: C11_19  and  O1_20
REMARK    6  A    between atoms: C13_27  and  C14_28
REMARK    7  A    between atoms: C14_28  and  O2_29
REMARK    8  A    between atoms: C14_28  and  C15_31
REMARK    9  A    between atoms: C15_31  and  O3_32
REMARK   10  A    between atoms: C15_31  and  N7_34
REMARK   11  A    between atoms: N7_34  and  C16_37
REMARK   12  A    between atoms: C18_39  and  N8_40
ROOT
HETATM    1  C5  UNL     1      26.996  19.081 -33.508  1.00  0.00     0.731 A
HETATM    2  N3  UNL     1      25.746  19.565 -33.610  1.00  0.00    -0.019 N
ATOM      3  H3  UNL     1      25.457  20.291 -32.954  1.00  0.00     0.203 HD
HETATM    4  C6  UNL     1      24.858  19.152 -34.522  1.00  0.00     0.710 A
HETATM    5  N5  UNL     1      25.301  18.180 -35.372  1.00  0.00    -0.019 N
ATOM      6  H5  UNL     1      24.663  17.830 -36.086  1.00  0.00     0.203 HD
HETATM    7  C12 UNL     1      26.540  17.664 -35.312  1.00  0.00     0.734 A
HETATM    8  N6  UNL     1      27.223  16.726 -36.009  1.00  0.00    -0.173 N
ATOM      9  H6  UNL     1      26.844  16.194 -36.792  1.00  0.00     0.185 HD
HETATM   10  C13 UNL     1      28.462  16.593 -35.529  1.00  0.00     0.146 A
HETATM   11  N9  UNL     1      28.540  17.472 -34.510  1.00  0.00    -0.250 N
ATOM     12  H9  UNL     1      29.364  17.618 -33.927  1.00  0.00     0.190 HD
HETATM   13  N10 UNL     1      27.396  18.114 -34.377  1.00  0.00     0.092 N
ENDROOT
BRANCH  10  14
HETATM   14  C14 UNL     1      29.580  15.680 -35.963  1.00  0.00     0.243 C
BRANCH  14  15
HETATM   15  O2  UNL     1      29.222  15.140 -37.227  1.00  0.00    -0.383 OA
ATOM     16  H2  UNL     1      29.947  14.601 -37.521  1.00  0.00     0.210 HD
ENDBRANCH  14  15
BRANCH  14  17
HETATM   17  C15 UNL     1      29.665  14.516 -35.011  1.00  0.00     0.355 C
BRANCH  17  18
HETATM   18  O3  UNL     1      28.423  14.361 -34.394  1.00  0.00    -0.367 OA
ATOM     19  H3  UNL     1      28.567  14.154 -33.478  1.00  0.00     0.212 HD
ENDBRANCH  17  18
BRANCH  17  20
HETATM   20  N7  UNL     1      30.685  14.762 -34.027  1.00  0.00    -0.040 N
ATOM     21  H72 UNL     1      30.858  15.757 -33.887  1.00  0.00     0.280 HD
ATOM     22  H71 UNL     1      30.374  14.537 -33.082  1.00  0.00     0.280 HD
BRANCH  20  23
HETATM   23  C16 UNL     1      31.884  14.040 -34.400  1.00  0.00     0.221 A
HETATM   24  C17 UNL     1      32.572  13.195 -33.391  1.00  0.00     0.070 A
HETATM   25  C18 UNL     1      31.728  12.557 -34.498  1.00  0.00     0.216 A
BRANCH  25  26
HETATM   26  N8  UNL     1      32.475  11.882 -35.556  1.00  0.00    -0.073 N
ATOM     27  H83 UNL     1      32.162  12.223 -36.465  1.00  0.00     0.274 HD
ATOM     28  H82 UNL     1      33.441  12.211 -35.554  1.00  0.00     0.274 HD
ATOM     29  H81 UNL     1      32.463  10.863 -35.552  1.00  0.00     0.274 HD
ENDBRANCH  25  26
ENDBRANCH  20  23
ENDBRANCH  17  20
ENDBRANCH  14  17
ENDBRANCH  10  14
BRANCH   1  30
HETATM   30  N2  UNL     1      27.925  19.517 -32.523  1.00  0.00    -0.213 N
HETATM   31  C4  UNL     1      27.593  19.284 -31.108  1.00  0.00     0.141 C
HETATM   32  C3  UNL     1      28.837  18.675 -30.495  1.00  0.00     0.022 C
HETATM   33  C2  UNL     1      29.860  19.815 -30.471  1.00  0.00     0.036 C
HETATM   34  C1  UNL     1      30.220  20.194 -31.860  1.00  0.00     0.202 C
HETATM   35  C19 UNL     1      29.151  20.172 -32.880  1.00  0.00     0.173 C
BRANCH  34  36
HETATM   36  N1  UNL     1      31.425  19.453 -32.261  1.00  0.00    -0.073 N
ATOM     37  H13 UNL     1      32.237  19.695 -31.693  1.00  0.00     0.274 HD
ATOM     38  H12 UNL     1      31.371  18.464 -32.018  1.00  0.00     0.274 HD
ATOM     39  H11 UNL     1      31.589  19.601 -33.256  1.00  0.00     0.274 HD
ENDBRANCH  34  36
ENDBRANCH   1  30
BRANCH   4  40
HETATM   40  N4  UNL     1      23.544  19.661 -34.638  1.00  0.00    -0.210 N
HETATM   41  C7  UNL     1      22.373  18.774 -34.740  1.00  0.00     0.142 C
HETATM   42  C8  UNL     1      21.163  19.640 -34.801  1.00  0.00     0.022 C
HETATM   43  C9  UNL     1      21.728  20.908 -35.418  1.00  0.00     0.029 C
HETATM   44  C10 UNL     1      23.065  20.993 -34.680  1.00  0.00     0.125 C
BRANCH  44  45
HETATM   45  C11 UNL     1      23.902  21.957 -35.469  1.00  0.00     0.190 C
BRANCH  45  46
HETATM   46  O1  UNL     1      24.943  22.505 -34.745  1.00  0.00    -0.399 OA
ATOM     47  H1  UNL     1      25.575  22.971 -35.280  1.00  0.00     0.209 HD
ENDBRANCH  45  46
ENDBRANCH  44  45
ENDBRANCH   4  40
TORSDOF 12
ENDMDL