MODEL 4
REMARK VINA RESULT: -8.669284091      2.515     10.104
REMARK  9 active torsions:
REMARK  status: ('A' for Active; 'I' for Inactive)
REMARK    1  A    between atoms: N1_1  and  C1_4
REMARK    2  A    between atoms: C3_10  and  N4_11
REMARK       I    between atoms: N5_14  and  C6_15
REMARK    3  A    between atoms: C6_15  and  C7_17
REMARK    4  A    between atoms: C7_17  and  N6_18
REMARK    5  A    between atoms: N12_34  and  N13_35
REMARK    6  A    between atoms: N13_35  and  C13_37
REMARK    7  A    between atoms: C13_37  and  C14_38
REMARK    8  A    between atoms: C14_38  and  C15_39
REMARK    9  A    between atoms: N14_40  and  O3_42
ROOT
HETATM    1  C1  UNL     1      26.387  17.463 -35.412  1.00  0.00     0.714 A
HETATM    2  N2  UNL     1      27.140  16.375 -35.764  1.00  0.00    -0.170 N
ATOM      3  H2  UNL     1      26.735  15.684 -36.397  1.00  0.00     0.186 HD
HETATM    4  C2  UNL     1      28.385  16.178 -35.314  1.00  0.00     0.182 A
HETATM    5  N3  UNL     1      29.323  15.231 -35.488  1.00  0.00    -0.172 N
ATOM      6  H3  UNL     1      29.227  14.398 -36.070  1.00  0.00     0.186 HD
HETATM    7  C3  UNL     1      30.403  15.560 -34.772  1.00  0.00     0.683 A
HETATM    8  N10 UNL     1      30.133  16.719 -34.150  1.00  0.00    -0.171 N
ATOM      9  H10 UNL     1      30.777  17.212 -33.532  1.00  0.00     0.186 HD
HETATM   10  C12 UNL     1      28.880  17.143 -34.461  1.00  0.00     0.183 A
HETATM   11  N11 UNL     1      28.131  18.182 -34.137  1.00  0.00    -0.246 N
ATOM     12  H11 UNL     1      28.530  18.876 -33.504  1.00  0.00     0.191 HD
HETATM   13  N12 UNL     1      26.869  18.392 -34.586  1.00  0.00    -0.023 N
ENDROOT
BRANCH   7  14
HETATM   14  N4  UNL     1      31.635  14.810 -34.679  1.00  0.00    -0.214 N
HETATM   15  C4  UNL     1      32.289  14.466 -35.907  1.00  0.00     0.161 C
HETATM   16  C5  UNL     1      33.076  13.204 -35.802  1.00  0.00     0.146 C
HETATM   17  N5  UNL     1      33.774  13.265 -34.506  1.00  0.00    -0.348 N
HETATM   18  C6  UNL     1      35.152  13.411 -34.419  1.00  0.00     0.239 C
HETATM   19  C10 UNL     1      32.928  13.170 -33.359  1.00  0.00     0.146 C
HETATM   20  O1  UNL     1      35.877  13.505 -35.475  1.00  0.00    -0.271 OA
HETATM   21  C11 UNL     1      32.108  14.474 -33.350  1.00  0.00     0.161 C
BRANCH  18  22
HETATM   22  C7  UNL     1      35.858  13.467 -33.126  1.00  0.00     0.257 C
BRANCH  22  23
HETATM   23  N6  UNL     1      36.624  14.703 -33.089  1.00  0.00    -0.231 N
HETATM   24  N7  UNL     1      36.314  15.929 -33.463  1.00  0.00    -0.267 N
HETATM   25  C8  UNL     1      37.344  16.762 -33.244  1.00  0.00     0.211 A
ATOM     26  H7  UNL     1      35.417  16.205 -33.862  1.00  0.00     0.190 HD
HETATM   27  N8  UNL     1      37.384  18.170 -33.524  1.00  0.00    -0.062 NA
HETATM   28  N9  UNL     1      38.337  16.027 -32.714  1.00  0.00    -0.280 N
HETATM   29  C9  UNL     1      37.892  14.770 -32.621  1.00  0.00     0.344 A
ATOM     30  H9  UNL     1      39.257  16.366 -32.434  1.00  0.00     0.173 HD
HETATM   31  O2  UNL     1      38.553  13.797 -32.166  1.00  0.00    -0.245 OA
ENDBRANCH  22  23
ENDBRANCH  18  22
ENDBRANCH   7  14
BRANCH   1  32
HETATM   32  N1  UNL     1      25.209  17.595 -35.916  1.00  0.00    -0.231 N
ATOM     33  H12 UNL     1      24.999  17.204 -36.834  1.00  0.00     0.174 HD
ATOM     34  H11 UNL     1      24.491  18.073 -35.372  1.00  0.00     0.174 HD
ENDBRANCH   1  32
BRANCH  13  35
HETATM   35  N13 UNL     1      26.192  19.513 -34.128  1.00  0.00    -0.300 N
ATOM     36  H13 UNL     1      25.874  20.166 -34.844  1.00  0.00     0.182 HD
BRANCH  35  37
HETATM   37  C13 UNL     1      25.888  19.866 -32.794  1.00  0.00     0.147 C
BRANCH  37  38
HETATM   38  C14 UNL     1      27.068  20.316 -31.952  1.00  0.00     0.067 C
BRANCH  38  39
HETATM   39  C15 UNL     1      27.317  19.229 -30.981  1.00  0.00     0.088 C
HETATM   40  N14 UNL     1      28.519  18.899 -30.709  1.00  0.00    -0.284 N
ATOM     41  H14 UNL     1      29.271  19.405 -31.178  1.00  0.00     0.192 HD
BRANCH  40  42
HETATM   42  O3  UNL     1      28.863  17.907 -29.826  1.00  0.00    -0.291 OA
ATOM     43  H3  UNL     1      29.548  17.268 -29.984  1.00  0.00     0.244 HD
ENDBRANCH  40  42
ENDBRANCH  38  39
ENDBRANCH  37  38
ENDBRANCH  35  37
ENDBRANCH  13  35
TORSDOF 9
ENDMDL