MODEL 5
REMARK VINA RESULT: -8.333328461      1.333      2.876
REMARK  11 active torsions:
REMARK  status: ('A' for Active; 'I' for Inactive)
REMARK    1  A    between atoms: C2_2  and  C3_3
REMARK    2  A    between atoms: C3_3  and  N1_4
REMARK    3  A    between atoms: C5_6  and  C6_7
REMARK    4  A    between atoms: C6_7  and  N2_9
REMARK    5  A    between atoms: N2_9  and  N3_11
REMARK       I    between atoms: N3_11  and  C7_13
REMARK    6  A    between atoms: C7_13  and  C8_15
REMARK    7  A    between atoms: N6_20  and  C9_21
REMARK    8  A    between atoms: C10_27  and  N9_28
REMARK    9  A    between atoms: C11_33  and  N11_34
REMARK   10  A    between atoms: N12_37  and  C12_38
REMARK   11  A    between atoms: C12_38  and  C13_39
REMARK       I    between atoms: C13_39  and  N13_41
ROOT
HETATM    1  N3  UNL     1      31.951  12.561 -35.218  1.00  0.00    -0.262 N
ATOM      2  H3  UNL     1      32.399  12.627 -36.132  1.00  0.00     0.190 HD
HETATM    3  C7  UNL     1      32.692  12.758 -34.033  1.00  0.00     0.306 C
HETATM    4  O1  UNL     1      32.182  12.685 -32.887  1.00  0.00    -0.262 OA
ENDROOT
BRANCH   1   5
HETATM    5  N2  UNL     1      30.583  12.273 -35.108  1.00  0.00    -0.287 N
ATOM      6  H2  UNL     1      30.290  11.298 -35.042  1.00  0.00     0.188 HD
BRANCH   5   7
HETATM    7  C6  UNL     1      29.594  13.289 -35.085  1.00  0.00     0.130 C
HETATM    8  S1  UNL     1      28.033  12.947 -34.752  1.00  0.00    -0.058 SA
BRANCH   7   9
HETATM    9  C5  UNL     1      29.921  14.690 -35.360  1.00  0.00     0.065 A
HETATM   10  C4  UNL     1      29.810  15.368 -36.556  1.00  0.00     0.129 A
HETATM   11  N1  UNL     1      30.216  16.668 -36.407  1.00  0.00    -0.298 N
HETATM   12  N12 UNL     1      30.573  16.805 -35.156  1.00  0.00    -0.266 N
HETATM   13  C11 UNL     1      30.412  15.632 -34.481  1.00  0.00     0.131 A
BRANCH  11  14
HETATM   14  C3  UNL     1      30.202  17.647 -37.474  1.00  0.00     0.148 C
BRANCH  14  15
HETATM   15  C2  UNL     1      31.286  17.467 -38.478  1.00  0.00     0.017 C
HETATM   16  C1  UNL     1      32.236  18.663 -38.300  1.00  0.00     0.007 C
ENDBRANCH  14  15
ENDBRANCH  11  14
BRANCH  12  17
HETATM   17  C12 UNL     1      31.059  18.015 -34.526  1.00  0.00     0.253 C
BRANCH  17  18
HETATM   18  C13 UNL     1      29.987  18.694 -33.750  1.00  0.00     0.237 C
HETATM   19  O3  UNL     1      28.879  18.967 -34.318  1.00  0.00    -0.272 OA
HETATM   20  N13 UNL     1      30.195  19.034 -32.393  1.00  0.00    -0.364 N
HETATM   21  C14 UNL     1      29.134  19.696 -31.660  1.00  0.00     0.149 C
ATOM     22  H13 UNL     1      31.081  18.817 -31.936  1.00  0.00     0.161 HD
ENDBRANCH  17  18
ENDBRANCH  12  17
BRANCH  13  23
HETATM   23  N11 UNL     1      30.665  15.406 -33.228  1.00  0.00    -0.383 N
ATOM     24 2H11 UNL     1      30.049  14.970 -32.544  1.00  0.00     0.157 HD
ATOM     25 1H11 UNL     1      31.542  15.645 -32.764  1.00  0.00     0.157 HD
ENDBRANCH  13  23
ENDBRANCH   7   9
ENDBRANCH   5   7
ENDBRANCH   1   5
BRANCH   3  26
HETATM   26  C8  UNL     1      34.112  13.059 -34.138  1.00  0.00     0.208 A
HETATM   27  N4  UNL     1      34.999  12.544 -35.031  1.00  0.00    -0.264 N
HETATM   28  N5  UNL     1      36.176  13.062 -34.796  1.00  0.00    -0.218 N
ATOM     29  H4  UNL     1      34.782  11.866 -35.762  1.00  0.00     0.190 HD
HETATM   30  N6  UNL     1      36.115  13.914 -33.771  1.00  0.00    -0.158 N
ATOM     31  H5  UNL     1      37.022  12.846 -35.323  1.00  0.00     0.210 HD
HETATM   32  N10 UNL     1      34.854  13.898 -33.385  1.00  0.00    -0.255 N
ATOM     33  H10 UNL     1      34.485  14.452 -32.613  1.00  0.00     0.191 HD
BRANCH  30  34
HETATM   34  C9  UNL     1      37.205  14.659 -33.239  1.00  0.00     0.214 A
HETATM   35  N7  UNL     1      38.285  14.150 -32.582  1.00  0.00    -0.219 N
HETATM   36  O2  UNL     1      39.086  15.114 -32.235  1.00  0.00    -0.153 OA
ATOM     37  H7  UNL     1      38.441  13.160 -32.392  1.00  0.00     0.198 HD
HETATM   38  N8  UNL     1      38.593  16.258 -32.630  1.00  0.00    -0.222 N
HETATM   39  C10 UNL     1      37.423  16.021 -33.260  1.00  0.00     0.171 A
ATOM     40  H8  UNL     1      39.021  17.173 -32.487  1.00  0.00     0.198 HD
BRANCH  39  41
HETATM   41  N9  UNL     1      36.640  16.896 -33.789  1.00  0.00    -0.381 N
ATOM     42  H92 UNL     1      35.872  17.386 -33.330  1.00  0.00     0.157 HD
ATOM     43  H91 UNL     1      36.682  17.221 -34.755  1.00  0.00     0.157 HD
ENDBRANCH  39  41
ENDBRANCH  30  34
ENDBRANCH   3  26
TORSDOF 11
ENDMDL