MODEL 1
REMARK VINA RESULT: -7.372535927      0.000      0.000
REMARK  13 active torsions:
REMARK  status: ('A' for Active; 'I' for Inactive)
REMARK    1  A    between atoms: C2_2  and  O1_3
REMARK    2  A    between atoms: C2_2  and  C3_5
REMARK    3  A    between atoms: C3_5  and  O2_6
REMARK    4  A    between atoms: C3_5  and  C4_8
REMARK    5  A    between atoms: C4_8  and  O3_9
REMARK    6  A    between atoms: C4_8  and  C5_11
REMARK    7  A    between atoms: C5_11  and  S1_13
REMARK    8  A    between atoms: S1_13  and  C7_14
REMARK    9  A    between atoms: C8_16  and  N1_17
REMARK   10  A    between atoms: N1_17  and  C9_19
REMARK   11  A    between atoms: C10_22  and  N3_23
REMARK   12  A    between atoms: N5_27  and  N6_28
REMARK   13  A    between atoms: N7_33  and  O6_34
ROOT
HETATM    1  N3  UNL     1      35.764  13.486 -33.771  1.00  0.00    -0.123 N
ATOM      2  H3  UNL     1      35.792  12.924 -32.921  1.00  0.00     0.197 HD
HETATM    3  C11 UNL     1      35.301  12.863 -34.925  1.00  0.00     0.196 C
HETATM    4  N4  UNL     1      34.923  12.357 -35.905  1.00  0.00    -0.171 NA
ENDROOT
BRANCH   1   5
HETATM    5  C10 UNL     1      36.158  14.699 -33.677  1.00  0.00     0.731 A
HETATM    6  N2  UNL     1      35.415  15.755 -34.098  1.00  0.00    -0.017 N
HETATM    7  C9  UNL     1      35.861  17.018 -33.995  1.00  0.00     0.727 A
ATOM      8  H2  UNL     1      34.494  15.586 -34.503  1.00  0.00     0.203 HD
HETATM    9  N7  UNL     1      37.067  17.271 -33.466  1.00  0.00     0.007 N
HETATM   10  C12 UNL     1      37.797  16.220 -33.051  1.00  0.00     0.401 A
HETATM   11  N5  UNL     1      37.365  14.940 -33.148  1.00  0.00    -0.034 N
HETATM   12  O5  UNL     1      38.939  16.421 -32.547  1.00  0.00    -0.241 OA
BRANCH   7  13
HETATM   13  N1  UNL     1      35.064  18.127 -34.439  1.00  0.00    -0.173 N
ATOM     14  H1  UNL     1      35.140  19.028 -33.966  1.00  0.00     0.183 HD
BRANCH  13  15
HETATM   15  C8  UNL     1      34.150  17.972 -35.556  1.00  0.00     0.388 C
HETATM   16  O4  UNL     1      33.050  17.314 -35.125  1.00  0.00    -0.325 OA
HETATM   17  C7  UNL     1      31.886  18.055 -35.448  1.00  0.00     0.222 C
HETATM   18  C13 UNL     1      32.419  19.146 -36.309  1.00  0.00     0.094 C
HETATM   19  O7  UNL     1      33.807  19.177 -36.075  1.00  0.00    -0.330 OA
HETATM   20  C14 UNL     1      32.264  18.928 -37.790  1.00  0.00     0.049 C
HETATM   21  C15 UNL     1      31.961  20.543 -35.865  1.00  0.00     0.049 C
BRANCH  17  22
HETATM   22  S1  UNL     1      30.758  16.905 -36.146  1.00  0.00    -0.127 SA
BRANCH  22  23
HETATM   23  C5  UNL     1      31.235  15.508 -37.052  1.00  0.00     0.077 C
HETATM   24  C6  UNL     1      31.746  15.766 -38.454  1.00  0.00     0.024 C
BRANCH  23  25
HETATM   25  C4  UNL     1      32.163  14.529 -36.390  1.00  0.00     0.163 C
BRANCH  25  26
HETATM   26  C3  UNL     1      31.374  13.510 -35.538  1.00  0.00     0.176 C
BRANCH  26  27
HETATM   27  C2  UNL     1      31.678  13.812 -34.079  1.00  0.00     0.145 C
HETATM   28  C1  UNL     1      32.206  12.510 -33.481  1.00  0.00     0.042 C
BRANCH  27  29
HETATM   29  O1  UNL     1      32.699  14.767 -34.014  1.00  0.00    -0.393 OA
ATOM     30  H1  UNL     1      32.510  15.445 -34.652  1.00  0.00     0.210 HD
ENDBRANCH  27  29
ENDBRANCH  26  27
BRANCH  26  31
HETATM   31  O2  UNL     1      31.727  12.216 -35.778  1.00  0.00    -0.390 OA
ATOM     32  H2  UNL     1      31.518  12.021 -36.684  1.00  0.00     0.210 HD
ENDBRANCH  26  31
ENDBRANCH  25  26
BRANCH  25  33
HETATM   33  O3  UNL     1      32.909  13.766 -37.302  1.00  0.00    -0.392 OA
ATOM     34  H3  UNL     1      32.272  13.284 -37.816  1.00  0.00     0.210 HD
ENDBRANCH  25  33
ENDBRANCH  23  25
ENDBRANCH  22  23
ENDBRANCH  17  22
ENDBRANCH  13  15
ENDBRANCH   7  13
BRANCH   9  35
HETATM   35  O6  UNL     1      37.541  18.550 -33.354  1.00  0.00    -0.265 OA
ATOM     36  H6  UNL     1      38.103  18.929 -34.020  1.00  0.00     0.246 HD
ENDBRANCH   9  35
BRANCH  11  37
HETATM   37  N6  UNL     1      38.139  13.851 -32.709  1.00  0.00    -0.320 N
ATOM     38  H62 UNL     1      37.736  12.930 -32.538  1.00  0.00     0.178 HD
ATOM     39  H61 UNL     1      39.139  13.990 -32.561  1.00  0.00     0.178 HD
ENDBRANCH  11  37
ENDBRANCH   1   5
TORSDOF 13
ENDMDL