MODEL 4
REMARK VINA RESULT: -7.025853295      1.435      1.744
REMARK  14 active torsions:
REMARK  status: ('A' for Active; 'I' for Inactive)
REMARK    1  A    between atoms: O1_2  and  C2_3
REMARK    2  A    between atoms: C3_5  and  C4_6
REMARK    3  A    between atoms: C4_6  and  S1_7
REMARK    4  A    between atoms: N1_12  and  C8_13
REMARK    5  A    between atoms: C9_15  and  O4_16
REMARK    6  A    between atoms: C9_15  and  C10_18
REMARK    7  A    between atoms: C10_18  and  O5_19
REMARK    8  A    between atoms: C11_21  and  O6_22
REMARK    9  A    between atoms: C12_24  and  O7_25
REMARK   10  A    between atoms: C12_24  and  C13_27
REMARK   11  A    between atoms: C13_27  and  O8_28
REMARK   12  A    between atoms: C14_30  and  O9_31
REMARK   13  A    between atoms: O9_31  and  N2_32
REMARK   14  A    between atoms: N2_32  and  O10_36
ROOT
HETATM    1  C8  UNL     1      32.974  15.385 -33.812  1.00  0.00     0.399 C
HETATM    2  O3  UNL     1      34.340  15.573 -33.917  1.00  0.00    -0.313 OA
HETATM    3  C9  UNL     1      35.087  14.555 -33.357  1.00  0.00     0.215 C
HETATM    4  C11 UNL     1      34.671  13.180 -33.713  1.00  0.00     0.222 C
HETATM    5  C12 UNL     1      33.173  12.992 -33.675  1.00  0.00     0.142 C
HETATM    6  C14 UNL     1      32.591  14.121 -34.541  1.00  0.00     0.255 C
ENDROOT
BRANCH   1   7
HETATM    7  N1  UNL     1      32.291  16.562 -34.181  1.00  0.00     0.146 N
HETATM    8  C6  UNL     1      32.918  17.808 -34.482  1.00  0.00     0.300 A
HETATM    9  C3  UNL     1      32.290  19.104 -34.015  1.00  0.00     0.171 C
HETATM   10  C7  UNL     1      32.194  17.077 -35.502  1.00  0.00     0.329 A
HETATM   11  O2  UNL     1      30.973  18.994 -33.659  1.00  0.00    -0.344 OA
HETATM   12  C2  UNL     1      30.078  18.957 -34.699  1.00  0.00     0.327 C
HETATM   13  S2  UNL     1      30.574  17.748 -35.944  1.00  0.00    -0.071 SA
BRANCH   9  14
HETATM   14  C4  UNL     1      32.524  20.219 -35.008  1.00  0.00     0.108 C
BRANCH  14  15
HETATM   15  S1  UNL     1      34.169  20.116 -35.754  1.00  0.00    -0.171 SA
HETATM   16  C5  UNL     1      34.055  19.900 -37.547  1.00  0.00     0.089 C
ENDBRANCH  14  15
ENDBRANCH   9  14
BRANCH  12  17
HETATM   17  O1  UNL     1      28.834  18.559 -34.205  1.00  0.00    -0.357 OA
HETATM   18  C1  UNL     1      28.755  17.169 -34.084  1.00  0.00     0.206 C
ENDBRANCH  12  17
ENDBRANCH   1   7
BRANCH   6  19
HETATM   19  O9  UNL     1      33.230  14.001 -35.790  1.00  0.00    -0.226 OA
BRANCH  19  20
HETATM   20  N2  UNL     1      32.571  13.696 -36.947  1.00  0.00    -0.061 N
HETATM   21  N3  UNL     1      31.351  13.953 -37.156  1.00  0.00    -0.298 N
ATOM     22  H32 UNL     1      30.869  14.415 -36.385  1.00  0.00     0.181 HD
ATOM     23  H31 UNL     1      30.859  13.725 -38.020  1.00  0.00     0.181 HD
BRANCH  20  24
HETATM   24  O10 UNL     1      33.228  13.066 -37.998  1.00  0.00    -0.248 OA
ATOM     25  H10 UNL     1      32.786  12.413 -38.526  1.00  0.00     0.249 HD
ENDBRANCH  20  24
ENDBRANCH  19  20
ENDBRANCH   6  19
BRANCH   3  26
HETATM   26  O4  UNL     1      35.134  14.654 -31.955  1.00  0.00    -0.362 OA
ATOM     27  H4  UNL     1      34.674  13.937 -31.536  1.00  0.00     0.213 HD
ENDBRANCH   3  26
BRANCH   3  28
HETATM   28  C10 UNL     1      36.514  14.758 -33.828  1.00  0.00     0.235 C
BRANCH  28  29
HETATM   29  O5  UNL     1      37.369  13.888 -33.179  1.00  0.00    -0.395 OA
ATOM     30  H5  UNL     1      38.097  14.360 -32.794  1.00  0.00     0.209 HD
ENDBRANCH  28  29
ENDBRANCH   3  28
BRANCH   5  31
HETATM   31  O7  UNL     1      32.721  13.213 -32.398  1.00  0.00    -0.382 OA
ATOM     32  H7  UNL     1      32.151  12.498 -32.139  1.00  0.00     0.210 HD
ENDBRANCH   5  31
BRANCH   5  33
HETATM   33  C13 UNL     1      32.740  11.644 -34.119  1.00  0.00     0.207 C
BRANCH  33  34
HETATM   34  O8  UNL     1      31.492  11.760 -34.761  1.00  0.00    -0.398 OA
ATOM     35  H8  UNL     1      30.816  11.450 -34.170  1.00  0.00     0.209 HD
ENDBRANCH  33  34
ENDBRANCH   5  33
BRANCH   4  36
HETATM   36  O6  UNL     1      35.235  12.788 -34.900  1.00  0.00    -0.387 OA
ATOM     37  H6  UNL     1      36.061  12.342 -34.754  1.00  0.00     0.210 HD
ENDBRANCH   4  36
TORSDOF 14
ENDMDL