MODEL 2
REMARK VINA RESULT: -6.516079326      1.295      1.670
REMARK  13 active torsions:
REMARK  status: ('A' for Active; 'I' for Inactive)
REMARK    1  A    between atoms: C2_2  and  O1_3
REMARK    2  A    between atoms: O1_3  and  C3_4
REMARK    3  A    between atoms: C3_4  and  C6_7
REMARK    4  A    between atoms: C6_7  and  C7_8
REMARK    5  A    between atoms: C8_9  and  O2_10
REMARK    6  A    between atoms: O2_10  and  C9_11
REMARK    7  A    between atoms: C10_13  and  C11_14
REMARK    8  A    between atoms: C11_14  and  O4_15
REMARK    9  A    between atoms: C12_17  and  O5_18
REMARK   10  A    between atoms: C13_20  and  O6_21
REMARK   11  A    between atoms: C14_23  and  O7_24
REMARK   12  A    between atoms: O7_24  and  N1_25
REMARK   13  A    between atoms: C21_35  and  O9_36
ROOT
HETATM    1  C7  UNL     1       0.176  82.041  24.455  1.00  0.00     0.049 C
HETATM    2  C8  UNL     1      -0.556  83.294  23.960  1.00  0.00     0.132 C
HETATM    3  C15 UNL     1      -0.230  84.500  24.811  1.00  0.00     0.042 C
HETATM    4  C16 UNL     1       1.245  84.695  24.801  1.00  0.00     0.053 C
HETATM    5  C17 UNL     1       1.929  83.535  25.432  1.00  0.00     0.158 C
HETATM    6  O8  UNL     1       2.081  84.238  26.627  1.00  0.00    -0.372 OA
HETATM    7  C18 UNL     1       1.854  85.439  25.940  1.00  0.00     0.060 C
HETATM    8  C19 UNL     1       3.193  86.035  25.518  1.00  0.00     0.046 C
HETATM    9  C20 UNL     1       0.950  86.411  26.665  1.00  0.00     0.046 C
HETATM   10  C21 UNL     1       1.016  82.334  25.648  1.00  0.00     0.154 C
ENDROOT
BRANCH   2  11
HETATM   11  O2  UNL     1      -0.174  83.623  22.651  1.00  0.00    -0.353 OA
BRANCH  11  12
HETATM   12  C9  UNL     1      -1.294  83.789  21.820  1.00  0.00     0.294 C
HETATM   13  O3  UNL     1      -0.965  84.721  20.874  1.00  0.00    -0.348 OA
HETATM   14  C10 UNL     1      -1.845  84.903  19.847  1.00  0.00     0.179 C
HETATM   15  C12 UNL     1      -2.487  83.677  19.303  1.00  0.00     0.180 C
HETATM   16  C13 UNL     1      -2.787  82.615  20.306  1.00  0.00     0.185 C
HETATM   17  C14 UNL     1      -1.522  82.439  21.158  1.00  0.00     0.237 C
BRANCH  14  18
HETATM   18  C11 UNL     1      -2.908  85.958  20.168  1.00  0.00     0.198 C
BRANCH  18  19
HETATM   19  O4  UNL     1      -2.419  86.988  20.933  1.00  0.00    -0.398 OA
ATOM     20  H4  UNL     1      -2.926  87.131  21.724  1.00  0.00     0.209 HD
ENDBRANCH  18  19
ENDBRANCH  14  18
BRANCH  15  21
HETATM   21  O5  UNL     1      -3.707  84.069  18.709  1.00  0.00    -0.390 OA
ATOM     22  H5  UNL     1      -4.299  84.309  19.412  1.00  0.00     0.210 HD
ENDBRANCH  15  21
BRANCH  16  23
HETATM   23  O6  UNL     1      -2.955  81.407  19.596  1.00  0.00    -0.390 OA
ATOM     24  H6  UNL     1      -2.324  80.788  19.945  1.00  0.00     0.210 HD
ENDBRANCH  16  23
BRANCH  17  25
HETATM   25  O7  UNL     1      -0.495  82.136  20.264  1.00  0.00    -0.274 OA
BRANCH  25  26
HETATM   26  N1  UNL     1       0.218  81.059  20.652  1.00  0.00    -0.310 N
ATOM     27  H12 UNL     1       1.237  81.057  20.707  1.00  0.00     0.184 HD
ATOM     28  H11 UNL     1      -0.377  80.261  20.878  1.00  0.00     0.184 HD
ENDBRANCH  25  26
ENDBRANCH  17  25
ENDBRANCH  11  12
ENDBRANCH   2  11
BRANCH   1  29
HETATM   29  C6  UNL     1      -0.859  81.018  24.725  1.00  0.00     0.047 C
BRANCH  29  30
HETATM   30  C3  UNL     1      -0.804  79.737  23.989  1.00  0.00     0.054 C
HETATM   31  C4  UNL     1      -0.776  78.623  25.052  1.00  0.00     0.045 C
HETATM   32  C5  UNL     1      -2.058  79.463  23.177  1.00  0.00     0.045 C
BRANCH  30  33
HETATM   33  O1  UNL     1       0.329  79.568  23.241  1.00  0.00    -0.381 OA
BRANCH  33  34
HETATM   34  C2  UNL     1       1.175  78.588  23.696  1.00  0.00     0.164 C
HETATM   35  C1  UNL     1       2.613  79.066  23.499  1.00  0.00     0.033 C
ENDBRANCH  33  34
ENDBRANCH  30  33
ENDBRANCH  29  30
ENDBRANCH   1  29
BRANCH  10  36
HETATM   36  O9  UNL     1       0.299  82.498  26.836  1.00  0.00    -0.393 OA
ATOM     37  H9  UNL     1      -0.076  83.363  26.953  1.00  0.00     0.210 HD
ENDBRANCH  10  36
TORSDOF 13
ENDMDL