MODEL 3
REMARK VINA RESULT: -6.344204735      3.459      6.064
REMARK  13 active torsions:
REMARK  status: ('A' for Active; 'I' for Inactive)
REMARK       I    between atoms: C2_2  and  N1_4
REMARK    1  A    between atoms: N1_4  and  C3_6
REMARK    2  A    between atoms: C4_7  and  O2_8
REMARK    3  A    between atoms: O2_8  and  C5_9
REMARK    4  A    between atoms: C5_9  and  C6_10
REMARK    5  A    between atoms: C6_10  and  O3_11
REMARK    6  A    between atoms: C10_16  and  N2_17
REMARK    7  A    between atoms: C11_21  and  O4_22
REMARK    8  A    between atoms: O4_22  and  C12_23
REMARK    9  A    between atoms: C13_25  and  C14_26
REMARK   10  A    between atoms: N3_27  and  C15_29
REMARK   11  A    between atoms: C19_33  and  O6_34
REMARK   12  A    between atoms: C20_36  and  N4_37
REMARK   13  A    between atoms: C21_41  and  O7_42
ROOT
HETATM    1  O4  UNL     1      -0.178  82.481  22.029  1.00  0.00    -0.349 OA
ENDROOT
BRANCH   1   2
HETATM    2  C11 UNL     1      -0.476  82.825  23.358  1.00  0.00     0.180 C
HETATM    3  C3  UNL     1      -0.290  84.294  23.457  1.00  0.00     0.144 C
HETATM    4  C4  UNL     1       0.288  84.906  24.663  1.00  0.00     0.150 C
HETATM    5  C7  UNL     1       1.226  83.987  25.461  1.00  0.00     0.015 C
HETATM    6  C8  UNL     1       2.575  83.904  24.835  1.00  0.00     0.012 C
HETATM    7  C9  UNL     1       0.513  82.694  25.640  1.00  0.00     0.042 C
HETATM    8  C10 UNL     1       0.250  81.994  24.340  1.00  0.00     0.215 C
BRANCH   3   9
HETATM    9  N1  UNL     1      -1.522  84.991  23.145  1.00  0.00    -0.352 N
HETATM   10  C2  UNL     1      -1.931  85.468  21.896  1.00  0.00     0.214 C
HETATM   11  C1  UNL     1      -3.242  86.183  21.723  1.00  0.00     0.117 C
HETATM   12  O1  UNL     1      -1.221  85.316  20.878  1.00  0.00    -0.274 OA
ATOM     13  H1  UNL     1      -2.161  85.153  23.923  1.00  0.00     0.163 HD
ENDBRANCH   3   9
BRANCH   4  14
HETATM   14  O2  UNL     1      -0.578  85.453  25.546  1.00  0.00    -0.381 OA
BRANCH  14  15
HETATM   15  C5  UNL     1      -0.084  86.290  26.479  1.00  0.00     0.194 C
BRANCH  15  16
HETATM   16  C6  UNL     1      -0.146  85.968  27.920  1.00  0.00     0.190 C
BRANCH  16  17
HETATM   17  O3  UNL     1       0.975  86.182  28.688  1.00  0.00    -0.399 OA
ATOM     18  H3  UNL     1       1.417  87.019  28.617  1.00  0.00     0.209 HD
ENDBRANCH  16  17
ENDBRANCH  15  16
ENDBRANCH  14  15
ENDBRANCH   4  14
BRANCH   8  19
HETATM   19  N2  UNL     1       1.559  81.573  23.830  1.00  0.00    -0.072 N
ATOM     20  H23 UNL     1       2.297  82.259  23.990  1.00  0.00     0.274 HD
ATOM     21  H22 UNL     1       1.978  80.813  24.368  1.00  0.00     0.274 HD
ATOM     22  H21 UNL     1       1.421  81.346  22.846  1.00  0.00     0.274 HD
ENDBRANCH   8  19
ENDBRANCH   1   2
BRANCH   1  23
HETATM   23  C12 UNL     1      -1.029  81.538  21.481  1.00  0.00     0.292 C
HETATM   24  O5  UNL     1      -2.143  82.060  20.911  1.00  0.00    -0.345 OA
HETATM   25  C13 UNL     1      -2.910  81.288  20.105  1.00  0.00     0.193 C
HETATM   26  C19 UNL     1      -2.148  80.383  19.165  1.00  0.00     0.185 C
HETATM   27  C20 UNL     1      -1.046  79.631  19.846  1.00  0.00     0.248 C
HETATM   28  C21 UNL     1      -0.205  80.647  20.583  1.00  0.00     0.206 C
BRANCH  25  29
HETATM   29  C14 UNL     1      -3.754  80.413  20.957  1.00  0.00     0.090 C
HETATM   30  N3  UNL     1      -4.709  80.837  21.650  1.00  0.00    -0.392 N
ATOM     31  H3  UNL     1      -4.900  81.838  21.611  1.00  0.00     0.159 HD
BRANCH  30  32
HETATM   32  C15 UNL     1      -5.542  80.058  22.475  1.00  0.00     0.018 C
HETATM   33  C16 UNL     1      -5.219  80.106  23.930  1.00  0.00     0.037 C
HETATM   34  C17 UNL     1      -6.979  80.578  22.318  1.00  0.00     0.037 C
HETATM   35  C18 UNL     1      -5.600  78.594  22.026  1.00  0.00     0.037 C
ENDBRANCH  30  32
ENDBRANCH  25  29
BRANCH  26  36
HETATM   36  O6  UNL     1      -2.954  79.489  18.506  1.00  0.00    -0.390 OA
ATOM     37  H6  UNL     1      -3.327  78.831  19.080  1.00  0.00     0.210 HD
ENDBRANCH  26  36
BRANCH  27  38
HETATM   38  N4  UNL     1      -1.502  78.555  20.663  1.00  0.00    -0.070 N
ATOM     39  H43 UNL     1      -1.824  78.902  21.567  1.00  0.00     0.274 HD
ATOM     40  H42 UNL     1      -2.379  78.177  20.303  1.00  0.00     0.274 HD
ATOM     41  H41 UNL     1      -0.815  77.812  20.788  1.00  0.00     0.274 HD
ENDBRANCH  27  38
BRANCH  28  42
HETATM   42  O7  UNL     1       0.759  79.936  21.277  1.00  0.00    -0.388 OA
ATOM     43  H7  UNL     1       0.869  79.052  20.947  1.00  0.00     0.210 HD
ENDBRANCH  28  42
ENDBRANCH   1  23
TORSDOF 13
ENDMDL