MODEL 1
REMARK VINA RESULT: -7.253832358      0.000      0.000
REMARK  11 active torsions:
REMARK  status: ('A' for Active; 'I' for Inactive)
REMARK    1  A    between atoms: C3_4  and  O2_5
REMARK    2  A    between atoms: O2_5  and  C4_6
REMARK    3  A    between atoms: C5_7  and  N1_8
REMARK    4  A    between atoms: C7_13  and  N2_14
REMARK    5  A    between atoms: C8_18  and  N3_19
REMARK    6  A    between atoms: N3_19  and  C9_21
REMARK    7  A    between atoms: C9_21  and  C10_22
REMARK    8  A    between atoms: C10_22  and  C11_23
REMARK    9  A    between atoms: C11_23  and  C12_24
REMARK   10  A    between atoms: C18_30  and  O3_31
REMARK   11  A    between atoms: C23_39  and  O6_40
ROOT
HETATM    1  C4  UNL     1      -1.342  82.845  22.032  1.00  0.00     0.185 C
HETATM    2  C5  UNL     1      -1.633  83.034  20.582  1.00  0.00     0.217 C
HETATM    3  C6  UNL     1      -2.362  81.963  19.877  1.00  0.00     0.070 C
HETATM    4  C7  UNL     1      -2.008  80.605  20.316  1.00  0.00     0.210 C
HETATM    5  C8  UNL     1      -0.742  80.589  21.079  1.00  0.00     0.138 C
HETATM    6  C18 UNL     1      -0.754  81.497  22.283  1.00  0.00     0.173 C
ENDROOT
BRANCH   1   7
HETATM    7  O2  UNL     1      -0.406  83.779  22.401  1.00  0.00    -0.349 OA
BRANCH   7   8
HETATM    8  C3  UNL     1      -0.663  84.543  23.489  1.00  0.00     0.292 C
HETATM    9  O1  UNL     1      -1.707  84.087  24.295  1.00  0.00    -0.351 OA
HETATM   10  C2  UNL     1      -2.345  85.187  24.867  1.00  0.00     0.152 C
HETATM   11  C1  UNL     1      -3.372  84.654  25.845  1.00  0.00     0.042 C
HETATM   12  C23 UNL     1      -1.350  86.063  25.620  1.00  0.00     0.178 C
HETATM   13  C22 UNL     1      -0.080  85.294  25.738  1.00  0.00     0.186 C
HETATM   14  C19 UNL     1       0.484  84.865  24.379  1.00  0.00     0.208 C
HETATM   15  O5  UNL     1       0.940  85.980  26.378  1.00  0.00    -0.378 OA
HETATM   16  O4  UNL     1       1.330  83.817  24.654  1.00  0.00    -0.376 OA
HETATM   17  C20 UNL     1       2.402  84.336  25.399  1.00  0.00     0.194 C
HETATM   18  C21 UNL     1       1.934  85.019  26.658  1.00  0.00     0.194 C
BRANCH  12  19
HETATM   19  O6  UNL     1      -1.186  87.293  24.983  1.00  0.00    -0.390 OA
ATOM     20  H6  UNL     1      -0.586  87.849  25.467  1.00  0.00     0.210 HD
ENDBRANCH  12  19
ENDBRANCH   7   8
ENDBRANCH   1   7
BRANCH   2  21
HETATM   21  N1  UNL     1      -2.457  84.244  20.363  1.00  0.00    -0.072 N
ATOM     22  H13 UNL     1      -3.448  84.017  20.285  1.00  0.00     0.274 HD
ATOM     23  H12 UNL     1      -2.498  84.829  21.197  1.00  0.00     0.274 HD
ATOM     24  H11 UNL     1      -2.125  84.767  19.552  1.00  0.00     0.274 HD
ENDBRANCH   2  21
BRANCH   6  25
HETATM   25  O3  UNL     1       0.556  81.619  22.728  1.00  0.00    -0.391 OA
ATOM     26  H3  UNL     1       0.615  81.387  23.647  1.00  0.00     0.210 HD
ENDBRANCH   6  25
BRANCH   5  27
HETATM   27  N3  UNL     1       0.360  80.989  20.246  1.00  0.00    -0.413 N
ATOM     28  H3  UNL     1       0.687  81.955  20.203  1.00  0.00     0.153 HD
BRANCH  27  29
HETATM   29  C9  UNL     1       0.971  79.940  19.479  1.00  0.00     0.114 C
BRANCH  29  30
HETATM   30  C10 UNL     1       2.438  80.282  19.368  1.00  0.00     0.024 C
BRANCH  30  31
HETATM   31  C11 UNL     1       3.363  79.245  19.905  1.00  0.00     0.040 C
BRANCH  31  32
HETATM   32  C12 UNL     1       3.401  79.345  21.393  1.00  0.00    -0.058 A
HETATM   33  C13 UNL     1       4.269  80.279  21.953  1.00  0.00     0.007 A
HETATM   34  C14 UNL     1       4.357  80.420  23.321  1.00  0.00     0.001 A
HETATM   35  C15 UNL     1       3.568  79.617  24.106  1.00  0.00     0.000 A
HETATM   36  C16 UNL     1       2.709  78.693  23.559  1.00  0.00     0.001 A
HETATM   37  C17 UNL     1       2.623  78.555  22.196  1.00  0.00     0.007 A
ENDBRANCH  31  32
ENDBRANCH  30  31
ENDBRANCH  29  30
ENDBRANCH  27  29
ENDBRANCH   5  27
BRANCH   4  38
HETATM   38  N2  UNL     1      -3.091  80.126  21.178  1.00  0.00    -0.073 N
ATOM     39  H23 UNL     1      -3.691  79.439  20.720  1.00  0.00     0.274 HD
ATOM     40  H22 UNL     1      -2.762  79.529  21.937  1.00  0.00     0.274 HD
ATOM     41  H21 UNL     1      -3.604  80.943  21.508  1.00  0.00     0.274 HD
ENDBRANCH   4  38
TORSDOF 11
ENDMDL