MODEL 2
REMARK VINA RESULT: -7.490250601      4.280      7.625
REMARK  11 active torsions:
REMARK  status: ('A' for Active; 'I' for Inactive)
REMARK    1  A    between atoms: C2_2  and  C3_3
REMARK       I    between atoms: C3_3  and  N1_5
REMARK    2  A    between atoms: N1_5  and  C4_7
REMARK    3  A    between atoms: C6_9  and  N2_10
REMARK    4  A    between atoms: C7_14  and  C8_15
REMARK    5  A    between atoms: C8_15  and  O2_16
REMARK    6  A    between atoms: O2_16  and  C9_17
REMARK    7  A    between atoms: C10_18  and  O3_19
REMARK    8  A    between atoms: C15_27  and  O4_28
REMARK    9  A    between atoms: C16_31  and  O6_32
REMARK   10  A    between atoms: O6_32  and  C17_33
REMARK   11  A    between atoms: N4_37  and  O7_39
ROOT
HETATM    1  C4  UNL     1      -2.635  85.744  23.853  1.00  0.00     0.142 C
HETATM    2  C5  UNL     1      -3.556  85.616  25.001  1.00  0.00     0.065 C
HETATM    3  C6  UNL     1      -4.248  86.946  25.332  1.00  0.00     0.216 C
HETATM    4  C7  UNL     1      -4.959  87.387  24.093  1.00  0.00     0.178 C
HETATM    5  O5  UNL     1      -3.908  87.667  23.175  1.00  0.00    -0.350 OA
HETATM    6  C16 UNL     1      -3.270  86.541  22.740  1.00  0.00     0.283 C
ENDROOT
BRANCH   4   7
HETATM    7  C8  UNL     1      -5.773  88.621  24.188  1.00  0.00     0.202 C
BRANCH   7   8
HETATM    8  O2  UNL     1      -6.527  88.904  25.236  1.00  0.00    -0.378 OA
BRANCH   8   9
HETATM    9  C9  UNL     1      -6.217  89.668  26.281  1.00  0.00     0.182 C
HETATM   10  C10 UNL     1      -7.139  89.400  27.446  1.00  0.00     0.171 C
HETATM   11  C11 UNL     1      -8.271  90.353  27.600  1.00  0.00     0.104 C
HETATM   12  C12 UNL     1      -8.047  91.318  28.750  1.00  0.00     0.034 C
HETATM   13  N3  UNL     1      -8.732  90.994  26.404  1.00  0.00    -0.409 N
HETATM   14  C13 UNL     1      -7.730  91.506  25.547  1.00  0.00     0.104 C
ATOM     15  H3  UNL     1      -9.724  91.076  26.184  1.00  0.00     0.154 HD
HETATM   16  C14 UNL     1      -7.794  93.026  25.396  1.00  0.00     0.034 C
HETATM   17  C15 UNL     1      -6.334  91.148  25.888  1.00  0.00     0.171 C
BRANCH  10  18
HETATM   18  O3  UNL     1      -7.598  88.067  27.296  1.00  0.00    -0.391 OA
ATOM     19  H3  UNL     1      -8.537  88.090  27.439  1.00  0.00     0.210 HD
ENDBRANCH  10  18
BRANCH  17  20
HETATM   20  O4  UNL     1      -5.745  91.992  26.794  1.00  0.00    -0.391 OA
ATOM     21  H4  UNL     1      -5.929  91.758  27.696  1.00  0.00     0.210 HD
ENDBRANCH  17  20
ENDBRANCH   8   9
ENDBRANCH   7   8
ENDBRANCH   4   7
BRANCH   3  22
HETATM   22  N2  UNL     1      -3.283  87.948  25.688  1.00  0.00    -0.072 N
ATOM     23  H23 UNL     1      -2.416  87.534  26.027  1.00  0.00     0.274 HD
ATOM     24  H22 UNL     1      -2.915  88.425  24.865  1.00  0.00     0.274 HD
ATOM     25  H21 UNL     1      -3.676  88.607  26.361  1.00  0.00     0.274 HD
ENDBRANCH   3  22
BRANCH   6  26
HETATM   26  O6  UNL     1      -4.174  85.776  21.992  1.00  0.00    -0.354 OA
BRANCH  26  27
HETATM   27  C17 UNL     1      -3.535  85.206  20.906  1.00  0.00     0.130 C
HETATM   28  C18 UNL     1      -2.170  85.804  20.645  1.00  0.00     0.038 C
HETATM   29  C19 UNL     1      -1.515  84.690  19.822  1.00  0.00     0.057 C
HETATM   30  C20 UNL     1      -1.906  83.488  20.587  1.00  0.00     0.012 C
HETATM   31  N4  UNL     1      -1.196  82.445  20.760  1.00  0.00    -0.277 N
HETATM   32  C21 UNL     1      -3.267  83.725  21.107  1.00  0.00     0.086 C
ATOM     33  H4  UNL     1      -1.603  81.691  21.315  1.00  0.00     0.193 HD
BRANCH  31  34
HETATM   34  O7  UNL     1       0.052  82.253  20.271  1.00  0.00    -0.290 OA
ATOM     35  H7  UNL     1       0.824  82.061  20.791  1.00  0.00     0.244 HD
ENDBRANCH  31  34
ENDBRANCH  26  27
ENDBRANCH   6  26
BRANCH   1  36
HETATM   36  N1  UNL     1      -1.297  86.162  24.153  1.00  0.00    -0.348 N
HETATM   37  C3  UNL     1      -0.167  85.387  23.833  1.00  0.00     0.240 C
HETATM   38  O1  UNL     1      -0.333  84.283  23.260  1.00  0.00    -0.269 OA
ATOM     39  H1  UNL     1      -1.158  87.059  24.618  1.00  0.00     0.163 HD
BRANCH  37  40
HETATM   40  C2  UNL     1       1.200  85.793  24.129  1.00  0.00     0.064 C
HETATM   41  C1  UNL     1       1.855  85.352  25.190  1.00  0.00     0.017 C
ENDBRANCH  37  40
ENDBRANCH   1  36
TORSDOF 11
ENDMDL