MODEL 4
REMARK VINA RESULT: -6.614772789      3.142      5.708
REMARK  12 active torsions:
REMARK  status: ('A' for Active; 'I' for Inactive)
REMARK    1  A    between atoms: C3_4  and  N2_5
REMARK       I    between atoms: N2_5  and  C4_7
REMARK    2  A    between atoms: C4_7  and  C5_9
REMARK    3  A    between atoms: C5_9  and  N3_10
REMARK    4  A    between atoms: C6_15  and  C7_16
REMARK    5  A    between atoms: C7_16  and  O3_17
REMARK    6  A    between atoms: C8_19  and  O4_20
REMARK    7  A    between atoms: O4_20  and  C9_21
REMARK    8  A    between atoms: C9_21  and  C10_23
REMARK    9  A    between atoms: C10_23  and  N4_24
REMARK   10  A    between atoms: C11_28  and  O6_29
REMARK   11  A    between atoms: O6_29  and  C12_30
REMARK       I    between atoms: C12_30  and  N5_32
REMARK   12  A    between atoms: N5_32  and  C13_34
ROOT
HETATM    1  N1  UNL     1       1.662  83.517  24.772  1.00  0.00    -0.197 NA
HETATM    2  C1  UNL     1       0.917  84.379  24.662  1.00  0.00     0.071 C
HETATM    3  C2  UNL     1      -0.008  85.480  24.511  1.00  0.00     0.173 C
HETATM    4  C3  UNL     1      -0.664  85.842  25.849  1.00  0.00     0.244 C
HETATM    5  O2  UNL     1      -1.246  87.064  25.637  1.00  0.00    -0.355 OA
HETATM    6  C6  UNL     1      -2.259  87.113  24.734  1.00  0.00     0.179 C
HETATM    7  C8  UNL     1      -2.322  86.047  23.696  1.00  0.00     0.194 C
HETATM    8  C11 UNL     1      -1.158  85.113  23.599  1.00  0.00     0.187 C
ENDROOT
BRANCH   4   9
HETATM    9  N2  UNL     1       0.287  85.889  26.911  1.00  0.00    -0.332 N
HETATM   10  C4  UNL     1      -0.142  85.649  28.245  1.00  0.00     0.245 C
HETATM   11  O1  UNL     1      -1.341  85.395  28.521  1.00  0.00    -0.272 OA
ATOM     12  H2  UNL     1       1.267  86.093  26.715  1.00  0.00     0.165 HD
BRANCH  10  13
HETATM   13  C5  UNL     1       0.853  85.700  29.342  1.00  0.00     0.332 C
BRANCH  13  14
HETATM   14  N3  UNL     1       0.853  84.444  30.040  1.00  0.00    -0.071 N
ATOM     15  H33 UNL     1      -0.041  83.959  29.966  1.00  0.00     0.274 HD
ATOM     16  H32 UNL     1       1.435  83.745  29.579  1.00  0.00     0.274 HD
ATOM     17  H31 UNL     1       1.130  84.598  31.010  1.00  0.00     0.274 HD
ENDBRANCH  13  14
ENDBRANCH  10  13
ENDBRANCH   4   9
BRANCH   8  18
HETATM   18  O6  UNL     1      -0.615  85.004  22.295  1.00  0.00    -0.294 OA
BRANCH  18  19
HETATM   19  C12 UNL     1      -1.016  84.040  21.384  1.00  0.00     0.361 C
HETATM   20  O7  UNL     1      -0.653  84.246  20.177  1.00  0.00    -0.238 OA
HETATM   21  N5  UNL     1      -1.767  82.918  21.762  1.00  0.00    -0.332 N
ATOM     22  H5  UNL     1      -2.019  82.821  22.746  1.00  0.00     0.165 HD
BRANCH  21  23
HETATM   23  C13 UNL     1      -2.209  81.885  20.843  1.00  0.00     0.086 C
HETATM   24  C14 UNL     1      -3.561  81.418  21.265  1.00  0.00     0.025 C
HETATM   25  C15 UNL     1      -3.644  80.050  21.823  1.00  0.00     0.002 C
HETATM   26  C16 UNL     1      -3.528  78.932  20.858  1.00  0.00     0.000 C
HETATM   27  C17 UNL     1      -3.709  79.298  19.419  1.00  0.00     0.000 C
HETATM   28  C18 UNL     1      -2.546  79.946  18.771  1.00  0.00     0.000 C
HETATM   29  C19 UNL     1      -1.271  79.955  19.520  1.00  0.00     0.002 C
HETATM   30  C20 UNL     1      -1.179  80.816  20.712  1.00  0.00     0.025 C
ENDBRANCH  21  23
ENDBRANCH  18  19
ENDBRANCH   8  18
BRANCH   7  31
HETATM   31  O4  UNL     1      -2.672  86.578  22.413  1.00  0.00    -0.309 OA
BRANCH  31  32
HETATM   32  C9  UNL     1      -3.878  86.374  21.801  1.00  0.00     0.284 C
HETATM   33  O5  UNL     1      -4.856  86.985  22.300  1.00  0.00    -0.263 OA
BRANCH  32  34
HETATM   34  C10 UNL     1      -4.027  85.482  20.608  1.00  0.00     0.340 C
BRANCH  34  35
HETATM   35  N4  UNL     1      -3.298  86.062  19.500  1.00  0.00    -0.070 N
ATOM     36  H43 UNL     1      -3.898  86.603  18.878  1.00  0.00     0.274 HD
ATOM     37  H42 UNL     1      -2.680  86.818  19.793  1.00  0.00     0.274 HD
ATOM     38  H41 UNL     1      -2.799  85.317  19.011  1.00  0.00     0.274 HD
ENDBRANCH  34  35
ENDBRANCH  32  34
ENDBRANCH  31  32
ENDBRANCH   7  31
BRANCH   6  39
HETATM   39  C7  UNL     1      -3.567  87.173  25.548  1.00  0.00     0.198 C
BRANCH  39  40
HETATM   40  O3  UNL     1      -4.383  86.128  25.092  1.00  0.00    -0.398 OA
ATOM     41  H3  UNL     1      -4.730  86.392  24.249  1.00  0.00     0.209 HD
ENDBRANCH  39  40
ENDBRANCH   6  39
TORSDOF 12
ENDMDL