MODEL 2
REMARK VINA RESULT: -6.151428063      1.380      2.184
REMARK  14 active torsions:
REMARK  status: ('A' for Active; 'I' for Inactive)
REMARK    1  A    between atoms: S1_2  and  C2_3
REMARK    2  A    between atoms: C4_6  and  O2_7
REMARK    3  A    between atoms: O2_7  and  C5_8
REMARK    4  A    between atoms: C5_8  and  N1_10
REMARK    5  A    between atoms: N1_10  and  C6_12
REMARK    6  A    between atoms: C6_12  and  C7_13
REMARK    7  A    between atoms: C10_16  and  O3_17
REMARK    8  A    between atoms: C11_19  and  O4_20
REMARK    9  A    between atoms: O4_20  and  C12_21
REMARK   10  A    between atoms: C13_23  and  C14_24
REMARK   11  A    between atoms: C14_24  and  O6_25
REMARK   12  A    between atoms: C15_27  and  O7_28
REMARK   13  A    between atoms: C16_30  and  O8_31
REMARK   14  A    between atoms: C17_33  and  O9_34
ROOT
HETATM    1  C2  UNL     1      -1.700  80.532  22.073  1.00  0.00     0.102 C
HETATM    2  C3  UNL     1      -1.043  79.170  21.848  1.00  0.00     0.189 C
HETATM    3  O1  UNL     1       0.117  79.429  21.116  1.00  0.00    -0.357 OA
HETATM    4  C4  UNL     1       1.040  79.981  21.969  1.00  0.00     0.299 C
HETATM    5  C10 UNL     1       0.469  80.638  23.184  1.00  0.00     0.204 C
HETATM    6  C11 UNL     1      -0.802  81.423  22.870  1.00  0.00     0.174 C
ENDROOT
BRANCH   6   7
HETATM    7  O4  UNL     1      -0.414  82.578  22.254  1.00  0.00    -0.349 OA
BRANCH   7   8
HETATM    8  C12 UNL     1      -0.518  83.738  22.992  1.00  0.00     0.292 C
HETATM    9  O5  UNL     1      -0.386  84.907  22.319  1.00  0.00    -0.348 OA
HETATM   10  C13 UNL     1      -1.480  85.520  21.849  1.00  0.00     0.179 C
HETATM   11  C15 UNL     1      -2.707  85.455  22.711  1.00  0.00     0.180 C
HETATM   12  C16 UNL     1      -2.902  84.067  23.259  1.00  0.00     0.183 C
HETATM   13  C17 UNL     1      -1.625  83.728  24.000  1.00  0.00     0.204 C
BRANCH  10  14
HETATM   14  C14 UNL     1      -1.752  85.107  20.410  1.00  0.00     0.198 C
BRANCH  14  15
HETATM   15  O6  UNL     1      -0.693  84.542  19.767  1.00  0.00    -0.398 OA
ATOM     16  H6  UNL     1      -0.466  84.947  18.938  1.00  0.00     0.209 HD
ENDBRANCH  14  15
ENDBRANCH  10  14
BRANCH  11  17
HETATM   17  O7  UNL     1      -2.628  86.386  23.769  1.00  0.00    -0.390 OA
ATOM     18  H7  UNL     1      -3.350  86.272  24.375  1.00  0.00     0.210 HD
ENDBRANCH  11  17
BRANCH  12  19
HETATM   19  O8  UNL     1      -4.012  83.994  24.104  1.00  0.00    -0.390 OA
ATOM     20  H8  UNL     1      -4.372  83.117  24.137  1.00  0.00     0.210 HD
ENDBRANCH  12  19
BRANCH  13  21
HETATM   21  O9  UNL     1      -1.446  84.718  24.967  1.00  0.00    -0.388 OA
ATOM     22  H9  UNL     1      -2.268  84.953  25.382  1.00  0.00     0.210 HD
ENDBRANCH  13  21
ENDBRANCH   7   8
ENDBRANCH   6   7
BRANCH   1  23
HETATM   23  S1  UNL     1      -2.075  81.198  20.432  1.00  0.00    -0.164 SA
HETATM   24  C1  UNL     1      -2.905  79.982  19.404  1.00  0.00     0.090 C
ENDBRANCH   1  23
BRANCH   5  25
HETATM   25  O3  UNL     1       1.464  81.525  23.660  1.00  0.00    -0.388 OA
ATOM     26  H3  UNL     1       2.234  80.995  23.828  1.00  0.00     0.210 HD
ENDBRANCH   5  25
BRANCH   4  27
HETATM   27  O2  UNL     1       1.962  78.973  22.325  1.00  0.00    -0.293 OA
BRANCH  27  28
HETATM   28  C5  UNL     1       3.266  79.195  22.681  1.00  0.00     0.212 C
HETATM   29  S2  UNL     1       3.876  78.875  24.151  1.00  0.00    -0.033 SA
BRANCH  28  30
HETATM   30  N1  UNL     1       4.162  79.747  21.699  1.00  0.00    -0.361 N
ATOM     31  H1  UNL     1       4.707  80.579  21.925  1.00  0.00     0.162 HD
BRANCH  30  32
HETATM   32  C6  UNL     1       4.297  79.141  20.406  1.00  0.00     0.127 C
BRANCH  32  33
HETATM   33  C7  UNL     1       3.990  80.173  19.315  1.00  0.00     0.003 A
HETATM   34  C8  UNL     1       2.670  80.033  18.657  1.00  0.00     0.007 A
HETATM   35  C9  UNL     1       3.942  79.645  17.946  1.00  0.00     0.007 A
ENDBRANCH  32  33
ENDBRANCH  30  32
ENDBRANCH  28  30
ENDBRANCH  27  28
ENDBRANCH   4  27
TORSDOF 14
ENDMDL