MODEL 1
REMARK VINA RESULT: -7.402839654      0.000      0.000
REMARK  13 active torsions:
REMARK  status: ('A' for Active; 'I' for Inactive)
REMARK    1  A    between atoms: C4_4  and  O1_5
REMARK    2  A    between atoms: O1_5  and  C5_6
REMARK    3  A    between atoms: C5_6  and  C6_7
REMARK    4  A    between atoms: C7_9  and  C8_10
REMARK    5  A    between atoms: C8_10  and  O3_11
REMARK    6  A    between atoms: C9_13  and  O4_14
REMARK    7  A    between atoms: C10_16  and  O5_17
REMARK    8  A    between atoms: C11_19  and  O6_20
REMARK    9  A    between atoms: C12_22  and  O7_23
REMARK   10  A    between atoms: O7_23  and  C13_24
REMARK   11  A    between atoms: C14_26  and  C15_27
REMARK   12  A    between atoms: C15_27  and  O9_28
REMARK   13  A    between atoms: C16_30  and  O10_31
ROOT
HETATM    1  C1  UNL     1      -1.682  85.343  27.053  1.00  0.00     0.012 C
HETATM    2  C2  UNL     1      -2.500  84.530  26.082  1.00  0.00     0.015 C
HETATM    3  C3  UNL     1      -3.935  84.338  26.594  1.00  0.00     0.041 C
HETATM    4  C4  UNL     1      -4.216  85.734  26.011  1.00  0.00     0.151 C
HETATM    5  C12 UNL     1      -3.086  85.411  25.017  1.00  0.00     0.157 C
ENDROOT
BRANCH   4   6
HETATM    6  O1  UNL     1      -5.454  85.822  25.446  1.00  0.00    -0.381 OA
BRANCH   6   7
HETATM    7  C5  UNL     1      -6.220  86.776  26.084  1.00  0.00     0.203 C
BRANCH   7   8
HETATM    8  C6  UNL     1      -5.914  88.197  25.684  1.00  0.00     0.177 C
HETATM    9  O2  UNL     1      -6.980  89.046  25.928  1.00  0.00    -0.371 OA
HETATM   10  C7  UNL     1      -7.154  90.042  25.007  1.00  0.00     0.177 C
HETATM   11  C9  UNL     1      -5.842  90.659  24.557  1.00  0.00     0.180 C
HETATM   12  C10 UNL     1      -4.908  89.636  23.969  1.00  0.00     0.180 C
HETATM   13  C11 UNL     1      -5.447  88.266  24.245  1.00  0.00     0.180 C
BRANCH  10  14
HETATM   14  C8  UNL     1      -7.953  91.154  25.701  1.00  0.00     0.198 C
BRANCH  14  15
HETATM   15  O3  UNL     1      -8.713  91.860  24.771  1.00  0.00    -0.398 OA
ATOM     16  H3  UNL     1      -9.641  91.745  24.944  1.00  0.00     0.209 HD
ENDBRANCH  14  15
ENDBRANCH  10  14
BRANCH  11  17
HETATM   17  O4  UNL     1      -6.071  91.647  23.587  1.00  0.00    -0.390 OA
ATOM     18  H4  UNL     1      -6.428  92.431  23.988  1.00  0.00     0.210 HD
ENDBRANCH  11  17
BRANCH  12  19
HETATM   19  O5  UNL     1      -3.645  89.743  24.549  1.00  0.00    -0.390 OA
ATOM     20  H5  UNL     1      -3.309  88.882  24.769  1.00  0.00     0.210 HD
ENDBRANCH  12  19
BRANCH  13  21
HETATM   21  O6  UNL     1      -6.410  87.864  23.339  1.00  0.00    -0.390 OA
ATOM     22  H6  UNL     1      -6.259  88.193  22.461  1.00  0.00     0.210 HD
ENDBRANCH  13  21
ENDBRANCH   7   8
ENDBRANCH   6   7
ENDBRANCH   4   6
BRANCH   5  23
HETATM   23  O7  UNL     1      -3.549  84.784  23.889  1.00  0.00    -0.353 OA
BRANCH  23  24
HETATM   24  C13 UNL     1      -3.237  85.440  22.703  1.00  0.00     0.268 C
HETATM   25  O8  UNL     1      -1.944  85.881  22.800  1.00  0.00    -0.350 OA
HETATM   26  C14 UNL     1      -0.952  85.187  22.205  1.00  0.00     0.185 C
HETATM   27  C16 UNL     1      -1.331  84.273  21.090  1.00  0.00     0.119 C
HETATM   28  C17 UNL     1      -1.821  85.194  19.950  1.00  0.00     0.044 C
HETATM   29  C20 UNL     1      -2.566  83.518  21.392  1.00  0.00     0.124 A
HETATM   30  C18 UNL     1      -3.282  85.391  20.203  1.00  0.00     0.016 C
HETATM   31  C19 UNL     1      -3.574  84.651  21.487  1.00  0.00     0.081 C
HETATM   32  C21 UNL     1      -2.870  82.265  20.762  1.00  0.00     0.210 A
HETATM   33  O11 UNL     1      -2.654  82.397  22.150  1.00  0.00    -0.371 OA
BRANCH  26  34
HETATM   34  C15 UNL     1      -0.135  84.482  23.296  1.00  0.00     0.199 C
BRANCH  34  35
HETATM   35  O9  UNL     1       1.205  84.810  23.219  1.00  0.00    -0.398 OA
ATOM     36  H9  UNL     1       1.716  84.346  23.872  1.00  0.00     0.209 HD
ENDBRANCH  34  35
ENDBRANCH  26  34
BRANCH  27  37
HETATM   37  O10 UNL     1      -0.280  83.485  20.645  1.00  0.00    -0.384 OA
ATOM     38  H10 UNL     1      -0.313  82.595  20.976  1.00  0.00     0.210 HD
ENDBRANCH  27  37
ENDBRANCH  23  24
ENDBRANCH   5  23
TORSDOF 13
ENDMDL