MODEL 5
REMARK VINA RESULT: -7.032931557      2.300      5.610
REMARK  12 active torsions:
REMARK  status: ('A' for Active; 'I' for Inactive)
REMARK    1  A    between atoms: N1_1  and  C1_5
REMARK    2  A    between atoms: C1_5  and  C2_6
REMARK    3  A    between atoms: C4_8  and  O1_9
REMARK    4  A    between atoms: O1_9  and  C5_10
REMARK    5  A    between atoms: C6_11  and  N2_12
REMARK    6  A    between atoms: C8_17  and  O2_18
REMARK    7  A    between atoms: O2_18  and  C9_19
REMARK    8  A    between atoms: C11_22  and  C12_23
REMARK    9  A    between atoms: C12_23  and  N3_24
REMARK       I    between atoms: N3_24  and  C13_26
REMARK   10  A    between atoms: C13_26  and  C14_28
REMARK   11  A    between atoms: C20_35  and  N4_36
REMARK   12  A    between atoms: C22_41  and  O6_42
ROOT
HETATM    1  C5  UNL     1      -2.413  81.133  21.435  1.00  0.00     0.181 C
HETATM    2  C6  UNL     1      -3.318  79.929  21.700  1.00  0.00     0.217 C
HETATM    3  C7  UNL     1      -2.530  79.206  20.626  1.00  0.00     0.070 C
HETATM    4  C8  UNL     1      -1.379  80.163  20.951  1.00  0.00     0.160 C
ENDROOT
BRANCH   1   5
HETATM    5  O1  UNL     1      -2.900  82.038  20.522  1.00  0.00    -0.374 OA
BRANCH   5   6
HETATM    6  C4  UNL     1      -2.773  83.327  20.969  1.00  0.00     0.153 C
HETATM    7  C3  UNL     1      -3.483  83.566  22.297  1.00  0.00     0.043 C
HETATM    8  C2  UNL     1      -2.884  84.784  22.959  1.00  0.00     0.042 C
HETATM    9  C22 UNL     1      -2.863  85.903  21.957  1.00  0.00     0.126 C
HETATM   10  C21 UNL     1      -3.758  85.617  20.767  1.00  0.00     0.067 C
HETATM   11  C20 UNL     1      -3.310  84.376  20.018  1.00  0.00     0.214 C
BRANCH   8  12
HETATM   12  C1  UNL     1      -1.518  84.528  23.514  1.00  0.00     0.236 C
BRANCH  12  13
HETATM   13  N1  UNL     1      -0.652  85.627  23.141  1.00  0.00    -0.079 N
ATOM     14  H13 UNL     1      -0.543  86.310  23.891  1.00  0.00     0.274 HD
ATOM     15  H12 UNL     1       0.326  85.345  23.064  1.00  0.00     0.274 HD
ATOM     16  H11 UNL     1      -1.006  86.046  22.281  1.00  0.00     0.274 HD
ENDBRANCH  12  13
ENDBRANCH   8  12
BRANCH   9  17
HETATM   17  O6  UNL     1      -3.379  87.051  22.566  1.00  0.00    -0.395 OA
ATOM     18  H6  UNL     1      -3.353  87.762  21.937  1.00  0.00     0.210 HD
ENDBRANCH   9  17
BRANCH  11  19
HETATM   19  N4  UNL     1      -2.287  84.802  19.069  1.00  0.00    -0.072 N
ATOM     20  H43 UNL     1      -1.826  85.659  19.374  1.00  0.00     0.274 HD
ATOM     21  H42 UNL     1      -1.481  84.177  19.081  1.00  0.00     0.274 HD
ATOM     22  H41 UNL     1      -2.673  84.898  18.130  1.00  0.00     0.274 HD
ENDBRANCH  11  19
ENDBRANCH   5   6
ENDBRANCH   1   5
BRANCH   2  23
HETATM   23  N2  UNL     1      -4.705  80.109  21.428  1.00  0.00    -0.072 N
ATOM     24  H23 UNL     1      -4.907  79.828  20.468  1.00  0.00     0.274 HD
ATOM     25  H22 UNL     1      -5.250  79.415  21.942  1.00  0.00     0.274 HD
ATOM     26  H21 UNL     1      -5.085  81.039  21.602  1.00  0.00     0.274 HD
ENDBRANCH   2  23
BRANCH   4  27
HETATM   27  O2  UNL     1      -0.692  80.458  19.804  1.00  0.00    -0.331 OA
BRANCH  27  28
HETATM   28  C9  UNL     1       0.656  80.555  20.131  1.00  0.00     0.413 C
HETATM   29  O3  UNL     1       1.504  80.251  19.055  1.00  0.00    -0.336 OA
HETATM   30  C10 UNL     1       2.728  79.947  19.647  1.00  0.00     0.207 C
HETATM   31  C11 UNL     1       2.304  79.225  20.903  1.00  0.00     0.168 C
HETATM   32  O5  UNL     1       1.047  79.742  21.164  1.00  0.00    -0.330 OA
BRANCH  31  33
HETATM   33  C12 UNL     1       3.267  79.486  22.042  1.00  0.00     0.157 C
BRANCH  33  34
HETATM   34  N3  UNL     1       2.775  80.572  22.848  1.00  0.00    -0.354 N
HETATM   35  C13 UNL     1       2.034  80.470  24.030  1.00  0.00     0.251 C
HETATM   36  O4  UNL     1       1.743  79.316  24.468  1.00  0.00    -0.268 OA
ATOM     37  H3  UNL     1       2.990  81.515  22.524  1.00  0.00     0.162 HD
BRANCH  35  38
HETATM   38  C14 UNL     1       1.565  81.596  24.805  1.00  0.00     0.032 A
HETATM   39  C15 UNL     1       2.073  82.860  24.661  1.00  0.00     0.017 A
HETATM   40  C16 UNL     1       1.629  83.957  25.397  1.00  0.00     0.001 A
HETATM   41  C17 UNL     1       0.625  83.752  26.316  1.00  0.00     0.000 A
HETATM   42  C18 UNL     1       0.081  82.498  26.498  1.00  0.00     0.001 A
HETATM   43  C19 UNL     1       0.552  81.447  25.749  1.00  0.00     0.017 A
ENDBRANCH  35  38
ENDBRANCH  33  34
ENDBRANCH  31  33
ENDBRANCH  27  28
ENDBRANCH   4  27
TORSDOF 12
ENDMDL