MODEL 2
REMARK VINA RESULT: -7.234139237      2.668      5.636
REMARK  10 active torsions:
REMARK  status: ('A' for Active; 'I' for Inactive)
REMARK    1  A    between atoms: N2_3  and  S1_5
REMARK    2  A    between atoms: S1_5  and  C2_8
REMARK    3  A    between atoms: C3_9  and  C4_10
REMARK    4  A    between atoms: C4_10  and  O3_11
REMARK    5  A    between atoms: O3_11  and  C5_12
REMARK    6  A    between atoms: C6_14  and  C7_15
REMARK    7  A    between atoms: C8_18  and  O7_19
REMARK    8  A    between atoms: C9_21  and  O8_22
REMARK    9  A    between atoms: C10_24  and  O9_25
REMARK   10  A    between atoms: C15_31  and  C16_32
ROOT
HETATM    1  N1  UNL     1      -0.290  83.485  27.374  1.00  0.00    -0.171 NA
HETATM    2  C1  UNL     1       0.317  84.206  26.688  1.00  0.00     0.192 C
HETATM    3  N2  UNL     1       1.063  85.086  25.879  1.00  0.00    -0.217 N
ATOM      4  H2  UNL     1       1.716  85.766  26.270  1.00  0.00     0.191 HD
ENDROOT
BRANCH   3   5
HETATM    5  S1  UNL     1       0.818  84.949  24.323  1.00  0.00     0.260 S
HETATM    6  O1  UNL     1       1.303  83.568  23.954  1.00  0.00    -0.200 OA
HETATM    7  O2  UNL     1       1.788  86.060  23.560  1.00  0.00    -0.200 OA
BRANCH   5   8
HETATM    8  C2  UNL     1      -0.857  85.189  23.912  1.00  0.00     0.131 C
HETATM    9  C3  UNL     1      -1.353  85.000  22.704  1.00  0.00     0.025 C
BRANCH   9  10
HETATM   10  C4  UNL     1      -2.806  85.242  22.487  1.00  0.00     0.096 C
HETATM   11  C11 UNL     1      -2.899  86.376  21.480  1.00  0.00     0.043 C
HETATM   12  C12 UNL     1      -2.346  85.963  20.130  1.00  0.00     0.003 C
HETATM   13  C13 UNL     1      -2.710  84.516  19.837  1.00  0.00     0.001 C
HETATM   14  C14 UNL     1      -3.922  84.101  20.647  1.00  0.00     0.019 C
HETATM   15  C15 UNL     1      -3.556  84.022  22.108  1.00  0.00     0.125 C
BRANCH  10  16
HETATM   16  O3  UNL     1      -3.293  85.747  23.682  1.00  0.00    -0.343 OA
BRANCH  16  17
HETATM   17  C5  UNL     1      -3.822  86.994  23.662  1.00  0.00     0.293 C
HETATM   18  O4  UNL     1      -5.211  87.008  23.504  1.00  0.00    -0.340 OA
HETATM   19  C6  UNL     1      -5.779  88.230  23.732  1.00  0.00     0.256 C
HETATM   20  C8  UNL     1      -4.747  89.354  23.785  1.00  0.00     0.189 C
HETATM   21  C9  UNL     1      -3.745  89.120  24.872  1.00  0.00     0.183 C
HETATM   22  C10 UNL     1      -3.550  87.629  25.012  1.00  0.00     0.204 C
BRANCH  19  23
HETATM   23  C7  UNL     1      -6.752  88.608  22.657  1.00  0.00     0.206 C
HETATM   24  O5  UNL     1      -6.994  87.864  21.683  1.00  0.00    -0.646 OA
HETATM   25  O6  UNL     1      -7.412  89.823  22.738  1.00  0.00    -0.646 OA
ENDBRANCH  19  23
BRANCH  20  26
HETATM   26  O7  UNL     1      -5.449  90.524  24.102  1.00  0.00    -0.390 OA
ATOM     27  H7  UNL     1      -4.864  91.056  24.630  1.00  0.00     0.210 HD
ENDBRANCH  20  26
BRANCH  21  28
HETATM   28  O8  UNL     1      -2.521  89.674  24.505  1.00  0.00    -0.390 OA
ATOM     29  H8  UNL     1      -2.451  90.553  24.857  1.00  0.00     0.210 HD
ENDBRANCH  21  28
BRANCH  22  30
HETATM   30  O9  UNL     1      -4.359  87.085  26.004  1.00  0.00    -0.388 OA
ATOM     31  H9  UNL     1      -3.944  86.339  26.422  1.00  0.00     0.210 HD
ENDBRANCH  22  30
ENDBRANCH  16  17
ENDBRANCH  10  16
BRANCH  15  32
HETATM   32  C16 UNL     1      -2.819  82.763  22.377  1.00  0.00     0.180 C
HETATM   33  O10 UNL     1      -2.276  82.174  21.416  1.00  0.00    -0.648 OA
HETATM   34  O11 UNL     1      -2.700  82.205  23.637  1.00  0.00    -0.648 OA
ENDBRANCH  15  32
ENDBRANCH   9  10
ENDBRANCH   5   8
ENDBRANCH   3   5
TORSDOF 10
ENDMDL