MODEL 1
REMARK VINA RESULT: -7.099125225      0.000      0.000
REMARK  10 active torsions:
REMARK  status: ('A' for Active; 'I' for Inactive)
REMARK    1  A    between atoms: O1_2  and  C2_3
REMARK    2  A    between atoms: C3_5  and  C4_6
REMARK    3  A    between atoms: C4_6  and  O3_7
REMARK    4  A    between atoms: C5_9  and  O4_10
REMARK    5  A    between atoms: O4_10  and  C6_11
REMARK    6  A    between atoms: C8_17  and  O5_18
REMARK    7  A    between atoms: O5_18  and  C9_19
REMARK    8  A    between atoms: C9_19  and  N3_22
REMARK       I    between atoms: N3_22  and  C12_24
REMARK    9  A    between atoms: C12_24  and  C13_26
REMARK   10  A    between atoms: C16_30  and  C17_31
ROOT
HETATM    1  O5  UNL     1       0.767  80.448  22.398  1.00  0.00    -0.351 OA
ENDROOT
BRANCH   1   2
HETATM    2  C8  UNL     1      -0.367  80.253  21.641  1.00  0.00     0.182 C
HETATM    3  C2  UNL     1      -0.101  79.496  20.353  1.00  0.00     0.288 C
HETATM    4  O2  UNL     1      -1.300  79.023  19.870  1.00  0.00    -0.349 OA
HETATM    5  C3  UNL     1      -2.386  79.816  20.127  1.00  0.00     0.177 C
HETATM    6  C5  UNL     1      -2.063  81.285  20.221  1.00  0.00     0.165 C
HETATM    7  C7  UNL     1      -0.967  81.594  21.186  1.00  0.00     0.072 C
BRANCH   3   8
HETATM    8  O1  UNL     1       0.446  80.333  19.382  1.00  0.00    -0.363 OA
HETATM    9  C1  UNL     1       1.760  79.989  19.081  1.00  0.00     0.204 C
ENDBRANCH   3   8
BRANCH   5  10
HETATM   10  C4  UNL     1      -3.330  79.673  18.921  1.00  0.00     0.198 C
BRANCH  10  11
HETATM   11  O3  UNL     1      -3.079  80.717  18.019  1.00  0.00    -0.398 OA
ATOM     12  H3  UNL     1      -2.883  80.347  17.165  1.00  0.00     0.209 HD
ENDBRANCH  10  11
ENDBRANCH   5  10
BRANCH   6  13
HETATM   13  O4  UNL     1      -3.236  82.019  20.400  1.00  0.00    -0.317 OA
BRANCH  13  14
HETATM   14  C6  UNL     1      -3.328  83.396  20.299  1.00  0.00     0.225 C
HETATM   15  N1  UNL     1      -3.004  83.928  19.177  1.00  0.00    -0.368 N
ATOM     16  H12 UNL     1      -2.691  83.356  18.392  1.00  0.00     0.159 HD
ATOM     17  H11 UNL     1      -3.072  84.943  19.102  1.00  0.00     0.159 HD
HETATM   18  N2  UNL     1      -3.769  84.203  21.406  1.00  0.00    -0.057 NA
ENDBRANCH  13  14
ENDBRANCH   6  13
ENDBRANCH   1   2
BRANCH   1  19
HETATM   19  C9  UNL     1       0.674  80.041  23.711  1.00  0.00     0.129 C
HETATM   20  C10 UNL     1      -0.090  78.730  23.732  1.00  0.00     0.070 C
HETATM   21  C11 UNL     1       2.023  79.848  24.376  1.00  0.00     0.070 C
BRANCH  19  22
HETATM   22  N3  UNL     1      -0.054  81.046  24.445  1.00  0.00    -0.328 N
HETATM   23  C12 UNL     1       0.449  82.370  24.549  1.00  0.00     0.243 C
HETATM   24  O6  UNL     1       1.538  82.631  23.984  1.00  0.00    -0.271 OA
ATOM     25  H3  UNL     1      -0.937  80.804  24.894  1.00  0.00     0.165 HD
BRANCH  23  26
HETATM   26  C13 UNL     1      -0.266  83.437  25.295  1.00  0.00     0.179 C
HETATM   27  C14 UNL     1      -1.724  83.403  24.885  1.00  0.00     0.108 C
HETATM   28  S1  UNL     1      -2.396  85.049  25.337  1.00  0.00    -0.164 SA
HETATM   29  C15 UNL     1      -1.251  85.721  26.589  1.00  0.00     0.109 C
HETATM   30  C16 UNL     1       0.130  85.719  25.985  1.00  0.00     0.188 C
HETATM   31  N4  UNL     1       0.361  84.688  25.031  1.00  0.00    -0.395 N
ATOM     32  H4  UNL     1       0.942  84.836  24.206  1.00  0.00     0.155 HD
BRANCH  30  33
HETATM   33  C17 UNL     1       1.106  85.774  27.075  1.00  0.00     0.197 C
HETATM   34  O7  UNL     1       2.268  85.300  27.005  1.00  0.00    -0.646 OA
HETATM   35  O8  UNL     1       0.741  86.384  28.266  1.00  0.00    -0.646 OA
ENDBRANCH  30  33
ENDBRANCH  23  26
ENDBRANCH  19  22
ENDBRANCH   1  19
TORSDOF 10
ENDMDL