MODEL 1
REMARK VINA RESULT: -8.042932563      0.000      0.000
REMARK  14 active torsions:
REMARK  status: ('A' for Active; 'I' for Inactive)
REMARK    1  A    between atoms: N1_2  and  C2_5
REMARK    2  A    between atoms: C2_5  and  C3_6
REMARK    3  A    between atoms: C3_6  and  C4_7
REMARK    4  A    between atoms: C4_7  and  N2_8
REMARK    5  A    between atoms: N2_8  and  C5_10
REMARK    6  A    between atoms: C5_10  and  C6_11
REMARK    7  A    between atoms: C6_11  and  C7_12
REMARK    8  A    between atoms: C10_15  and  C12_17
REMARK    9  A    between atoms: C12_17  and  N3_18
REMARK   10  A    between atoms: C23_33  and  O1_34
REMARK   11  A    between atoms: O1_34  and  C24_35
REMARK   12  A    between atoms: C24_35  and  C25_36
REMARK   13  A    between atoms: C29_40  and  C30_41
REMARK   14  A    between atoms: C30_41  and  O2_42
ROOT
HETATM    1  C5  UNL     1      29.895  -8.983 -15.154  1.00  0.00     0.198 C
HETATM    2  C15 UNL     1      31.153  -8.234 -14.633  1.00  0.00     0.105 C
HETATM    3  C16 UNL     1      30.720  -7.094 -15.445  1.00  0.00     0.160 C
HETATM    4  C17 UNL     1      31.450  -6.868 -16.758  1.00  0.00     0.044 C
HETATM    5  C18 UNL     1      30.829  -5.843 -17.648  1.00  0.00     0.007 C
HETATM    6  C19 UNL     1      29.866  -4.944 -16.941  1.00  0.00     0.042 C
HETATM    7  C20 UNL     1      30.308  -4.705 -15.553  1.00  0.00    -0.011 A
HETATM    8  C21 UNL     1      30.292  -3.399 -15.044  1.00  0.00     0.126 A
HETATM    9  F1  UNL     1      29.878  -2.371 -15.843  1.00  0.00    -0.205 F
HETATM   10  C22 UNL     1      30.701  -3.230 -13.747  1.00  0.00     0.079 A
HETATM   11  C23 UNL     1      31.121  -4.250 -12.921  1.00  0.00     0.072 A
HETATM   12  C34 UNL     1      31.118  -5.537 -13.479  1.00  0.00     0.047 A
HETATM   13  C35 UNL     1      30.720  -5.760 -14.769  1.00  0.00    -0.010 A
HETATM   14  N4  UNL     1      29.413  -7.622 -15.561  1.00  0.00    -0.036 N
ATOM     15  H41 UNL     1      28.647  -7.185 -15.047  1.00  0.00     0.281 HD
ATOM     16  H42 UNL     1      28.902  -7.511 -16.437  1.00  0.00     0.281 HD
ENDROOT
BRANCH   1  17
HETATM   17  N2  UNL     1      30.141  -9.689 -16.326  1.00  0.00    -0.391 N
ATOM     18  H2  UNL     1      31.057 -10.126 -16.421  1.00  0.00     0.155 HD
BRANCH  17  19
HETATM   19  C4  UNL     1      29.254  -9.853 -17.377  1.00  0.00     0.118 C
BRANCH  19  20
HETATM   20  C3  UNL     1      28.562 -11.231 -17.149  1.00  0.00     0.047 C
BRANCH  20  21
HETATM   21  C2  UNL     1      27.088 -11.099 -17.437  1.00  0.00     0.233 C
BRANCH  21  22
HETATM   22  N1  UNL     1      26.448 -12.340 -17.049  1.00  0.00    -0.079 N
HETATM   23  C1  UNL     1      25.000 -12.227 -17.120  1.00  0.00     0.266 C
ATOM     24  H12 UNL     1      26.755 -12.647 -16.126  1.00  0.00     0.276 HD
ATOM     25  H11 UNL     1      26.791 -13.127 -17.599  1.00  0.00     0.276 HD
ENDBRANCH  21  22
ENDBRANCH  20  21
ENDBRANCH  19  20
ENDBRANCH  17  19
ENDBRANCH   1  17
BRANCH   1  26
HETATM   26  C6  UNL     1      29.000  -9.384 -14.046  1.00  0.00     0.066 C
BRANCH  26  27
HETATM   27  C7  UNL     1      27.537  -9.382 -14.105  1.00  0.00    -0.010 C
HETATM   28  C8  UNL     1      27.141 -10.841 -13.662  1.00  0.00     0.005 C
HETATM   29  C9  UNL     1      25.655 -10.946 -13.604  1.00  0.00     0.011 C
HETATM   30  C10 UNL     1      25.100 -10.127 -12.456  1.00  0.00    -0.020 C
HETATM   31  C11 UNL     1      23.960  -9.253 -12.900  1.00  0.00     0.017 C
HETATM   32  C13 UNL     1      26.229  -9.332 -11.906  1.00  0.00     0.011 C
HETATM   33  C14 UNL     1      27.002  -8.569 -12.907  1.00  0.00     0.005 C
BRANCH  30  34
HETATM   34  C12 UNL     1      24.574 -11.053 -11.354  1.00  0.00     0.238 C
BRANCH  34  35
HETATM   35  N3  UNL     1      25.525 -12.058 -11.001  1.00  0.00    -0.079 N
ATOM     36  H33 UNL     1      25.619 -12.754 -11.740  1.00  0.00     0.274 HD
ATOM     37  H32 UNL     1      26.475 -11.687 -11.008  1.00  0.00     0.274 HD
ATOM     38  H31 UNL     1      25.304 -12.495 -10.106  1.00  0.00     0.274 HD
ENDBRANCH  34  35
ENDBRANCH  30  34
ENDBRANCH  26  27
ENDBRANCH   1  26
BRANCH  11  39
HETATM   39  O1  UNL     1      31.533  -4.068 -11.610  1.00  0.00    -0.347 OA
BRANCH  39  40
HETATM   40  C24 UNL     1      32.404  -4.988 -11.027  1.00  0.00     0.215 C
BRANCH  40  41
HETATM   41  C25 UNL     1      32.147  -5.374  -9.653  1.00  0.00    -0.022 A
HETATM   42  C26 UNL     1      31.480  -6.562  -9.424  1.00  0.00    -0.052 A
HETATM   43  C27 UNL     1      31.055  -7.432 -10.569  1.00  0.00     0.049 C
HETATM   44  C28 UNL     1      31.199  -6.963  -8.121  1.00  0.00     0.016 A
HETATM   45  C29 UNL     1      31.570  -6.202  -7.042  1.00  0.00    -0.034 A
HETATM   46  C31 UNL     1      32.233  -5.020  -7.283  1.00  0.00     0.016 A
HETATM   47  C32 UNL     1      32.522  -4.607  -8.590  1.00  0.00    -0.052 A
HETATM   48  C33 UNL     1      33.249  -3.317  -8.716  1.00  0.00     0.049 C
BRANCH  45  49
HETATM   49  C30 UNL     1      31.268  -6.632  -5.630  1.00  0.00     0.202 C
BRANCH  49  50
HETATM   50  O2  UNL     1      31.314  -5.575  -4.759  1.00  0.00    -0.396 OA
ATOM     51  H2  UNL     1      32.077  -5.621  -4.195  1.00  0.00     0.209 HD
ENDBRANCH  49  50
ENDBRANCH  45  49
ENDBRANCH  40  41
ENDBRANCH  39  40
ENDBRANCH  11  39
TORSDOF 14
ENDMDL