MODEL 5
REMARK VINA RESULT: -7.064393077      2.367      6.236
REMARK  17 active torsions:
REMARK  status: ('A' for Active; 'I' for Inactive)
REMARK    1  A    between atoms: C2_2  and  C3_3
REMARK    2  A    between atoms: C3_3  and  C4_4
REMARK    3  A    between atoms: C4_4  and  O1_5
REMARK    4  A    between atoms: C4_4  and  C5_7
REMARK    5  A    between atoms: C4_4  and  C20_28
REMARK    6  A    between atoms: C5_7  and  C6_8
REMARK    7  A    between atoms: C6_8  and  C7_9
REMARK    8  A    between atoms: C7_9  and  C8_10
REMARK    9  A    between atoms: C10_12  and  O2_13
REMARK   10  A    between atoms: C15_19  and  O3_20
REMARK   11  A    between atoms: C17_23  and  O4_24
REMARK   12  A    between atoms: C20_28  and  C21_29
REMARK   13  A    between atoms: C21_29  and  C22_30
REMARK   14  A    between atoms: C23_31  and  O5_32
REMARK   15  A    between atoms: C25_35  and  C26_36
REMARK   16  A    between atoms: C26_36  and  C27_37
REMARK   17  A    between atoms: C32_42  and  O6_43
ROOT
HETATM    1  C4  UNL     1      31.734  -3.181 -13.485  1.00  0.00     0.058 C
ENDROOT
BRANCH   1   2
HETATM    2  C3  UNL     1      30.322  -3.369 -13.212  1.00  0.00     0.037 C
BRANCH   2   3
HETATM    3  C2  UNL     1      29.407  -4.356 -13.765  1.00  0.00    -0.002 C
HETATM    4  C1  UNL     1      28.088  -4.559 -13.064  1.00  0.00     0.005 C
ENDBRANCH   2   3
ENDBRANCH   1   2
BRANCH   1   5
HETATM    5  O1  UNL     1      31.596  -2.091 -14.558  1.00  0.00    -0.390 OA
ATOM      6  H1  UNL     1      32.201  -2.457 -15.193  1.00  0.00     0.210 HD
ENDBRANCH   1   5
BRANCH   1   7
HETATM    7  C5  UNL     1      32.415  -2.354 -12.417  1.00  0.00     0.038 C
BRANCH   7   8
HETATM    8  C6  UNL     1      32.265  -2.694 -11.010  1.00  0.00     0.003 C
BRANCH   8   9
HETATM    9  C7  UNL     1      33.128  -3.677 -10.352  1.00  0.00     0.005 C
BRANCH   9  10
HETATM   10  C8  UNL     1      32.550  -4.477  -9.244  1.00  0.00    -0.007 C
HETATM   11  C9  UNL     1      32.246  -3.572  -8.037  1.00  0.00     0.036 C
HETATM   12  C10 UNL     1      32.615  -4.246  -6.740  1.00  0.00     0.118 C
HETATM   13  C11 UNL     1      31.766  -5.478  -6.495  1.00  0.00     0.032 C
HETATM   14  C12 UNL     1      32.353  -6.566  -7.342  1.00  0.00     0.014 C
HETATM   15  C13 UNL     1      31.734  -6.755  -8.674  1.00  0.00    -0.014 C
HETATM   16  C14 UNL     1      32.719  -7.590  -9.506  1.00  0.00     0.018 C
HETATM   17  C15 UNL     1      30.471  -7.565  -8.555  1.00  0.00     0.129 C
HETATM   18  C19 UNL     1      31.494  -5.451  -9.456  1.00  0.00     0.003 C
HETATM   19  C16 UNL     1      29.371  -6.977  -9.375  1.00  0.00     0.064 C
HETATM   20  C17 UNL     1      29.779  -6.614 -10.763  1.00  0.00     0.121 C
HETATM   21  C18 UNL     1      31.139  -5.895 -10.821  1.00  0.00     0.037 C
BRANCH  12  22
HETATM   22  O2  UNL     1      32.499  -3.303  -5.726  1.00  0.00    -0.396 OA
ATOM     23  H2  UNL     1      33.335  -3.259  -5.277  1.00  0.00     0.210 HD
ENDBRANCH  12  22
BRANCH  17  24
HETATM   24  O3  UNL     1      30.668  -8.923  -8.804  1.00  0.00    -0.395 OA
ATOM     25  H3  UNL     1      30.047  -9.280  -9.426  1.00  0.00     0.210 HD
ENDBRANCH  17  24
BRANCH  20  26
HETATM   26  O4  UNL     1      29.770  -7.713 -11.620  1.00  0.00    -0.395 OA
ATOM     27  H4  UNL     1      29.934  -7.466 -12.522  1.00  0.00     0.210 HD
ENDBRANCH  20  26
ENDBRANCH   9  10
ENDBRANCH   8   9
ENDBRANCH   7   8
ENDBRANCH   1   7
BRANCH   1  28
HETATM   28  C20 UNL     1      32.683  -4.096 -14.072  1.00  0.00     0.042 C
BRANCH  28  29
HETATM   29  C21 UNL     1      34.126  -4.170 -13.927  1.00  0.00     0.047 C
BRANCH  29  30
HETATM   30  C22 UNL     1      34.808  -5.444 -14.236  1.00  0.00     0.017 A
HETATM   31  C23 UNL     1      35.678  -5.533 -15.307  1.00  0.00     0.075 A
HETATM   32  C24 UNL     1      36.291  -6.742 -15.593  1.00  0.00     0.047 A
HETATM   33  C25 UNL     1      36.067  -7.897 -14.834  1.00  0.00    -0.019 A
HETATM   34  C32 UNL     1      35.219  -7.819 -13.786  1.00  0.00     0.113 A
HETATM   35  C34 UNL     1      34.602  -6.568 -13.511  1.00  0.00     0.159 A
HETATM   36  F1  UNL     1      33.815  -6.616 -12.402  1.00  0.00    -0.203 F
BRANCH  31  37
HETATM   37  O5  UNL     1      36.003  -4.488 -16.132  1.00  0.00    -0.360 OA
ATOM     38  H5  UNL     1      35.917  -4.503 -17.079  1.00  0.00     0.217 HD
ENDBRANCH  31  37
BRANCH  33  39
HETATM   39  C26 UNL     1      36.832  -9.102 -15.181  1.00  0.00     0.046 C
BRANCH  39  40
HETATM   40  C27 UNL     1      37.932  -8.988 -16.142  1.00  0.00    -0.010 C
HETATM   41  C28 UNL     1      37.838 -10.112 -17.189  1.00  0.00     0.005 C
HETATM   42  C29 UNL     1      38.776 -11.161 -16.623  1.00  0.00     0.000 C
HETATM   43  C30 UNL     1      39.891 -10.369 -15.974  1.00  0.00     0.000 C
HETATM   44  C31 UNL     1      39.340  -8.976 -15.731  1.00  0.00     0.005 C
ENDBRANCH  39  40
ENDBRANCH  33  39
BRANCH  34  45
HETATM   45  O6  UNL     1      34.891  -8.859 -12.961  1.00  0.00    -0.352 OA
HETATM   46  C33 UNL     1      35.302  -9.201 -11.701  1.00  0.00     0.210 C
ENDBRANCH  34  45
ENDBRANCH  29  30
ENDBRANCH  28  29
ENDBRANCH   1  28
TORSDOF 17
ENDMDL