MODEL 1
REMARK VINA RESULT: -7.421180384      0.000      0.000
REMARK  18 active torsions:
REMARK  status: ('A' for Active; 'I' for Inactive)
REMARK    1  A    between atoms: C2_2  and  C3_3
REMARK    2  A    between atoms: C3_3  and  C4_4
REMARK    3  A    between atoms: C3_3  and  C6_12
REMARK    4  A    between atoms: C4_4  and  C5_5
REMARK    5  A    between atoms: C5_5  and  O1_6
REMARK    6  A    between atoms: N1_8  and  O2_10
REMARK    7  A    between atoms: C6_12  and  O3_14
REMARK    8  A    between atoms: C6_12  and  C8_16
REMARK    9  A    between atoms: C8_16  and  C9_17
REMARK   10  A    between atoms: C9_17  and  C11_19
REMARK   11  A    between atoms: C11_19  and  O4_20
REMARK   12  A    between atoms: C11_19  and  C12_22
REMARK   13  A    between atoms: C12_22  and  C13_23
REMARK   14  A    between atoms: C13_23  and  C14_24
REMARK   15  A    between atoms: C14_24  and  O5_25
REMARK   16  A    between atoms: C14_24  and  C15_27
REMARK   17  A    between atoms: C16_28  and  C17_29
REMARK   18  A    between atoms: C24_36  and  O6_37
ROOT
HETATM    1  C14 UNL     1      31.062  -2.497 -16.055  1.00  0.00     0.140 C
ENDROOT
BRANCH   1   2
HETATM    2  C13 UNL     1      30.746  -2.008 -14.629  1.00  0.00     0.038 C
BRANCH   2   3
HETATM    3  C12 UNL     1      31.903  -2.313 -13.716  1.00  0.00     0.035 C
BRANCH   3   4
HETATM    4  C11 UNL     1      31.363  -2.781 -12.359  1.00  0.00     0.122 C
BRANCH   4   5
HETATM    5  C9  UNL     1      32.421  -3.413 -11.543  1.00  0.00     0.013 C
HETATM    6  C10 UNL     1      33.616  -3.581 -12.555  1.00  0.00     0.012 C
BRANCH   5   7
HETATM    7  C8  UNL     1      32.185  -4.699 -10.873  1.00  0.00     0.044 C
BRANCH   7   8
HETATM    8  C6  UNL     1      31.963  -4.718  -9.414  1.00  0.00     0.059 C
HETATM    9  C7  UNL     1      32.879  -3.819  -8.676  1.00  0.00     0.046 C
BRANCH   8  10
HETATM   10  C3  UNL     1      32.022  -6.183  -8.968  1.00  0.00     0.027 C
BRANCH  10  11
HETATM   11  C2  UNL     1      32.962  -7.016  -9.787  1.00  0.00     0.003 C
HETATM   12  C1  UNL     1      32.696  -8.467  -9.876  1.00  0.00     0.005 C
ENDBRANCH  10  11
BRANCH  10  13
HETATM   13  C4  UNL     1      32.356  -6.370  -7.531  1.00  0.00     0.093 C
BRANCH  13  14
HETATM   14  C5  UNL     1      31.279  -6.835  -6.649  1.00  0.00     0.135 C
HETATM   15  N1  UNL     1      30.918  -6.291  -5.540  1.00  0.00    -0.251 N
ATOM     16  H1  UNL     1      30.155  -6.687  -4.992  1.00  0.00     0.196 HD
BRANCH  14  17
HETATM   17  O1  UNL     1      30.582  -7.993  -7.063  1.00  0.00    -0.348 OA
ATOM     18  H1  UNL     1      31.112  -8.730  -7.343  1.00  0.00     0.219 HD
ENDBRANCH  14  17
BRANCH  15  19
HETATM   19  O2  UNL     1      31.577  -5.172  -5.110  1.00  0.00    -0.288 OA
ATOM     20  H2  UNL     1      31.147  -4.601  -4.484  1.00  0.00     0.244 HD
ENDBRANCH  15  19
ENDBRANCH  13  14
ENDBRANCH  10  13
ENDBRANCH   8  10
BRANCH   8  21
HETATM   21  O3  UNL     1      30.630  -4.353  -9.148  1.00  0.00    -0.390 OA
ATOM     22  H3  UNL     1      30.719  -3.649  -8.516  1.00  0.00     0.210 HD
ENDBRANCH   8  21
ENDBRANCH   7   8
ENDBRANCH   5   7
ENDBRANCH   4   5
BRANCH   4  23
HETATM   23  O4  UNL     1      30.656  -1.733 -11.846  1.00  0.00    -0.395 OA
ATOM     24  H4  UNL     1      29.713  -1.703 -11.961  1.00  0.00     0.210 HD
ENDBRANCH   4  23
ENDBRANCH   3   4
ENDBRANCH   2   3
ENDBRANCH   1   2
BRANCH   1  25
HETATM   25  O5  UNL     1      30.555  -1.475 -16.871  1.00  0.00    -0.392 OA
ATOM     26  H5  UNL     1      30.285  -1.934 -17.658  1.00  0.00     0.210 HD
ENDBRANCH   1  25
BRANCH   1  27
HETATM   27  C15 UNL     1      30.382  -3.758 -16.347  1.00  0.00     0.001 C
HETATM   28  C16 UNL     1      30.513  -4.919 -15.796  1.00  0.00    -0.023 C
BRANCH  28  29
HETATM   29  C17 UNL     1      31.291  -5.497 -14.745  1.00  0.00     0.016 C
HETATM   30  C18 UNL     1      30.624  -6.392 -13.750  1.00  0.00     0.010 C
HETATM   31  C19 UNL     1      31.735  -7.347 -13.247  1.00  0.00     0.007 C
HETATM   32  C20 UNL     1      32.912  -6.907 -14.019  1.00  0.00     0.003 C
HETATM   33  C21 UNL     1      32.345  -6.514 -15.332  1.00  0.00    -0.030 C
HETATM   34  C32 UNL     1      34.076  -7.849 -14.074  1.00  0.00    -0.033 C
HETATM   35  C22 UNL     1      31.540  -7.518 -16.063  1.00  0.00     0.016 C
HETATM   36  C23 UNL     1      33.322  -5.808 -16.211  1.00  0.00     0.042 C
HETATM   37  C24 UNL     1      34.739  -6.149 -15.761  1.00  0.00     0.124 C
HETATM   38  C25 UNL     1      34.879  -7.579 -15.301  1.00  0.00     0.030 C
HETATM   39  C26 UNL     1      36.313  -7.991 -15.234  1.00  0.00    -0.041 C
HETATM   40  C27 UNL     1      36.541  -9.459 -15.511  1.00  0.00     0.015 C
HETATM   41  C28 UNL     1      37.093  -7.240 -16.324  1.00  0.00     0.015 C
HETATM   42  C29 UNL     1      37.005  -7.630 -13.940  1.00  0.00     0.009 C
HETATM   43  C30 UNL     1      36.210  -8.222 -12.801  1.00  0.00     0.002 C
HETATM   44  C31 UNL     1      34.835  -7.642 -12.777  1.00  0.00     0.010 C
HETATM   45  C33 UNL     1      33.606  -9.313 -14.020  1.00  0.00     0.016 C
BRANCH  37  46
HETATM   46  O6  UNL     1      35.202  -5.222 -14.858  1.00  0.00    -0.395 OA
ATOM     47  H6  UNL     1      36.127  -5.052 -14.993  1.00  0.00     0.210 HD
ENDBRANCH  37  46
ENDBRANCH  28  29
ENDBRANCH   1  27
TORSDOF 18
ENDMDL