MODEL 1
REMARK VINA RESULT: -7.178273470      0.000      0.000
REMARK  16 active torsions:
REMARK  status: ('A' for Active; 'I' for Inactive)
REMARK    1  A    between atoms: C2_2  and  C3_3
REMARK    2  A    between atoms: C3_3  and  O1_4
REMARK    3  A    between atoms: O1_4  and  C4_5
REMARK    4  A    between atoms: C4_5  and  C6_7
REMARK    5  A    between atoms: C6_7  and  C7_8
REMARK    6  A    between atoms: C7_8  and  C8_9
REMARK    7  A    between atoms: C17_19  and  C18_20
REMARK    8  A    between atoms: C18_20  and  O2_21
REMARK    9  A    between atoms: C18_20  and  C19_23
REMARK   10  A    between atoms: C19_23  and  C21_25
REMARK   11  A    between atoms: C21_25  and  C22_26
REMARK   12  A    between atoms: C22_26  and  C23_27
REMARK   13  A    between atoms: C23_27  and  O3_28
REMARK   14  A    between atoms: C23_27  and  C24_30
REMARK   15  A    between atoms: C31_37  and  O4_38
REMARK   16  A    between atoms: C33_41  and  O5_42
ROOT
HETATM    1  C8  UNL     1      34.237  -6.247 -13.698  1.00  0.00     0.092 C
HETATM    2 CL1  UNL     1      33.825  -6.852 -15.393  1.00  0.00    -0.111 Cl
HETATM    3  C9  UNL     1      33.192  -6.658 -12.787  1.00  0.00    -0.058 C
HETATM    4  C10 UNL     1      33.283  -7.838 -12.164  1.00  0.00     0.017 C
HETATM    5  C11 UNL     1      31.961  -5.910 -12.489  1.00  0.00     0.031 C
HETATM    6  C12 UNL     1      30.862  -6.728 -13.100  1.00  0.00     0.043 C
HETATM    7  C13 UNL     1      29.558  -6.070 -13.069  1.00  0.00    -0.088 C
HETATM    8  C14 UNL     1      28.457  -6.681 -12.672  1.00  0.00     0.014 C
HETATM    9  C15 UNL     1      29.531  -4.668 -13.514  1.00  0.00     0.034 C
HETATM   10  C16 UNL     1      30.647  -3.820 -13.039  1.00  0.00     0.018 C
HETATM   11  C17 UNL     1      31.972  -4.442 -12.698  1.00  0.00     0.004 C
HETATM   12  C27 UNL     1      32.953  -4.057 -13.820  1.00  0.00     0.000 C
HETATM   13  C28 UNL     1      32.272  -4.293 -15.157  1.00  0.00     0.019 C
HETATM   14  C29 UNL     1      33.269  -2.577 -13.834  1.00  0.00     0.016 C
HETATM   15  C30 UNL     1      33.898  -2.236 -15.202  1.00  0.00     0.032 C
HETATM   16  C31 UNL     1      35.157  -2.991 -15.433  1.00  0.00     0.121 C
HETATM   17  C32 UNL     1      35.067  -4.447 -15.081  1.00  0.00     0.072 C
HETATM   18  C33 UNL     1      34.274  -4.741 -13.801  1.00  0.00     0.093 C
ENDROOT
BRANCH  11  19
HETATM   19  C18 UNL     1      32.390  -3.746 -11.407  1.00  0.00     0.132 C
BRANCH  19  20
HETATM   20  O2  UNL     1      31.656  -2.609 -11.102  1.00  0.00    -0.394 OA
ATOM     21  H2  UNL     1      32.100  -1.790 -11.288  1.00  0.00     0.210 HD
ENDBRANCH  19  20
BRANCH  19  22
HETATM   22  C19 UNL     1      32.607  -4.494 -10.174  1.00  0.00     0.011 C
HETATM   23  C20 UNL     1      33.149  -3.388  -9.205  1.00  0.00     0.012 C
BRANCH  22  24
HETATM   24  C21 UNL     1      31.484  -5.052  -9.399  1.00  0.00     0.009 C
BRANCH  24  25
HETATM   25  C22 UNL     1      31.856  -6.404  -8.801  1.00  0.00     0.032 C
BRANCH  25  26
HETATM   26  C23 UNL     1      30.966  -6.547  -7.556  1.00  0.00     0.121 C
BRANCH  26  27
HETATM   27  O3  UNL     1      30.648  -7.880  -7.324  1.00  0.00    -0.395 OA
ATOM     28  H3  UNL     1      29.767  -7.963  -6.978  1.00  0.00     0.210 HD
ENDBRANCH  26  27
BRANCH  26  29
HETATM   29  C24 UNL     1      31.701  -6.045  -6.333  1.00  0.00     0.006 C
HETATM   30  C25 UNL     1      31.349  -4.578  -6.089  1.00  0.00     0.012 C
HETATM   31  C26 UNL     1      31.252  -6.835  -5.146  1.00  0.00     0.012 C
ENDBRANCH  26  29
ENDBRANCH  25  26
ENDBRANCH  24  25
ENDBRANCH  22  24
ENDBRANCH  19  22
ENDBRANCH  11  19
BRANCH  18  32
HETATM   32  O5  UNL     1      35.129  -4.279 -12.821  1.00  0.00    -0.387 OA
ATOM     33  H5  UNL     1      34.598  -3.884 -12.141  1.00  0.00     0.210 HD
ENDBRANCH  18  32
BRANCH   1  34
HETATM   34  C7  UNL     1      35.518  -6.917 -13.439  1.00  0.00     0.036 C
BRANCH  34  35
HETATM   35  C6  UNL     1      36.016  -8.023 -14.272  1.00  0.00     0.034 C
BRANCH  35  36
HETATM   36  C4  UNL     1      37.432  -7.600 -14.749  1.00  0.00     0.117 C
HETATM   37  C5  UNL     1      37.357  -7.381 -16.237  1.00  0.00     0.039 C
BRANCH  36  38
HETATM   38  O1  UNL     1      38.337  -8.609 -14.522  1.00  0.00    -0.383 OA
BRANCH  38  39
HETATM   39  C3  UNL     1      39.140  -8.743 -15.652  1.00  0.00     0.194 C
BRANCH  39  40
HETATM   40  C2  UNL     1      39.826 -10.050 -15.706  1.00  0.00    -0.011 C
HETATM   41  C1  UNL     1      40.245 -10.592 -16.844  1.00  0.00     0.009 C
ENDBRANCH  39  40
ENDBRANCH  38  39
ENDBRANCH  36  38
ENDBRANCH  35  36
ENDBRANCH  34  35
ENDBRANCH   1  34
BRANCH  16  42
HETATM   42  O4  UNL     1      36.250  -2.327 -14.931  1.00  0.00    -0.395 OA
ATOM     43  H4  UNL     1      36.786  -2.891 -14.387  1.00  0.00     0.210 HD
ENDBRANCH  16  42
TORSDOF 16
ENDMDL