MODEL 5
REMARK VINA RESULT: -7.094547296      3.390      5.835
REMARK  15 active torsions:
REMARK  status: ('A' for Active; 'I' for Inactive)
REMARK    1  A    between atoms: C4_4  and  C5_5
REMARK    2  A    between atoms: C5_5  and  C6_6
REMARK    3  A    between atoms: C6_6  and  C7_7
REMARK    4  A    between atoms: C7_7  and  C8_8
REMARK    5  A    between atoms: C7_7  and  C9_13
REMARK    6  A    between atoms: C16_21  and  O1_22
REMARK    7  A    between atoms: O1_22  and  C17_23
REMARK    8  A    between atoms: C18_24  and  C19_25
REMARK    9  A    between atoms: C19_25  and  C20_26
REMARK   10  A    between atoms: C20_26  and  O2_27
REMARK   11  A    between atoms: C21_30  and  C22_31
REMARK   12  A    between atoms: C22_31  and  C24_33
REMARK   13  A    between atoms: C25_34  and  C26_35
REMARK   14  A    between atoms: C26_35  and  O4_37
REMARK   15  A    between atoms: C31_42  and  C32_43
ROOT
HETATM    1  C9  UNL     1      32.640  -5.533 -15.645  1.00  0.00     0.018 C
HETATM    2  C10 UNL     1      33.643  -4.721 -16.487  1.00  0.00     0.007 C
HETATM    3  C11 UNL     1      35.033  -5.115 -15.959  1.00  0.00     0.009 C
HETATM    4  C12 UNL     1      34.645  -6.367 -15.250  1.00  0.00     0.042 C
HETATM    5  C13 UNL     1      35.630  -7.170 -14.573  1.00  0.00     0.175 C
HETATM    6  F1  UNL     1      36.409  -6.659 -13.598  1.00  0.00    -0.249 F
HETATM    7  C14 UNL     1      34.922  -8.463 -14.141  1.00  0.00     0.040 C
HETATM    8  C15 UNL     1      33.404  -8.299 -14.294  1.00  0.00     0.036 C
HETATM    9  C16 UNL     1      32.965  -6.970 -13.611  1.00  0.00     0.142 C
HETATM   10  C31 UNL     1      33.447  -5.854 -14.441  1.00  0.00     0.085 C
ENDROOT
BRANCH   9  11
HETATM   11  O1  UNL     1      33.440  -7.106 -12.350  1.00  0.00    -0.376 OA
BRANCH  11  12
HETATM   12  C17 UNL     1      32.635  -7.750 -11.426  1.00  0.00     0.161 C
HETATM   13  C18 UNL     1      33.478  -8.386 -10.305  1.00  0.00     0.153 C
HETATM   14  O3  UNL     1      32.800  -8.184  -9.106  1.00  0.00    -0.376 OA
HETATM   15  C21 UNL     1      31.637  -7.529  -9.370  1.00  0.00     0.139 C
HETATM   16  C28 UNL     1      31.884  -6.749 -10.603  1.00  0.00     0.008 C
HETATM   17  C29 UNL     1      30.554  -6.353 -11.193  1.00  0.00     0.020 C
HETATM   18  C30 UNL     1      32.825  -5.580 -10.404  1.00  0.00     0.020 C
BRANCH  13  19
HETATM   19  C19 UNL     1      33.482  -9.921 -10.438  1.00  0.00     0.060 C
BRANCH  19  20
HETATM   20  C20 UNL     1      34.785 -10.270 -11.135  1.00  0.00     0.166 C
BRANCH  20  21
HETATM   21  O2  UNL     1      35.765  -9.300 -10.844  1.00  0.00    -0.401 OA
ATOM     22  H2  UNL     1      36.343  -9.616 -10.160  1.00  0.00     0.209 HD
ENDBRANCH  20  21
ENDBRANCH  19  20
ENDBRANCH  13  19
BRANCH  15  23
HETATM   23  C22 UNL     1      31.017  -6.926  -8.186  1.00  0.00     0.034 C
HETATM   24  C23 UNL     1      31.069  -7.862  -6.998  1.00  0.00     0.017 C
BRANCH  23  25
HETATM   25  C24 UNL     1      31.425  -5.565  -7.821  1.00  0.00    -0.021 C
HETATM   26  C25 UNL     1      32.239  -5.348  -6.812  1.00  0.00     0.001 C
BRANCH  26  27
HETATM   27  C26 UNL     1      32.711  -4.031  -6.361  1.00  0.00     0.136 C
HETATM   28  C27 UNL     1      33.494  -3.274  -7.409  1.00  0.00     0.043 C
BRANCH  27  29
HETATM   29  O4  UNL     1      31.619  -3.301  -5.903  1.00  0.00    -0.392 OA
ATOM     30  H4  UNL     1      31.772  -2.382  -6.085  1.00  0.00     0.210 HD
ENDBRANCH  27  29
ENDBRANCH  26  27
ENDBRANCH  23  25
ENDBRANCH  15  23
ENDBRANCH  11  12
ENDBRANCH   9  11
BRANCH  10  31
HETATM   31  C32 UNL     1      33.765  -4.646 -13.715  1.00  0.00     0.185 C
HETATM   32  O5  UNL     1      32.865  -3.843 -13.377  1.00  0.00    -0.647 OA
HETATM   33  O6  UNL     1      35.019  -4.207 -13.301  1.00  0.00    -0.647 OA
ENDBRANCH  10  31
BRANCH   1  34
HETATM   34  C7  UNL     1      31.377  -4.823 -15.660  1.00  0.00     0.055 C
BRANCH  34  35
HETATM   35  C6  UNL     1      31.020  -4.674 -17.174  1.00  0.00     0.016 C
BRANCH  35  36
HETATM   36  C5  UNL     1      30.157  -3.462 -17.394  1.00  0.00     0.028 C
BRANCH  36  37
HETATM   37  C4  UNL     1      28.916  -3.904 -18.070  1.00  0.00    -0.025 C
HETATM   38  C2  UNL     1      28.007  -3.009 -18.416  1.00  0.00    -0.091 C
HETATM   39  C1  UNL     1      28.234  -1.578 -18.131  1.00  0.00     0.042 C
HETATM   40  C3  UNL     1      26.768  -3.441 -19.083  1.00  0.00     0.042 C
ENDBRANCH  36  37
ENDBRANCH  35  36
ENDBRANCH  34  35
BRANCH  34  41
HETATM   41  C8  UNL     1      30.203  -5.480 -15.068  1.00  0.00     0.091 C
HETATM   42  N1  UNL     1      29.887  -6.663 -15.401  1.00  0.00    -0.391 N
ATOM     43  H12 UNL     1      30.462  -7.143 -16.096  1.00  0.00     0.157 HD
ATOM     44  H11 UNL     1      29.073  -7.119 -14.991  1.00  0.00     0.157 HD
HETATM   45  N2  UNL     1      29.405  -4.815 -14.104  1.00  0.00    -0.088 NA
ENDBRANCH  34  41
ENDBRANCH   1  34
TORSDOF 15
ENDMDL