MODEL 2
REMARK VINA RESULT: -6.938040934      1.873      2.548
REMARK  17 active torsions:
REMARK  status: ('A' for Active; 'I' for Inactive)
REMARK    1  A    between atoms: C2_2  and  C3_3
REMARK    2  A    between atoms: C3_3  and  C5_5
REMARK    3  A    between atoms: C5_5  and  C6_6
REMARK    4  A    between atoms: C6_6  and  C7_7
REMARK    5  A    between atoms: C7_7  and  C8_8
REMARK    6  A    between atoms: C8_8  and  C9_9
REMARK    7  A    between atoms: C8_8  and  C13_15
REMARK    8  A    between atoms: C9_9  and  C10_10
REMARK    9  A    between atoms: C10_10  and  C11_11
REMARK   10  A    between atoms: C11_11  and  C12_12
REMARK   11  A    between atoms: C12_12  and  O1_13
REMARK   12  A    between atoms: N1_19  and  O2_21
REMARK   13  A    between atoms: C19_26  and  O3_27
REMARK   14  A    between atoms: C21_30  and  C23_32
REMARK   15  A    between atoms: C23_32  and  O4_33
REMARK   16  A    between atoms: C23_32  and  N2_35
REMARK   17  A    between atoms: N2_35  and  C24_37
ROOT
HETATM    1  C13 UNL     1      31.236  -6.090 -11.556  1.00  0.00    -0.010 C
HETATM    2  C14 UNL     1      30.091  -5.531 -11.948  1.00  0.00     0.148 C
HETATM    3  F1  UNL     1      28.993  -5.287 -11.168  1.00  0.00    -0.203 F
HETATM    4  C15 UNL     1      30.101  -5.208 -13.382  1.00  0.00     0.080 C
HETATM    5  N1  UNL     1      29.028  -4.848 -13.970  1.00  0.00    -0.270 N
ATOM      6  H1  UNL     1      28.246  -4.829 -13.316  1.00  0.00     0.194 HD
HETATM    7  C16 UNL     1      31.486  -5.427 -13.845  1.00  0.00     0.079 C
HETATM    8  C17 UNL     1      32.088  -6.214 -12.733  1.00  0.00    -0.057 C
HETATM    9  C18 UNL     1      33.544  -6.187 -12.655  1.00  0.00     0.067 C
HETATM   10  C19 UNL     1      34.187  -4.895 -13.116  1.00  0.00     0.128 C
HETATM   11  C20 UNL     1      33.701  -4.412 -14.424  1.00  0.00     0.040 C
HETATM   12  C21 UNL     1      34.457  -3.239 -14.925  1.00  0.00     0.028 C
HETATM   13  C22 UNL     1      35.215  -2.556 -13.749  1.00  0.00     0.025 C
HETATM   14  C29 UNL     1      33.641  -2.138 -15.551  1.00  0.00     0.018 C
HETATM   15  C30 UNL     1      32.345  -1.856 -14.919  1.00  0.00     0.002 C
HETATM   16  C31 UNL     1      31.793  -2.931 -14.029  1.00  0.00     0.011 C
HETATM   17  C32 UNL     1      32.191  -4.315 -14.479  1.00  0.00    -0.024 C
HETATM   18  C33 UNL     1      31.743  -4.385 -15.964  1.00  0.00     0.016 C
ENDROOT
BRANCH   1  19
HETATM   19  C8  UNL     1      31.384  -6.517 -10.128  1.00  0.00     0.022 C
BRANCH  19  20
HETATM   20  C7  UNL     1      31.560  -8.022 -10.042  1.00  0.00     0.009 C
BRANCH  20  21
HETATM   21  C6  UNL     1      33.004  -8.415  -9.987  1.00  0.00     0.001 C
BRANCH  21  22
HETATM   22  C5  UNL     1      33.187  -9.867 -10.324  1.00  0.00     0.004 C
BRANCH  22  23
HETATM   23  C3  UNL     1      34.377  -9.987 -11.261  1.00  0.00    -0.019 C
HETATM   24  C4  UNL     1      35.331  -8.881 -10.832  1.00  0.00     0.010 C
BRANCH  23  25
HETATM   25  C2  UNL     1      34.023  -9.891 -12.707  1.00  0.00    -0.000 C
HETATM   26  C1  UNL     1      32.540 -10.022 -12.945  1.00  0.00     0.005 C
ENDBRANCH  23  25
ENDBRANCH  22  23
ENDBRANCH  21  22
ENDBRANCH  20  21
ENDBRANCH  19  20
BRANCH  19  27
HETATM   27  C9  UNL     1      32.596  -5.846  -9.464  1.00  0.00     0.009 C
BRANCH  27  28
HETATM   28  C10 UNL     1      32.202  -4.380  -9.208  1.00  0.00     0.003 C
BRANCH  28  29
HETATM   29  C11 UNL     1      33.056  -3.772  -8.138  1.00  0.00     0.026 C
BRANCH  29  30
HETATM   30  C12 UNL     1      32.408  -4.139  -6.803  1.00  0.00     0.164 C
BRANCH  30  31
HETATM   31  O1  UNL     1      33.278  -3.767  -5.805  1.00  0.00    -0.401 OA
ATOM     32  H1  UNL     1      33.697  -4.557  -5.481  1.00  0.00     0.209 HD
ENDBRANCH  30  31
ENDBRANCH  29  30
ENDBRANCH  28  29
ENDBRANCH  27  28
ENDBRANCH  19  27
ENDBRANCH   1  19
BRANCH   5  33
HETATM   33  O2  UNL     1      28.642  -4.498 -15.157  1.00  0.00    -0.290 OA
ATOM     34  H2  UNL     1      28.116  -4.849 -15.867  1.00  0.00     0.244 HD
ENDBRANCH   5  33
BRANCH  10  35
HETATM   35  O3  UNL     1      34.176  -4.045 -12.057  1.00  0.00    -0.395 OA
ATOM     36  H3  UNL     1      35.019  -4.125 -11.627  1.00  0.00     0.210 HD
ENDBRANCH  10  35
BRANCH  12  37
HETATM   37  C23 UNL     1      35.595  -3.660 -15.790  1.00  0.00     0.120 C
BRANCH  37  38
HETATM   38  O4  UNL     1      36.696  -2.969 -15.767  1.00  0.00    -0.349 OA
ATOM     39  H4  UNL     1      37.428  -3.248 -16.305  1.00  0.00     0.219 HD
ENDBRANCH  37  38
BRANCH  37  40
HETATM   40  N2  UNL     1      35.644  -4.750 -16.660  1.00  0.00    -0.369 N
ATOM     41  H2  UNL     1      34.984  -4.765 -17.438  1.00  0.00     0.161 HD
BRANCH  40  42
HETATM   42  C24 UNL     1      36.565  -5.865 -16.540  1.00  0.00     0.087 C
HETATM   43  C25 UNL     1      36.468  -6.646 -17.835  1.00  0.00     0.051 C
HETATM   44  C26 UNL     1      36.910  -8.065 -17.608  1.00  0.00     0.169 C
HETATM   45  O5  UNL     1      36.220  -8.712 -16.600  1.00  0.00    -0.391 OA
HETATM   46  C27 UNL     1      35.392  -7.872 -15.856  1.00  0.00     0.169 C
HETATM   47  C28 UNL     1      36.282  -6.738 -15.354  1.00  0.00     0.051 C
ENDBRANCH  40  42
ENDBRANCH  37  40
ENDBRANCH  12  37
TORSDOF 17
ENDMDL