MODEL 5
REMARK VINA RESULT: -6.985519702      2.443      5.888
REMARK  16 active torsions:
REMARK  status: ('A' for Active; 'I' for Inactive)
REMARK    1  A    between atoms: C9_9  and  C10_10
REMARK    2  A    between atoms: C10_10  and  C11_11
REMARK    3  A    between atoms: C11_11  and  N1_14
REMARK       I    between atoms: N1_14  and  C14_16
REMARK    4  A    between atoms: C14_16  and  C15_18
REMARK    5  A    between atoms: C15_18  and  C16_19
REMARK    6  A    between atoms: C16_19  and  C17_20
REMARK    7  A    between atoms: C17_20  and  C18_21
REMARK    8  A    between atoms: C18_21  and  C19_22
REMARK    9  A    between atoms: C19_22  and  C20_23
REMARK   10  A    between atoms: C20_23  and  C21_24
REMARK   11  A    between atoms: C21_24  and  C22_25
REMARK   12  A    between atoms: C22_25  and  O3_27
REMARK   13  A    between atoms: O3_27  and  C23_28
REMARK   14  A    between atoms: C27_32  and  O4_33
REMARK   15  A    between atoms: C29_36  and  O5_37
REMARK   16  A    between atoms: C30_41  and  O6_42
ROOT
HETATM    1  C20 UNL     1      35.655  -7.851 -12.929  1.00  0.00     0.010 C
ENDROOT
BRANCH   1   2
HETATM    2  C19 UNL     1      35.948  -8.490 -14.251  1.00  0.00     0.000 C
BRANCH   2   3
HETATM    3  C18 UNL     1      37.162  -7.870 -14.925  1.00  0.00     0.000 C
BRANCH   3   4
HETATM    4  C17 UNL     1      36.865  -7.536 -16.373  1.00  0.00     0.000 C
BRANCH   4   5
HETATM    5  C16 UNL     1      37.333  -6.164 -16.741  1.00  0.00     0.009 C
BRANCH   5   6
HETATM    6  C15 UNL     1      36.370  -5.314 -17.478  1.00  0.00     0.103 C
BRANCH   6   7
HETATM    7  C14 UNL     1      35.418  -4.545 -16.671  1.00  0.00     0.218 C
HETATM    8  N1  UNL     1      35.683  -4.179 -15.319  1.00  0.00    -0.353 N
ATOM      9  H1  UNL     1      36.579  -4.479 -14.934  1.00  0.00     0.163 HD
HETATM   10  O1  UNL     1      34.314  -4.167 -17.132  1.00  0.00    -0.274 OA
BRANCH   8  11
HETATM   11  C11 UNL     1      34.838  -3.445 -14.451  1.00  0.00     0.026 C
HETATM   12  C12 UNL     1      35.341  -1.963 -14.680  1.00  0.00     0.038 C
HETATM   13  C13 UNL     1      35.248  -3.744 -13.017  1.00  0.00     0.038 C
BRANCH  11  14
HETATM   14  C10 UNL     1      33.398  -3.363 -14.655  1.00  0.00     0.040 C
BRANCH  14  15
HETATM   15  C9  UNL     1      32.409  -4.255 -14.064  1.00  0.00     0.024 C
HETATM   16  C2  UNL     1      31.172  -3.361 -13.823  1.00  0.00    -0.084 C
HETATM   17  C1  UNL     1      31.281  -2.383 -12.936  1.00  0.00     0.014 C
HETATM   18  C3  UNL     1      29.899  -3.527 -14.510  1.00  0.00     0.034 C
HETATM   19  C4  UNL     1      29.896  -4.305 -15.772  1.00  0.00     0.005 C
HETATM   20  C5  UNL     1      31.162  -5.090 -16.024  1.00  0.00     0.010 C
HETATM   21  C6  UNL     1      31.868  -5.449 -14.723  1.00  0.00    -0.040 C
HETATM   22  C7  UNL     1      30.784  -5.999 -13.753  1.00  0.00     0.015 C
HETATM   23  C8  UNL     1      32.773  -6.597 -14.987  1.00  0.00     0.015 C
ENDBRANCH  14  15
ENDBRANCH  11  14
ENDBRANCH   8  11
ENDBRANCH   6   7
ENDBRANCH   5   6
ENDBRANCH   4   5
ENDBRANCH   3   4
ENDBRANCH   2   3
ENDBRANCH   1   2
BRANCH   1  24
HETATM   24  C21 UNL     1      34.765  -8.632 -12.034  1.00  0.00     0.111 C
BRANCH  24  25
HETATM   25  C22 UNL     1      33.449  -8.067 -11.765  1.00  0.00     0.259 C
HETATM   26  O2  UNL     1      32.411  -8.694 -12.000  1.00  0.00    -0.265 OA
BRANCH  25  27
HETATM   27  O3  UNL     1      33.336  -6.798 -11.232  1.00  0.00    -0.312 OA
BRANCH  27  28
HETATM   28  C23 UNL     1      32.354  -6.452 -10.267  1.00  0.00     0.174 C
HETATM   29  C24 UNL     1      32.062  -4.997 -10.433  1.00  0.00     0.017 C
HETATM   30  C25 UNL     1      30.657  -4.614 -10.056  1.00  0.00     0.012 C
HETATM   31  C26 UNL     1      33.111  -4.176  -9.744  1.00  0.00     0.043 C
HETATM   32  C27 UNL     1      32.720  -3.754  -8.351  1.00  0.00     0.156 C
HETATM   33  C28 UNL     1      32.107  -4.815  -7.573  1.00  0.00     0.035 A
HETATM   34  C29 UNL     1      31.379  -4.622  -6.431  1.00  0.00     0.151 A
HETATM   35  C31 UNL     1      32.118  -6.168  -7.796  1.00  0.00     0.042 A
HETATM   36  N2  UNL     1      30.950  -5.831  -5.960  1.00  0.00    -0.317 N
HETATM   37  C30 UNL     1      31.395  -6.789  -6.787  1.00  0.00     0.152 A
ATOM     38  H2  UNL     1      30.387  -5.980  -5.123  1.00  0.00     0.170 HD
HETATM   39  C32 UNL     1      32.764  -6.881  -8.892  1.00  0.00     0.238 C
HETATM   40  F1  UNL     1      32.538  -8.252  -8.794  1.00  0.00    -0.241 F
BRANCH  32  41
HETATM   41  O4  UNL     1      33.918  -3.387  -7.695  1.00  0.00    -0.391 OA
ATOM     42  H4  UNL     1      34.182  -4.140  -7.180  1.00  0.00     0.210 HD
ENDBRANCH  32  41
BRANCH  34  43
HETATM   43  O5  UNL     1      31.068  -3.439  -5.775  1.00  0.00    -0.346 OA
ATOM     44  H5  UNL     1      30.586  -3.308  -4.967  1.00  0.00     0.219 HD
ENDBRANCH  34  43
BRANCH  37  45
HETATM   45  O6  UNL     1      31.172  -8.146  -6.654  1.00  0.00    -0.346 OA
ATOM     46  H6  UNL     1      31.567  -8.832  -7.179  1.00  0.00     0.219 HD
ENDBRANCH  37  45
ENDBRANCH  27  28
ENDBRANCH  25  27
ENDBRANCH  24  25
ENDBRANCH   1  24
TORSDOF 16
ENDMDL