MODEL 2
REMARK VINA RESULT: -8.062345673      4.059      7.479
REMARK  14 active torsions:
REMARK  status: ('A' for Active; 'I' for Inactive)
REMARK    1  A    between atoms: C1_2  and  C2_3
REMARK       I    between atoms: C1_2  and  N2_27
REMARK    2  A    between atoms: C3_4  and  C4_5
REMARK    3  A    between atoms: C7_9  and  O2_10
REMARK    4  A    between atoms: C8_12  and  O3_13
REMARK    5  A    between atoms: C9_15  and  C10_16
REMARK    6  A    between atoms: C10_16  and  N1_17
REMARK    7  A    between atoms: N1_17  and  C11_20
REMARK    8  A    between atoms: N2_27  and  C18_29
REMARK    9  A    between atoms: C18_29  and  C19_30
REMARK   10  A    between atoms: C19_30  and  C20_31
REMARK   11  A    between atoms: C20_31  and  C21_32
REMARK   12  A    between atoms: C21_32  and  C22_33
REMARK   13  A    between atoms: C22_33  and  C23_34
REMARK   14  A    between atoms: C23_34  and  N3_35
ROOT
HETATM    1  C2  UNL     1      28.740  -6.607 -11.420  1.00  0.00     0.075 C
HETATM    2  C3  UNL     1      28.143  -7.023 -12.466  1.00  0.00     0.017 C
ENDROOT
BRANCH   1   3
HETATM    3  C1  UNL     1      29.160  -7.008 -10.125  1.00  0.00     0.241 C
HETATM    4  O1  UNL     1      28.722  -7.867  -9.340  1.00  0.00    -0.269 OA
HETATM    5  N2  UNL     1      30.323  -6.311  -9.561  1.00  0.00    -0.358 N
ATOM      6  H2  UNL     1      30.790  -5.576 -10.092  1.00  0.00     0.162 HD
BRANCH   5   7
HETATM    7  C18 UNL     1      30.792  -6.672  -8.262  1.00  0.00     0.123 C
BRANCH   7   8
HETATM    8  C19 UNL     1      32.125  -6.044  -7.941  1.00  0.00     0.020 C
BRANCH   8   9
HETATM    9  C20 UNL     1      32.132  -4.577  -7.832  1.00  0.00     0.002 C
BRANCH   9  10
HETATM   10  C21 UNL     1      32.932  -3.769  -8.755  1.00  0.00     0.002 C
BRANCH  10  11
HETATM   11  C22 UNL     1      32.812  -3.904 -10.211  1.00  0.00     0.020 C
BRANCH  11  12
HETATM   12  C23 UNL     1      32.233  -2.833 -11.039  1.00  0.00     0.127 C
BRANCH  12  13
HETATM   13  N3  UNL     1      32.268  -3.167 -12.473  1.00  0.00    -0.374 N
HETATM   14  C24 UNL     1      33.573  -3.115 -12.953  1.00  0.00     0.063 C
HETATM   15  C25 UNL     1      34.130  -4.448 -13.510  1.00  0.00     0.044 C
HETATM   16  C26 UNL     1      33.101  -4.830 -14.498  1.00  0.00     0.005 C
HETATM   17  C27 UNL     1      33.402  -5.856 -15.545  1.00  0.00     0.002 C
HETATM   18  C28 UNL     1      32.149  -5.781 -16.445  1.00  0.00     0.020 C
HETATM   19  C29 UNL     1      30.870  -5.665 -15.703  1.00  0.00     0.118 C
HETATM   20  N4  UNL     1      30.384  -4.316 -15.494  1.00  0.00    -0.402 N
HETATM   21  C30 UNL     1      29.478  -4.121 -14.446  1.00  0.00     0.060 C
ATOM     22  H4  UNL     1      30.689  -3.543 -16.085  1.00  0.00     0.158 HD
HETATM   23  C31 UNL     1      29.930  -3.570 -13.158  1.00  0.00     0.088 C
HETATM   24  C32 UNL     1      31.163  -2.683 -13.183  1.00  0.00     0.068 C
ENDBRANCH  12  13
ENDBRANCH  11  12
ENDBRANCH  10  11
ENDBRANCH   9  10
ENDBRANCH   8   9
ENDBRANCH   7   8
ENDBRANCH   5   7
ENDBRANCH   1   3
BRANCH   2  25
HETATM   25  C4  UNL     1      27.541  -8.262 -12.855  1.00  0.00    -0.024 A
HETATM   26  C5  UNL     1      26.281  -8.696 -12.508  1.00  0.00     0.038 A
HETATM   27  C6  UNL     1      25.743  -9.915 -12.914  1.00  0.00     0.070 A
HETATM   28 CL1  UNL     1      24.119 -10.331 -12.388  1.00  0.00    -0.081 Cl
HETATM   29  C7  UNL     1      26.496 -10.725 -13.695  1.00  0.00     0.121 A
HETATM   30  C8  UNL     1      27.806 -10.369 -14.107  1.00  0.00     0.109 A
HETATM   31  C9  UNL     1      28.292  -9.151 -13.679  1.00  0.00     0.014 A
BRANCH  29  32
HETATM   32  O2  UNL     1      26.000 -11.938 -14.117  1.00  0.00    -0.356 OA
ATOM     33  H2  UNL     1      26.582 -12.586 -14.497  1.00  0.00     0.218 HD
ENDBRANCH  29  32
BRANCH  30  34
HETATM   34  O3  UNL     1      28.487 -11.196 -14.860  1.00  0.00    -0.357 OA
ATOM     35  H3  UNL     1      28.606 -12.095 -14.576  1.00  0.00     0.217 HD
ENDBRANCH  30  34
BRANCH  31  36
HETATM   36  C10 UNL     1      29.670  -8.705 -14.040  1.00  0.00     0.275 C
BRANCH  36  37
HETATM   37  N1  UNL     1      30.668  -9.543 -13.430  1.00  0.00    -0.063 N
ATOM     38  H12 UNL     1      30.424  -9.775 -12.467  1.00  0.00     0.278 HD
ATOM     39  H11 UNL     1      30.659 -10.484 -13.826  1.00  0.00     0.278 HD
BRANCH  37  40
HETATM   40  C11 UNL     1      32.002  -8.936 -13.515  1.00  0.00     0.218 C
HETATM   41  C12 UNL     1      33.020  -9.955 -13.091  1.00  0.00     0.003 C
HETATM   42  C13 UNL     1      33.045 -10.606 -11.812  1.00  0.00    -0.028 C
HETATM   43  C14 UNL     1      33.813 -10.049 -10.613  1.00  0.00     0.038 C
HETATM   44  C15 UNL     1      33.341  -8.596 -10.253  1.00  0.00     0.083 C
HETATM   45  C16 UNL     1      32.675  -8.118 -11.393  1.00  0.00    -0.180 C
HETATM   46  C17 UNL     1      32.005  -7.693 -12.552  1.00  0.00     0.116 C
ENDBRANCH  37  40
ENDBRANCH  36  37
ENDBRANCH  31  36
ENDBRANCH   2  25
TORSDOF 14
ENDMDL