MODEL 5
REMARK VINA RESULT: -7.728146658      3.397      6.192
REMARK  15 active torsions:
REMARK  status: ('A' for Active; 'I' for Inactive)
REMARK    1  A    between atoms: C4_4  and  C5_5
REMARK    2  A    between atoms: C5_5  and  C6_6
REMARK    3  A    between atoms: C6_6  and  O1_7
REMARK    4  A    between atoms: C6_6  and  C7_9
REMARK    5  A    between atoms: C7_9  and  O2_10
REMARK    6  A    between atoms: C7_9  and  C8_12
REMARK    7  A    between atoms: C8_12  and  O3_13
REMARK    8  A    between atoms: C10_16  and  C11_17
REMARK    9  A    between atoms: C11_17  and  C12_18
REMARK   10  A    between atoms: C12_18  and  C13_19
REMARK   11  A    between atoms: C13_19  and  C14_20
REMARK   12  A    between atoms: C14_20  and  C15_21
REMARK   13  A    between atoms: C15_21  and  C16_22
REMARK   14  A    between atoms: C26_32  and  O4_34
REMARK   15  A    between atoms: C28_36  and  O5_37
ROOT
HETATM    1  C14 UNL     1      35.456  -5.433 -14.856  1.00  0.00     0.004 C
ENDROOT
BRANCH   1   2
HETATM    2  C13 UNL     1      35.344  -5.782 -13.385  1.00  0.00     0.005 C
BRANCH   2   3
HETATM    3  C12 UNL     1      35.088  -7.261 -13.277  1.00  0.00     0.038 C
BRANCH   3   4
HETATM    4  C11 UNL     1      33.653  -7.582 -12.998  1.00  0.00    -0.038 C
HETATM    5  C34 UNL     1      32.935  -7.955 -14.082  1.00  0.00     0.093 C
HETATM    6  C35 UNL     1      31.514  -8.320 -13.911  1.00  0.00     0.082 C
HETATM    7  F1  UNL     1      33.487  -8.001 -15.317  1.00  0.00    -0.211 F
BRANCH   4   8
HETATM    8  C10 UNL     1      33.010  -7.547 -11.690  1.00  0.00     0.045 C
HETATM    9  C2  UNL     1      33.638  -8.350 -10.620  1.00  0.00    -0.081 C
HETATM   10  C1  UNL     1      34.587  -9.238 -10.681  1.00  0.00     0.015 C
HETATM   11  C3  UNL     1      32.923  -7.932  -9.356  1.00  0.00     0.039 C
HETATM   12  C4  UNL     1      32.171  -6.653  -9.715  1.00  0.00    -0.007 C
HETATM   13  C9  UNL     1      32.872  -6.208 -11.028  1.00  0.00     0.018 C
BRANCH  12  14
HETATM   14  C5  UNL     1      32.415  -5.571  -8.688  1.00  0.00     0.039 C
BRANCH  14  15
HETATM   15  C6  UNL     1      31.222  -5.509  -7.767  1.00  0.00     0.149 C
BRANCH  15  16
HETATM   16  O1  UNL     1      30.162  -4.925  -8.444  1.00  0.00    -0.393 OA
ATOM     17  H1  UNL     1      29.591  -5.610  -8.772  1.00  0.00     0.210 HD
ENDBRANCH  15  16
BRANCH  15  18
HETATM   18  C7  UNL     1      31.563  -4.850  -6.468  1.00  0.00     0.170 C
BRANCH  18  19
HETATM   19  O2  UNL     1      31.736  -5.868  -5.524  1.00  0.00    -0.391 OA
ATOM     20  H2  UNL     1      32.261  -5.508  -4.819  1.00  0.00     0.210 HD
ENDBRANCH  18  19
BRANCH  18  21
HETATM   21  C8  UNL     1      32.838  -4.025  -6.560  1.00  0.00     0.198 C
BRANCH  21  22
HETATM   22  O3  UNL     1      32.925  -3.187  -5.440  1.00  0.00    -0.398 OA
ATOM     23  H3  UNL     1      33.265  -3.684  -4.705  1.00  0.00     0.209 HD
ENDBRANCH  21  22
ENDBRANCH  18  21
ENDBRANCH  15  18
ENDBRANCH  14  15
ENDBRANCH  12  14
ENDBRANCH   4   8
ENDBRANCH   3   4
ENDBRANCH   2   3
ENDBRANCH   1   2
BRANCH   1  24
HETATM   24  C15 UNL     1      34.218  -4.670 -15.349  1.00  0.00     0.027 C
BRANCH  24  25
HETATM   25  C16 UNL     1      33.600  -3.801 -14.307  1.00  0.00    -0.024 C
HETATM   26  C17 UNL     1      32.194  -3.870 -13.987  1.00  0.00    -0.078 C
HETATM   27  C18 UNL     1      31.954  -2.859 -12.812  1.00  0.00     0.034 C
HETATM   28  C33 UNL     1      31.025  -3.903 -14.856  1.00  0.00     0.031 C
HETATM   29  C19 UNL     1      31.116  -3.614 -11.808  1.00  0.00     0.009 C
HETATM   30  C20 UNL     1      29.899  -4.077 -12.562  1.00  0.00    -0.013 C
HETATM   31  C21 UNL     1      29.754  -5.563 -12.355  1.00  0.00     0.010 C
HETATM   32  C22 UNL     1      29.809  -3.623 -13.949  1.00  0.00     0.002 C
HETATM   33  C23 UNL     1      28.604  -4.300 -14.567  1.00  0.00     0.033 C
HETATM   34  C24 UNL     1      28.361  -3.446 -15.795  1.00  0.00    -0.020 C
HETATM   35  C25 UNL     1      29.401  -2.925 -16.423  1.00  0.00    -0.039 C
HETATM   36  C26 UNL     1      28.992  -2.094 -17.628  1.00  0.00     0.104 C
HETATM   37  C31 UNL     1      30.844  -3.114 -16.084  1.00  0.00    -0.010 C
HETATM   38  C27 UNL     1      27.598  -2.539 -18.115  1.00  0.00     0.053 C
HETATM   39  C28 UNL     1      29.905  -2.427 -18.777  1.00  0.00     0.156 C
HETATM   40  C29 UNL     1      30.400  -3.827 -18.487  1.00  0.00     0.036 C
HETATM   41  C30 UNL     1      31.338  -3.889 -17.337  1.00  0.00     0.017 C
HETATM   42  C32 UNL     1      31.454  -1.740 -16.066  1.00  0.00     0.021 C
BRANCH  36  43
HETATM   43  O4  UNL     1      28.851  -0.762 -17.355  1.00  0.00    -0.383 OA
ATOM     44  H4  UNL     1      29.636  -0.359 -17.004  1.00  0.00     0.211 HD
ENDBRANCH  36  43
BRANCH  39  45
HETATM   45  O5  UNL     1      29.206  -2.543 -20.006  1.00  0.00    -0.392 OA
ATOM     46  H5  UNL     1      28.429  -3.084 -19.930  1.00  0.00     0.210 HD
ENDBRANCH  39  45
ENDBRANCH  24  25
ENDBRANCH   1  24
TORSDOF 15
ENDMDL