MODEL 3
REMARK VINA RESULT: -6.743226314      2.219      2.991
REMARK  15 active torsions:
REMARK  status: ('A' for Active; 'I' for Inactive)
REMARK    1  A    between atoms: N1_1  and  S1_4
REMARK    2  A    between atoms: S1_4  and  C1_7
REMARK    3  A    between atoms: C1_7  and  C2_8
REMARK    4  A    between atoms: C2_8  and  C3_9
REMARK    5  A    between atoms: C3_9  and  C4_10
REMARK    6  A    between atoms: C4_10  and  C5_11
REMARK    7  A    between atoms: C5_11  and  C6_12
REMARK    8  A    between atoms: C6_12  and  S2_13
REMARK    9  A    between atoms: S2_13  and  C7_14
REMARK       I    between atoms: C7_14  and  N2_16
REMARK   10  A    between atoms: N2_16  and  C8_18
REMARK   11  A    between atoms: C8_18  and  C9_19
REMARK   12  A    between atoms: C9_19  and  C10_20
REMARK   13  A    between atoms: C10_20  and  C11_21
REMARK   14  A    between atoms: C11_21  and  C12_22
REMARK   15  A    between atoms: C17_28  and  O4_29
ROOT
HETATM    1  C8  UNL     1     -14.779   5.499  43.598  1.00  0.00     0.123 C
ENDROOT
BRANCH   1   2
HETATM    2  N2  UNL     1     -13.539   6.246  43.775  1.00  0.00    -0.352 N
HETATM    3  C7  UNL     1     -12.975   7.034  42.746  1.00  0.00     0.279 C
HETATM    4  O3  UNL     1     -13.481   7.167  41.604  1.00  0.00    -0.260 OA
ATOM      5  H2  UNL     1     -13.061   6.197  44.675  1.00  0.00     0.163 HD
BRANCH   3   6
HETATM    6  S2  UNL     1     -11.447   7.907  43.064  1.00  0.00    -0.069 SA
BRANCH   6   7
HETATM    7  C6  UNL     1     -11.577   8.930  44.554  1.00  0.00     0.084 C
BRANCH   7   8
HETATM    8  C5  UNL     1     -12.910   9.610  44.535  1.00  0.00     0.010 C
BRANCH   8   9
HETATM    9  C4  UNL     1     -12.913  10.895  43.766  1.00  0.00     0.001 C
BRANCH   9  10
HETATM   10  C3  UNL     1     -14.306  11.303  43.327  1.00  0.00     0.001 C
BRANCH  10  11
HETATM   11  C2  UNL     1     -14.343  11.327  41.834  1.00  0.00     0.017 C
BRANCH  11  12
HETATM   12  C1  UNL     1     -13.137  10.759  41.173  1.00  0.00     0.163 C
BRANCH  12  13
HETATM   13  S1  UNL     1     -13.053  11.027  39.443  1.00  0.00     0.224 S
HETATM   14  O1  UNL     1     -12.110  12.131  39.121  1.00  0.00    -0.206 OA
HETATM   15  O2  UNL     1     -14.392  11.376  38.827  1.00  0.00    -0.206 OA
BRANCH  13  16
HETATM   16  N1  UNL     1     -12.513   9.539  38.699  1.00  0.00    -0.328 N
ATOM     17  H12 UNL     1     -11.925   9.496  37.866  1.00  0.00     0.168 HD
ATOM     18  H11 UNL     1     -12.872   8.737  39.218  1.00  0.00     0.168 HD
ENDBRANCH  13  16
ENDBRANCH  12  13
ENDBRANCH  11  12
ENDBRANCH  10  11
ENDBRANCH   9  10
ENDBRANCH   8   9
ENDBRANCH   7   8
ENDBRANCH   6   7
ENDBRANCH   3   6
ENDBRANCH   1   2
BRANCH   1  19
HETATM   19  C9  UNL     1     -14.749   4.170  44.386  1.00  0.00     0.020 C
BRANCH  19  20
HETATM   20  C10 UNL     1     -14.682   4.427  45.843  1.00  0.00     0.002 C
BRANCH  20  21
HETATM   21  C11 UNL     1     -15.915   4.915  46.471  1.00  0.00     0.014 C
BRANCH  21  22
HETATM   22  C12 UNL     1     -15.853   6.097  47.369  1.00  0.00     0.082 C
HETATM   23  C13 UNL     1     -14.565   6.757  47.608  1.00  0.00     0.055 C
HETATM   24  C14 UNL     1     -14.606   8.257  47.639  1.00  0.00    -0.029 A
HETATM   25  C15 UNL     1     -13.425   8.885  47.992  1.00  0.00     0.036 A
HETATM   26  C19 UNL     1     -15.682   9.023  47.355  1.00  0.00     0.043 A
HETATM   27  C16 UNL     1     -13.326  10.269  48.058  1.00  0.00     0.067 A
HETATM   28 CL1  UNL     1     -11.838  11.060  48.503  1.00  0.00    -0.081 Cl
HETATM   29  C17 UNL     1     -14.416  11.055  47.771  1.00  0.00     0.089 A
HETATM   30  C18 UNL     1     -15.579  10.412  47.423  1.00  0.00     0.068 A
HETATM   31  N3  UNL     1     -16.884   8.402  46.997  1.00  0.00    -0.326 N
HETATM   32  C20 UNL     1     -16.966   7.006  46.936  1.00  0.00     0.226 C
ATOM     33  H3  UNL     1     -17.703   8.969  46.781  1.00  0.00     0.169 HD
HETATM   34  O5  UNL     1     -18.007   6.469  46.502  1.00  0.00    -0.273 OA
BRANCH  29  35
HETATM   35  O4  UNL     1     -14.355  12.454  47.828  1.00  0.00    -0.359 OA
ATOM     36  H4  UNL     1     -14.485  12.928  48.641  1.00  0.00     0.217 HD
ENDBRANCH  29  35
ENDBRANCH  21  22
ENDBRANCH  20  21
ENDBRANCH  19  20
ENDBRANCH   1  19
TORSDOF 15
ENDMDL