MODEL 5
REMARK VINA RESULT: -7.112327026      1.356      2.804
REMARK  13 active torsions:
REMARK  status: ('A' for Active; 'I' for Inactive)
REMARK    1  A    between atoms: C1_4  and  N2_5
REMARK    2  A    between atoms: C1_4  and  C7_16
REMARK    3  A    between atoms: N2_5  and  C2_7
REMARK    4  A    between atoms: N4_18  and  C9_19
REMARK    5  A    between atoms: C9_19  and  C10_20
REMARK    6  A    between atoms: C10_20  and  C11_21
REMARK    7  A    between atoms: C11_21  and  C12_22
REMARK    8  A    between atoms: C12_22  and  C13_23
REMARK    9  A    between atoms: C13_23  and  C14_24
REMARK   10  A    between atoms: C14_24  and  C15_25
REMARK   11  A    between atoms: C15_25  and  N5_26
REMARK   12  A    between atoms: N5_26  and  C16_27
REMARK   13  A    between atoms: N5_26  and  C20_35
ROOT
HETATM    1  C9  UNL     1     -14.622   4.264  44.928  1.00  0.00     0.272 C
ENDROOT
BRANCH   1   2
HETATM    2  N4  UNL     1     -13.931   5.249  44.154  1.00  0.00     0.090 N
HETATM    3  C8  UNL     1     -14.707   6.076  43.290  1.00  0.00     0.286 C
HETATM    4  C7  UNL     1     -13.721   7.192  43.556  1.00  0.00     0.109 C
HETATM    5  C25 UNL     1     -13.457   6.410  44.826  1.00  0.00     0.286 C
BRANCH   4   6
HETATM    6  C1  UNL     1     -12.545   7.238  42.663  1.00  0.00     0.082 C
HETATM    7  N1  UNL     1     -11.382   7.212  43.213  1.00  0.00    -0.388 N
ATOM      8  H12 UNL     1     -10.570   7.244  42.596  1.00  0.00     0.157 HD
ATOM      9  H11 UNL     1     -11.257   7.161  44.224  1.00  0.00     0.157 HD
BRANCH   6  10
HETATM   10  N2  UNL     1     -12.718   7.309  41.257  1.00  0.00    -0.345 N
ATOM     11  H2  UNL     1     -12.719   6.442  40.718  1.00  0.00     0.167 HD
BRANCH  10  12
HETATM   12  C2  UNL     1     -12.889   8.531  40.575  1.00  0.00     0.050 A
HETATM   13  C3  UNL     1     -12.488   8.747  39.273  1.00  0.00     0.121 A
HETATM   14  N3  UNL     1     -12.681   9.950  38.674  1.00  0.00    -0.330 N
HETATM   15  C4  UNL     1     -13.266  10.960  39.335  1.00  0.00     0.267 A
ATOM     16  H3  UNL     1     -12.377  10.087  37.710  1.00  0.00     0.168 HD
HETATM   17  O1  UNL     1     -13.437  12.065  38.768  1.00  0.00    -0.266 OA
HETATM   18  C5  UNL     1     -13.689  10.811  40.635  1.00  0.00     0.104 A
HETATM   19 CL1  UNL     1     -14.454  12.084  41.540  1.00  0.00    -0.078 Cl
HETATM   20  C6  UNL     1     -13.487   9.584  41.229  1.00  0.00     0.060 A
ENDBRANCH  10  12
ENDBRANCH   6  10
ENDBRANCH   4   6
ENDBRANCH   1   2
BRANCH   1  21
HETATM   21  C10 UNL     1     -16.085   4.492  45.073  1.00  0.00     0.030 C
BRANCH  21  22
HETATM   22  C11 UNL     1     -16.295   5.162  46.438  1.00  0.00     0.002 C
BRANCH  22  23
HETATM   23  C12 UNL     1     -16.973   6.472  46.215  1.00  0.00     0.000 C
BRANCH  23  24
HETATM   24  C13 UNL     1     -16.960   7.384  47.389  1.00  0.00     0.002 C
BRANCH  24  25
HETATM   25  C14 UNL     1     -16.207   8.641  47.144  1.00  0.00     0.020 C
BRANCH  25  26
HETATM   26  C15 UNL     1     -15.756   9.387  48.345  1.00  0.00     0.141 C
BRANCH  26  27
HETATM   27  N5  UNL     1     -14.325   9.704  48.349  1.00  0.00    -0.213 N
BRANCH  27  28
HETATM   28  C16 UNL     1     -13.892  10.844  47.651  1.00  0.00     0.672 C
HETATM   29  N6  UNL     1     -13.501  10.853  46.402  1.00  0.00    -0.226 N
HETATM   30  C17 UNL     1     -13.084  12.112  45.830  1.00  0.00     0.139 C
ATOM     31  H6  UNL     1     -13.490   9.996  45.850  1.00  0.00     0.177 HD
HETATM   32  C18 UNL     1     -12.154  12.873  46.749  1.00  0.00     0.040 C
HETATM   33  C19 UNL     1     -12.744  13.035  48.133  1.00  0.00     0.139 C
HETATM   34  N7  UNL     1     -13.863  12.128  48.287  1.00  0.00    -0.226 N
ATOM     35  H7  UNL     1     -14.654  12.412  48.865  1.00  0.00     0.177 HD
ENDBRANCH  27  28
BRANCH  27  36
HETATM   36  C20 UNL     1     -13.506   8.763  49.067  1.00  0.00     0.102 C
HETATM   37  C21 UNL     1     -12.812   7.731  48.266  1.00  0.00     0.026 C
HETATM   38  C22 UNL     1     -13.457   6.394  48.590  1.00  0.00     0.002 C
HETATM   39  C23 UNL     1     -14.050   6.567  49.976  1.00  0.00     0.002 C
HETATM   40  C24 UNL     1     -14.337   8.048  50.112  1.00  0.00     0.026 C
ENDBRANCH  27  36
ENDBRANCH  26  27
ENDBRANCH  25  26
ENDBRANCH  24  25
ENDBRANCH  23  24
ENDBRANCH  22  23
ENDBRANCH  21  22
ENDBRANCH   1  21
TORSDOF 13
ENDMDL