MODEL 5
REMARK VINA RESULT: -7.010453408      3.378      6.476
REMARK  17 active torsions:
REMARK  status: ('A' for Active; 'I' for Inactive)
REMARK    1  A    between atoms: C2_2  and  C4_4
REMARK    2  A    between atoms: C4_4  and  C5_5
REMARK    3  A    between atoms: C5_5  and  C6_6
REMARK    4  A    between atoms: C5_5  and  C13_13
REMARK    5  A    between atoms: C7_7  and  C8_8
REMARK    6  A    between atoms: C13_13  and  C14_14
REMARK    7  A    between atoms: C13_13  and  C20_23
REMARK    8  A    between atoms: C14_14  and  C15_15
REMARK    9  A    between atoms: C16_16  and  C17_17
REMARK   10  A    between atoms: C17_17  and  O1_18
REMARK   11  A    between atoms: C17_17  and  C18_20
REMARK   12  A    between atoms: C20_23  and  C21_24
REMARK   13  A    between atoms: C21_24  and  O3_26
REMARK   14  A    between atoms: O3_26  and  C22_27
REMARK   15  A    between atoms: C24_29  and  O4_30
REMARK   16  A    between atoms: C25_32  and  O5_33
REMARK   17  A    between atoms: C27_36  and  O6_37
ROOT
HETATM    1  C13 UNL     1     -11.797   8.821  44.413  1.00  0.00     0.006 C
ENDROOT
BRANCH   1   2
HETATM    2  C5  UNL     1     -12.321  10.208  44.103  1.00  0.00     0.013 C
BRANCH   2   3
HETATM    3  C4  UNL     1     -12.411  10.414  42.609  1.00  0.00     0.012 C
BRANCH   3   4
HETATM    4  C2  UNL     1     -13.678  10.385  41.915  1.00  0.00    -0.022 C
HETATM    5  C1  UNL     1     -14.478  11.592  41.672  1.00  0.00     0.009 C
HETATM    6  C3  UNL     1     -13.545   9.656  40.557  1.00  0.00     0.009 C
ENDBRANCH   3   4
ENDBRANCH   2   3
BRANCH   2   7
HETATM    7  C6  UNL     1     -13.594  10.570  44.756  1.00  0.00    -0.025 C
HETATM    8  C7  UNL     1     -14.035  10.449  45.958  1.00  0.00    -0.025 C
BRANCH   8   9
HETATM    9  C8  UNL     1     -15.413  10.946  46.308  1.00  0.00     0.016 A
HETATM   10  C9  UNL     1     -16.326  10.185  47.158  1.00  0.00     0.018 A
HETATM   11  C10 UNL     1     -15.791  11.522  47.588  1.00  0.00    -0.040 A
HETATM   12  C11 UNL     1     -16.732  12.720  47.538  1.00  0.00     0.015 C
HETATM   13  C12 UNL     1     -14.921  11.498  48.823  1.00  0.00     0.015 C
ENDBRANCH   8   9
ENDBRANCH   2   7
ENDBRANCH   1   2
BRANCH   1  14
HETATM   14  C14 UNL     1     -10.696   8.772  45.424  1.00  0.00     0.032 C
BRANCH  14  15
HETATM   15  C15 UNL     1     -10.842   7.531  46.293  1.00  0.00    -0.028 C
HETATM   16  C16 UNL     1      -9.795   6.778  46.606  1.00  0.00     0.002 C
BRANCH  16  17
HETATM   17  C17 UNL     1      -9.873   5.571  47.438  1.00  0.00     0.158 C
BRANCH  17  18
HETATM   18  O1  UNL     1     -11.092   4.907  47.331  1.00  0.00    -0.390 OA
ATOM     19  H1  UNL     1     -11.544   5.080  46.515  1.00  0.00     0.210 HD
ENDBRANCH  17  18
BRANCH  17  20
HETATM   20  C18 UNL     1      -8.751   4.637  46.971  1.00  0.00     0.110 C
HETATM   21  C19 UNL     1      -7.671   5.448  46.253  1.00  0.00     0.030 C
HETATM   22 CL1  UNL     1      -8.035   3.786  48.360  1.00  0.00    -0.122 Cl
ENDBRANCH  17  20
ENDBRANCH  16  17
ENDBRANCH  14  15
ENDBRANCH   1  14
BRANCH   1  23
HETATM   23  C20 UNL     1     -11.361   8.086  43.195  1.00  0.00     0.116 C
BRANCH  23  24
HETATM   24  C21 UNL     1     -12.370   7.077  42.824  1.00  0.00     0.259 C
HETATM   25  O2  UNL     1     -12.105   6.223  41.940  1.00  0.00    -0.265 OA
BRANCH  24  26
HETATM   26  O3  UNL     1     -13.627   6.990  43.388  1.00  0.00    -0.313 OA
BRANCH  26  27
HETATM   27  C22 UNL     1     -14.003   6.010  44.323  1.00  0.00     0.163 C
HETATM   28  C23 UNL     1     -14.349   6.537  45.670  1.00  0.00     0.069 C
HETATM   29  C24 UNL     1     -14.632   5.350  46.571  1.00  0.00     0.149 C
HETATM   30  C25 UNL     1     -15.942   4.752  46.047  1.00  0.00     0.149 C
HETATM   31  C26 UNL     1     -15.616   4.134  44.710  1.00  0.00     0.068 C
HETATM   32  C27 UNL     1     -15.070   5.120  43.727  1.00  0.00     0.150 C
BRANCH  29  33
HETATM   33  O4  UNL     1     -13.657   4.380  46.356  1.00  0.00    -0.393 OA
ATOM     34  H4  UNL     1     -12.839   4.679  46.734  1.00  0.00     0.210 HD
ENDBRANCH  29  33
BRANCH  30  35
HETATM   35  O5  UNL     1     -16.873   5.792  45.878  1.00  0.00    -0.393 OA
ATOM     36  H5  UNL     1     -16.547   6.384  45.210  1.00  0.00     0.210 HD
ENDBRANCH  30  35
BRANCH  32  37
HETATM   37  O6  UNL     1     -16.090   5.802  43.120  1.00  0.00    -0.393 OA
ATOM     38  H6  UNL     1     -16.287   5.501  42.241  1.00  0.00     0.210 HD
ENDBRANCH  32  37
ENDBRANCH  26  27
ENDBRANCH  24  26
ENDBRANCH  23  24
ENDBRANCH   1  23
TORSDOF 17
ENDMDL