MODEL 1
REMARK VINA RESULT: -6.903674878      0.000      0.000
REMARK  14 active torsions:
REMARK  status: ('A' for Active; 'I' for Inactive)
REMARK    1  A    between atoms: C1_4  and  C2_6
REMARK    2  A    between atoms: C3_8  and  C4_9
REMARK    3  A    between atoms: C5_10  and  C6_11
REMARK    4  A    between atoms: C6_11  and  O2_13
REMARK    5  A    between atoms: O2_13  and  C7_14
REMARK    6  A    between atoms: C7_14  and  C8_15
REMARK    7  A    between atoms: C8_15  and  C9_16
REMARK    8  A    between atoms: C9_16  and  C10_17
REMARK    9  A    between atoms: C10_17  and  C11_18
REMARK   10  A    between atoms: C11_18  and  C12_19
REMARK   11  A    between atoms: C12_19  and  N3_20
REMARK       I    between atoms: N3_20  and  C13_22
REMARK       I    between atoms: C13_22  and  N4_24
REMARK   12  A    between atoms: C17_28  and  C18_29
REMARK   13  A    between atoms: C20_33  and  C21_34
REMARK   14  A    between atoms: C21_34  and  C22_35
ROOT
HETATM    1  O2  UNL     1     -14.365  11.630  47.862  1.00  0.00    -0.318 OA
ENDROOT
BRANCH   1   2
HETATM    2  C6  UNL     1     -15.258  11.484  46.858  1.00  0.00     0.282 C
HETATM    3  O1  UNL     1     -16.470  11.780  47.002  1.00  0.00    -0.260 OA
BRANCH   2   4
HETATM    4  C5  UNL     1     -14.880  10.969  45.528  1.00  0.00     0.083 C
HETATM    5  C4  UNL     1     -13.999  11.591  44.775  1.00  0.00     0.025 C
BRANCH   5   6
HETATM    6  C3  UNL     1     -13.686  11.009  43.471  1.00  0.00     0.006 A
HETATM    7  S1  UNL     1     -13.668  11.777  41.968  1.00  0.00    -0.086 SA
HETATM    8  C2  UNL     1     -13.214  10.436  40.959  1.00  0.00     0.056 A
HETATM    9  C20 UNL     1     -13.094   9.411  41.882  1.00  0.00    -0.014 A
HETATM   10  C19 UNL     1     -13.340   9.725  43.160  1.00  0.00     0.031 A
BRANCH   8  11
HETATM   11  C1  UNL     1     -13.025  10.490  39.502  1.00  0.00     0.128 C
HETATM   12  N1  UNL     1     -12.535   9.699  38.733  1.00  0.00    -0.387 N
ATOM     13  H12 UNL     1     -12.403   9.737  37.722  1.00  0.00     0.157 HD
ATOM     14  H11 UNL     1     -12.184   8.838  39.154  1.00  0.00     0.157 HD
HETATM   15  N2  UNL     1     -13.531  11.734  38.894  1.00  0.00    -0.082 NA
ENDBRANCH   8  11
BRANCH   9  16
HETATM   16  C21 UNL     1     -12.727   8.056  41.424  1.00  0.00     0.025 C
BRANCH  16  17
HETATM   17  C22 UNL     1     -11.670   7.350  41.687  1.00  0.00     0.085 C
HETATM   18 CL1  UNL     1     -10.582   7.498  43.019  1.00  0.00    -0.097 Cl
ENDBRANCH  16  17
ENDBRANCH   9  16
ENDBRANCH   5   6
ENDBRANCH   2   4
ENDBRANCH   1   2
BRANCH   1  19
HETATM   19  C7  UNL     1     -13.735  12.853  48.233  1.00  0.00     0.179 C
BRANCH  19  20
HETATM   20  C8  UNL     1     -12.275  12.755  47.998  1.00  0.00     0.027 C
BRANCH  20  21
HETATM   21  C9  UNL     1     -11.625  11.453  47.855  1.00  0.00     0.002 C
BRANCH  21  22
HETATM   22  C10 UNL     1     -10.900  11.136  46.623  1.00  0.00     0.002 C
BRANCH  22  23
HETATM   23  C11 UNL     1     -10.910   9.736  46.166  1.00  0.00     0.020 C
BRANCH  23  24
HETATM   24  C12 UNL     1     -11.912   8.909  47.007  1.00  0.00     0.124 C
BRANCH  24  25
HETATM   25  N3  UNL     1     -12.623   8.034  46.151  1.00  0.00    -0.343 N
HETATM   26  C13 UNL     1     -13.948   7.611  46.369  1.00  0.00     0.319 C
HETATM   27  O3  UNL     1     -14.593   7.984  47.357  1.00  0.00    -0.247 OA
HETATM   28  N4  UNL     1     -14.601   6.716  45.432  1.00  0.00    -0.320 N
HETATM   29  C14 UNL     1     -13.972   6.211  44.250  1.00  0.00     0.129 C
HETATM   30  C17 UNL     1     -15.928   6.209  45.534  1.00  0.00     0.190 C
HETATM   31  C15 UNL     1     -15.112   6.009  43.263  1.00  0.00     0.022 C
HETATM   32  C16 UNL     1     -16.261   5.665  44.181  1.00  0.00     0.038 C
ATOM     33  H3  UNL     1     -12.144   7.687  45.319  1.00  0.00     0.164 HD
BRANCH  30  34
HETATM   34  C18 UNL     1     -16.025   5.086  46.503  1.00  0.00     0.197 C
HETATM   35  O4  UNL     1     -16.702   5.214  47.547  1.00  0.00    -0.646 OA
HETATM   36  O5  UNL     1     -15.366   3.911  46.238  1.00  0.00    -0.646 OA
ENDBRANCH  30  34
ENDBRANCH  24  25
ENDBRANCH  23  24
ENDBRANCH  22  23
ENDBRANCH  21  22
ENDBRANCH  20  21
ENDBRANCH  19  20
ENDBRANCH   1  19
TORSDOF 14
ENDMDL