MODEL 3
REMARK VINA RESULT: -7.070837934      3.227      8.058
REMARK  14 active torsions:
REMARK  status: ('A' for Active; 'I' for Inactive)
REMARK       I    between atoms: C2_2  and  N1_4
REMARK    1  A    between atoms: N1_4  and  C3_6
REMARK    2  A    between atoms: C3_6  and  C5_8
REMARK    3  A    between atoms: C5_8  and  C6_9
REMARK    4  A    between atoms: C7_10  and  C8_11
REMARK    5  A    between atoms: C8_11  and  N2_12
REMARK    6  A    between atoms: N2_12  and  C9_14
REMARK    7  A    between atoms: C10_16  and  O3_17
REMARK    8  A    between atoms: C12_20  and  O4_21
REMARK    9  A    between atoms: O4_21  and  C13_22
REMARK   10  A    between atoms: C17_26  and  C18_27
REMARK   11  A    between atoms: C18_27  and  C20_29
REMARK   12  A    between atoms: C20_29  and  C21_30
REMARK   13  A    between atoms: C21_30  and  O5_31
REMARK   14  A    between atoms: C21_30  and  C22_33
ROOT
HETATM    1  C9  UNL     1     -12.563  12.338  48.502  1.00  0.00     0.249 C
HETATM    2  O2  UNL     1     -12.090  13.176  49.502  1.00  0.00    -0.335 OA
HETATM    3  C10 UNL     1     -10.993  12.607  50.069  1.00  0.00     0.262 C
HETATM    4  C11 UNL     1     -10.705  11.290  49.451  1.00  0.00     0.097 C
HETATM    5  C12 UNL     1     -11.982  10.966  48.712  1.00  0.00     0.175 C
ENDROOT
BRANCH   5   6
HETATM    6  O4  UNL     1     -12.883  10.264  49.482  1.00  0.00    -0.376 OA
BRANCH   6   7
HETATM    7  C13 UNL     1     -13.395   9.094  48.876  1.00  0.00     0.126 C
HETATM    8  C14 UNL     1     -12.548   8.805  47.658  1.00  0.00     0.032 C
HETATM    9  C15 UNL     1     -12.695   7.416  47.151  1.00  0.00     0.003 C
HETATM   10  C16 UNL     1     -13.818   7.216  46.200  1.00  0.00     0.005 C
HETATM   11  C17 UNL     1     -15.163   7.376  46.973  1.00  0.00    -0.010 C
HETATM   12  C23 UNL     1     -15.318   8.797  47.210  1.00  0.00     0.011 C
HETATM   13  C24 UNL     1     -14.780   9.376  48.481  1.00  0.00     0.011 C
HETATM   14  C25 UNL     1     -15.726   8.911  49.603  1.00  0.00     0.012 C
BRANCH  11  15
HETATM   15  C18 UNL     1     -16.216   6.574  46.296  1.00  0.00    -0.012 C
HETATM   16  C19 UNL     1     -17.526   6.791  47.121  1.00  0.00     0.010 C
BRANCH  15  17
HETATM   17  C20 UNL     1     -16.048   5.141  46.120  1.00  0.00     0.037 C
BRANCH  17  18
HETATM   18  C21 UNL     1     -16.139   4.530  44.771  1.00  0.00     0.132 C
BRANCH  18  19
HETATM   19  O5  UNL     1     -17.184   5.345  44.066  1.00  0.00    -0.394 OA
ATOM     20  H5  UNL     1     -16.885   5.381  43.165  1.00  0.00     0.210 HD
ENDBRANCH  18  19
BRANCH  18  21
HETATM   21  C22 UNL     1     -14.943   4.757  43.864  1.00  0.00     0.146 C
HETATM   22 CL1  UNL     1     -14.917   6.229  42.982  1.00  0.00    -0.128 Cl
ENDBRANCH  18  21
ENDBRANCH  17  18
ENDBRANCH  15  17
ENDBRANCH  11  15
ENDBRANCH   6   7
ENDBRANCH   5   6
BRANCH   1  23
HETATM   23  N2  UNL     1     -12.400  12.890  47.202  1.00  0.00    -0.392 N
ATOM     24  H2  UNL     1     -12.329  13.897  47.056  1.00  0.00     0.156 HD
BRANCH  23  25
HETATM   25  C8  UNL     1     -12.339  11.974  46.112  1.00  0.00     0.143 C
BRANCH  25  26
HETATM   26  C7  UNL     1     -13.728  11.715  45.664  1.00  0.00    -0.012 C
HETATM   27  C6  UNL     1     -14.106  10.987  44.654  1.00  0.00    -0.027 C
BRANCH  27  28
HETATM   28  C5  UNL     1     -13.283  10.237  43.707  1.00  0.00     0.051 C
BRANCH  28  29
HETATM   29  C3  UNL     1     -13.362  10.771  42.281  1.00  0.00     0.083 C
HETATM   30  C4  UNL     1     -14.539  11.630  42.015  1.00  0.00     0.032 C
BRANCH  29  31
HETATM   31  N1  UNL     1     -13.195   9.686  41.322  1.00  0.00    -0.357 N
HETATM   32  C2  UNL     1     -12.642   9.867  40.033  1.00  0.00     0.213 C
HETATM   33  C1  UNL     1     -12.518   8.696  39.136  1.00  0.00     0.117 C
HETATM   34  O1  UNL     1     -12.257  10.994  39.640  1.00  0.00    -0.274 OA
ATOM     35  H1  UNL     1     -13.493   8.749  41.594  1.00  0.00     0.162 HD
ENDBRANCH  29  31
ENDBRANCH  28  29
ENDBRANCH  27  28
ENDBRANCH  25  26
ENDBRANCH  23  25
ENDBRANCH   1  23
BRANCH   3  36
HETATM   36  O3  UNL     1     -11.122  12.551  51.460  1.00  0.00    -0.371 OA
ATOM     37  H3  UNL     1     -12.009  12.319  51.710  1.00  0.00     0.212 HD
ENDBRANCH   3  36
TORSDOF 14
ENDMDL