MODEL 3
REMARK VINA RESULT: -6.522866556      4.423      7.981
REMARK  17 active torsions:
REMARK  status: ('A' for Active; 'I' for Inactive)
REMARK    1  A    between atoms: C3_3  and  C4_4
REMARK    2  A    between atoms: C8_8  and  C10_10
REMARK    3  A    between atoms: C10_10  and  C11_12
REMARK    4  A    between atoms: C11_12  and  O2_13
REMARK    5  A    between atoms: C11_12  and  C12_15
REMARK    6  A    between atoms: C12_15  and  N1_17
REMARK    7  A    between atoms: C12_15  and  C14_21
REMARK    8  A    between atoms: C15_22  and  C16_23
REMARK    9  A    between atoms: C16_23  and  O3_24
REMARK   10  A    between atoms: C16_23  and  C20_35
REMARK   11  A    between atoms: O3_24  and  C17_25
REMARK       I    between atoms: C17_25  and  N2_27
REMARK   12  A    between atoms: N2_27  and  C18_29
REMARK   13  A    between atoms: C18_29  and  N3_31
REMARK   14  A    between atoms: C20_35  and  O5_36
REMARK   15  A    between atoms: C21_38  and  C23_40
REMARK   16  A    between atoms: C23_40  and  C24_41
REMARK   17  A    between atoms: C23_40  and  C26_43
ROOT
HETATM    1  C1  UNL     1     -17.517   9.438  50.753  1.00  0.00     0.112 C
HETATM    2  C2  UNL     1     -17.010  10.256  49.653  1.00  0.00    -0.110 C
HETATM    3  C3  UNL     1     -16.597  10.914  48.733  1.00  0.00    -0.092 C
ENDROOT
BRANCH   3   4
HETATM    4  C4  UNL     1     -16.088  11.701  47.590  1.00  0.00     0.048 A
HETATM    5  C5  UNL     1     -16.614  13.115  47.468  1.00  0.00     0.034 C
HETATM    6  C6  UNL     1     -15.702  11.018  46.388  1.00  0.00     0.063 A
HETATM    7  C7  UNL     1     -14.618  11.489  47.357  1.00  0.00    -0.048 A
HETATM    8  C8  UNL     1     -13.343  11.595  47.679  1.00  0.00    -0.009 C
HETATM    9  C9  UNL     1     -12.995  12.274  48.949  1.00  0.00     0.052 C
BRANCH   8  10
HETATM   10  C10 UNL     1     -12.314  11.066  46.822  1.00  0.00     0.186 C
HETATM   11  O1  UNL     1     -12.354  11.450  45.598  1.00  0.00    -0.290 OA
BRANCH  10  12
HETATM   12  C11 UNL     1     -11.230  10.153  47.154  1.00  0.00     0.231 C
BRANCH  12  13
HETATM   13  O2  UNL     1     -10.011  10.773  46.909  1.00  0.00    -0.385 OA
ATOM     14  H2  UNL     1      -9.364  10.453  47.526  1.00  0.00     0.210 HD
ENDBRANCH  12  13
BRANCH  12  15
HETATM   15  C12 UNL     1     -11.321   8.804  46.493  1.00  0.00     0.170 C
HETATM   16  C13 UNL     1     -10.774   8.774  45.109  1.00  0.00     0.054 C
BRANCH  15  17
HETATM   17  N1  UNL     1     -10.671   7.770  47.289  1.00  0.00    -0.064 N
ATOM     18  H13 UNL     1      -9.883   7.356  46.791  1.00  0.00     0.275 HD
ATOM     19  H12 UNL     1     -10.166   8.171  48.079  1.00  0.00     0.275 HD
ATOM     20  H11 UNL     1     -11.334   7.057  47.594  1.00  0.00     0.275 HD
ENDBRANCH  15  17
BRANCH  15  21
HETATM   21  C14 UNL     1     -12.768   8.420  46.429  1.00  0.00     0.013 C
HETATM   22  C15 UNL     1     -13.208   7.324  45.892  1.00  0.00     0.011 C
BRANCH  22  23
HETATM   23  C16 UNL     1     -14.721   7.039  45.887  1.00  0.00     0.213 C
BRANCH  23  24
HETATM   24  O3  UNL     1     -15.086   6.835  44.569  1.00  0.00    -0.288 OA
BRANCH  24  25
HETATM   25  C17 UNL     1     -14.193   6.589  43.529  1.00  0.00     0.363 C
HETATM   26  O4  UNL     1     -13.854   5.406  43.325  1.00  0.00    -0.238 OA
HETATM   27  N2  UNL     1     -13.724   7.687  42.767  1.00  0.00    -0.309 N
ATOM     28  H2  UNL     1     -14.046   8.629  42.994  1.00  0.00     0.166 HD
BRANCH  27  29
HETATM   29  C18 UNL     1     -12.796   7.497  41.676  1.00  0.00     0.281 C
HETATM   30  C19 UNL     1     -12.583   8.804  40.941  1.00  0.00     0.063 C
BRANCH  29  31
HETATM   31  N3  UNL     1     -11.567   6.952  42.200  1.00  0.00    -0.059 N
ATOM     32  H33 UNL     1     -11.720   6.114  42.761  1.00  0.00     0.276 HD
ATOM     33  H32 UNL     1     -10.987   6.533  41.474  1.00  0.00     0.276 HD
ATOM     34  H31 UNL     1     -11.077   7.682  42.717  1.00  0.00     0.276 HD
ENDBRANCH  29  31
ENDBRANCH  27  29
ENDBRANCH  24  25
ENDBRANCH  23  24
BRANCH  23  35
HETATM   35  C20 UNL     1     -14.896   5.937  46.863  1.00  0.00     0.082 C
HETATM   36  C21 UNL     1     -15.719   6.056  48.041  1.00  0.00    -0.028 C
HETATM   37  C22 UNL     1     -15.264   7.234  48.928  1.00  0.00     0.051 C
BRANCH  35  38
HETATM   38  O5  UNL     1     -15.080   4.764  46.111  1.00  0.00    -0.361 OA
ATOM     39  H5  UNL     1     -15.800   4.294  46.516  1.00  0.00     0.217 HD
ENDBRANCH  35  38
BRANCH  36  40
HETATM   40  C23 UNL     1     -17.161   5.893  48.139  1.00  0.00    -0.072 C
BRANCH  40  41
HETATM   41  C24 UNL     1     -17.778   5.119  49.234  1.00  0.00     0.030 C
HETATM   42  C25 UNL     1     -18.841   6.012  49.907  1.00  0.00     0.010 C
ENDBRANCH  40  41
BRANCH  40  43
HETATM   43  C26 UNL     1     -17.923   7.206  47.871  1.00  0.00     0.030 C
HETATM   44  C27 UNL     1     -18.320   7.177  46.410  1.00  0.00     0.010 C
ENDBRANCH  40  43
ENDBRANCH  36  40
ENDBRANCH  23  35
ENDBRANCH  22  23
ENDBRANCH  15  21
ENDBRANCH  12  15
ENDBRANCH  10  12
ENDBRANCH   8  10
ENDBRANCH   3   4
TORSDOF 17
ENDMDL