MODEL 4
REMARK VINA RESULT: -6.697387993      2.049      4.534
REMARK  18 active torsions:
REMARK  status: ('A' for Active; 'I' for Inactive)
REMARK    1  A    between atoms: C2_2  and  C3_3
REMARK    2  A    between atoms: C2_2  and  C13_18
REMARK    3  A    between atoms: C3_3  and  O1_4
REMARK    4  A    between atoms: C3_3  and  C4_6
REMARK    5  A    between atoms: C4_6  and  O2_7
REMARK    6  A    between atoms: C4_6  and  C5_9
REMARK    7  A    between atoms: C5_9  and  C6_10
REMARK    8  A    between atoms: C6_10  and  C7_11
REMARK    9  A    between atoms: C7_11  and  C8_12
REMARK   10  A    between atoms: C13_18  and  O4_19
REMARK   11  A    between atoms: C13_18  and  C14_21
REMARK   12  A    between atoms: C14_21  and  C17_24
REMARK   13  A    between atoms: C17_24  and  O5_25
REMARK   14  A    between atoms: C17_24  and  C18_27
REMARK   15  A    between atoms: C18_27  and  N1_28
REMARK   16  A    between atoms: N1_28  and  N2_30
REMARK   17  A    between atoms: N2_30  and  N3_31
REMARK   18  A    between atoms: C22_37  and  C23_38
ROOT
HETATM    1  C14 UNL     1     -13.470   8.015  48.114  1.00  0.00     0.008 C
HETATM    2  C15 UNL     1     -14.264   8.619  49.211  1.00  0.00     0.020 C
HETATM    3  C16 UNL     1     -12.691   6.888  48.862  1.00  0.00     0.020 C
ENDROOT
BRANCH   1   4
HETATM    4  C13 UNL     1     -14.183   7.291  47.023  1.00  0.00     0.134 C
BRANCH   4   5
HETATM    5  C2  UNL     1     -13.499   6.688  45.881  1.00  0.00     0.042 C
HETATM    6  C1  UNL     1     -13.962   5.184  45.765  1.00  0.00     0.015 C
BRANCH   5   7
HETATM    7  C3  UNL     1     -14.034   7.208  44.520  1.00  0.00     0.153 C
BRANCH   7   8
HETATM    8  O1  UNL     1     -13.891   8.559  44.436  1.00  0.00    -0.393 OA
ATOM      9  H1  UNL     1     -14.740   8.979  44.362  1.00  0.00     0.210 HD
ENDBRANCH   7   8
BRANCH   7  10
HETATM   10  C4  UNL     1     -13.244   6.581  43.397  1.00  0.00     0.147 C
BRANCH  10  11
HETATM   11  O2  UNL     1     -11.886   6.903  43.492  1.00  0.00    -0.393 OA
ATOM     12  H2  UNL     1     -11.514   6.589  44.308  1.00  0.00     0.210 HD
ENDBRANCH  10  11
BRANCH  10  13
HETATM   13  C5  UNL     1     -13.699   7.255  42.092  1.00  0.00     0.034 C
BRANCH  13  14
HETATM   14  C6  UNL     1     -12.545   7.381  41.150  1.00  0.00     0.005 C
BRANCH  14  15
HETATM   15  C7  UNL     1     -12.176   8.766  40.752  1.00  0.00     0.032 C
BRANCH  15  16
HETATM   16  C8  UNL     1     -12.998   9.871  41.301  1.00  0.00     0.121 C
HETATM   17  C9  UNL     1     -13.727  10.672  40.243  1.00  0.00     0.032 C
HETATM   18  C10 UNL     1     -14.778  11.514  40.954  1.00  0.00     0.004 C
HETATM   19  C11 UNL     1     -14.231  12.202  42.163  1.00  0.00     0.026 C
HETATM   20  C12 UNL     1     -13.242  11.391  42.940  1.00  0.00     0.168 C
HETATM   21  O3  UNL     1     -12.311  10.737  42.127  1.00  0.00    -0.386 OA
ENDBRANCH  15  16
ENDBRANCH  14  15
ENDBRANCH  13  14
ENDBRANCH  10  13
ENDBRANCH   7  10
ENDBRANCH   5   7
ENDBRANCH   4   5
BRANCH   4  22
HETATM   22  O4  UNL     1     -15.424   7.818  46.643  1.00  0.00    -0.394 OA
ATOM     23  H4  UNL     1     -15.962   7.155  46.226  1.00  0.00     0.210 HD
ENDBRANCH   4  22
ENDBRANCH   1   4
BRANCH   1  24
HETATM   24  C17 UNL     1     -12.493   8.925  47.430  1.00  0.00     0.166 C
BRANCH  24  25
HETATM   25  O5  UNL     1     -11.234   8.505  47.984  1.00  0.00    -0.392 OA
ATOM     26  H5  UNL     1     -10.613   8.773  47.316  1.00  0.00     0.210 HD
ENDBRANCH  24  25
BRANCH  24  27
HETATM   27  C18 UNL     1     -12.521  10.362  47.548  1.00  0.00     0.146 C
HETATM   28  C19 UNL     1     -12.023  10.991  48.790  1.00  0.00     0.044 C
HETATM   29  C20 UNL     1     -11.826  12.486  48.468  1.00  0.00     0.004 C
HETATM   30  C21 UNL     1     -13.196  13.109  48.447  1.00  0.00     0.013 C
HETATM   31  C22 UNL     1     -14.171  12.387  47.582  1.00  0.00     0.072 C
HETATM   32  C24 UNL     1     -13.729  11.095  47.071  1.00  0.00     0.165 C
HETATM   33  O6  UNL     1     -14.385  10.570  46.189  1.00  0.00    -0.295 OA
BRANCH  27  34
HETATM   34  N1  UNL     1     -11.531  10.803  46.494  1.00  0.00    -0.233 N
ATOM     35  H1  UNL     1     -11.083  11.720  46.520  1.00  0.00     0.198 HD
BRANCH  34  36
HETATM   36  N2  UNL     1     -11.301   9.999  45.614  1.00  0.00    -0.247 NA
BRANCH  36  37
HETATM   37  N3  UNL     1     -10.967   9.267  44.683  1.00  0.00    -0.261 N
ATOM     38  H32 UNL     1     -10.852   8.580  45.428  1.00  0.00     0.193 HD
ATOM     39  H31 UNL     1     -10.707   8.748  43.844  1.00  0.00     0.193 HD
ENDBRANCH  36  37
ENDBRANCH  34  36
ENDBRANCH  27  34
BRANCH  31  40
HETATM   40  C23 UNL     1     -15.465  12.213  48.341  1.00  0.00     0.127 C
HETATM   41 CL1  UNL     1     -16.826  13.068  47.617  1.00  0.00    -0.130 Cl
ENDBRANCH  31  40
ENDBRANCH  24  27
ENDBRANCH   1  24
TORSDOF 18
ENDMDL