MODEL 3
REMARK VINA RESULT: -6.828511302      2.136      5.524
REMARK  16 active torsions:
REMARK  status: ('A' for Active; 'I' for Inactive)
REMARK    1  A    between atoms: C2_2  and  O2_4
REMARK    2  A    between atoms: O2_4  and  C3_5
REMARK    3  A    between atoms: C3_5  and  C4_6
REMARK    4  A    between atoms: C3_5  and  C26_34
REMARK    5  A    between atoms: C4_6  and  C5_7
REMARK    6  A    between atoms: C5_7  and  N1_8
REMARK    7  A    between atoms: N1_8  and  C6_10
REMARK    8  A    between atoms: C6_10  and  O3_12
REMARK    9  A    between atoms: C6_10  and  C8_14
REMARK   10  A    between atoms: C8_14  and  C9_15
REMARK   11  A    between atoms: C9_15  and  C10_16
REMARK   12  A    between atoms: C10_16  and  C11_17
REMARK   13  A    between atoms: C11_17  and  C12_19
REMARK   14  A    between atoms: C12_19  and  C13_20
REMARK   15  A    between atoms: C13_20  and  C14_21
REMARK       I    between atoms: C26_34  and  N2_36
REMARK   16  A    between atoms: N2_36  and  N3_38
ROOT
HETATM    1  C5  UNL     1     -14.634   9.254  47.145  1.00  0.00     0.061 C
HETATM    2  C21 UNL     1     -14.609  10.045  45.888  1.00  0.00     0.033 C
HETATM    3  C22 UNL     1     -14.949  11.480  45.928  1.00  0.00     0.003 C
HETATM    4  C23 UNL     1     -15.782  11.978  47.049  1.00  0.00     0.003 C
HETATM    5  C24 UNL     1     -16.111  11.000  48.131  1.00  0.00     0.040 C
HETATM    6  C25 UNL     1     -14.909  10.149  48.368  1.00  0.00     0.198 C
HETATM    7  F1  UNL     1     -15.028   9.327  49.470  1.00  0.00    -0.247 F
ENDROOT
BRANCH   1   8
HETATM    8  C4  UNL     1     -13.369   8.561  47.428  1.00  0.00     0.076 C
BRANCH   8   9
HETATM    9  C3  UNL     1     -12.125   8.722  46.631  1.00  0.00     0.227 C
BRANCH   9  10
HETATM   10  O2  UNL     1     -11.401   9.704  47.527  1.00  0.00    -0.306 OA
BRANCH  10  11
HETATM   11  C2  UNL     1     -11.068  10.930  47.015  1.00  0.00     0.255 C
HETATM   12  C1  UNL     1     -11.752  12.139  47.515  1.00  0.00     0.126 C
HETATM   13  O1  UNL     1     -10.191  11.016  46.133  1.00  0.00    -0.266 OA
ENDBRANCH  10  11
ENDBRANCH   9  10
BRANCH   9  14
HETATM   14  C26 UNL     1     -11.141   7.630  46.597  1.00  0.00     0.265 C
HETATM   15  O5  UNL     1     -11.510   6.466  47.019  1.00  0.00    -0.269 OA
HETATM   16  N2  UNL     1      -9.807   7.698  46.158  1.00  0.00    -0.274 N
ATOM     17  H2  UNL     1      -9.442   8.585  45.809  1.00  0.00     0.189 HD
BRANCH  16  18
HETATM   18  N3  UNL     1      -8.978   6.588  46.187  1.00  0.00    -0.343 N
ATOM     19  H32 UNL     1      -8.936   6.040  47.045  1.00  0.00     0.176 HD
ATOM     20  H31 UNL     1      -8.420   6.320  45.376  1.00  0.00     0.176 HD
ENDBRANCH  16  18
ENDBRANCH   9  14
ENDBRANCH   8   9
ENDBRANCH   1   8
BRANCH   1  21
HETATM   21  N1  UNL     1     -15.661   8.266  47.156  1.00  0.00    -0.380 N
ATOM     22  H1  UNL     1     -16.594   8.647  46.995  1.00  0.00     0.157 HD
BRANCH  21  23
HETATM   23  C6  UNL     1     -15.652   6.940  47.333  1.00  0.00     0.124 C
HETATM   24  C7  UNL     1     -16.264   6.319  48.599  1.00  0.00     0.070 C
BRANCH  23  25
HETATM   25  O3  UNL     1     -14.514   6.186  47.041  1.00  0.00    -0.372 OA
ATOM     26  H3  UNL     1     -14.447   5.279  47.314  1.00  0.00     0.212 HD
ENDBRANCH  23  25
BRANCH  23  27
HETATM   27  C8  UNL     1     -16.655   6.383  46.257  1.00  0.00     0.060 C
BRANCH  27  28
HETATM   28  C9  UNL     1     -16.152   5.205  45.520  1.00  0.00     0.012 C
BRANCH  28  29
HETATM   29  C10 UNL     1     -16.126   5.580  44.029  1.00  0.00     0.083 C
BRANCH  29  30
HETATM   30  C11 UNL     1     -14.689   5.772  43.603  1.00  0.00     0.145 C
HETATM   31  O4  UNL     1     -14.157   4.748  43.198  1.00  0.00    -0.294 OA
BRANCH  30  32
HETATM   32  C12 UNL     1     -14.028   7.051  43.680  1.00  0.00     0.024 C
BRANCH  32  33
HETATM   33  C13 UNL     1     -12.672   7.321  43.253  1.00  0.00     0.035 C
BRANCH  33  34
HETATM   34  C14 UNL     1     -12.402   8.263  42.144  1.00  0.00    -0.011 C
HETATM   35  C15 UNL     1     -13.115   7.969  40.888  1.00  0.00     0.005 C
HETATM   36  C16 UNL     1     -12.885   9.075  39.828  1.00  0.00     0.001 C
HETATM   37  C17 UNL     1     -13.102  10.442  40.382  1.00  0.00     0.004 C
HETATM   38  C18 UNL     1     -13.757  10.304  41.749  1.00  0.00    -0.018 C
HETATM   39  C19 UNL     1     -14.156  11.651  42.314  1.00  0.00     0.010 C
HETATM   40  C20 UNL     1     -12.731   9.690  42.656  1.00  0.00     0.009 C
ENDBRANCH  33  34
ENDBRANCH  32  33
ENDBRANCH  30  32
ENDBRANCH  29  30
ENDBRANCH  28  29
ENDBRANCH  27  28
ENDBRANCH  23  27
ENDBRANCH  21  23
ENDBRANCH   1  21
TORSDOF 16
ENDMDL