MODEL 1
REMARK VINA RESULT: -7.770908868      0.000      0.000
REMARK  13 active torsions:
REMARK  status: ('A' for Active; 'I' for Inactive)
REMARK    1  A    between atoms: C1_4  and  N2_5
REMARK    2  A    between atoms: C1_4  and  C13_25
REMARK    3  A    between atoms: N2_5  and  C2_7
REMARK    4  A    between atoms: C2_7  and  C3_8
REMARK    5  A    between atoms: C3_8  and  C4_9
REMARK    6  A    between atoms: C4_9  and  C5_10
REMARK    7  A    between atoms: C5_10  and  C6_11
REMARK    8  A    between atoms: C6_11  and  C7_12
REMARK    9  A    between atoms: C7_12  and  C8_13
REMARK   10  A    between atoms: C8_13  and  N3_14
REMARK   11  A    between atoms: N3_14  and  S1_16
REMARK   12  A    between atoms: S1_16  and  C9_19
REMARK   13  A    between atoms: C15_31  and  C16_32
ROOT
HETATM    1  N2  UNL     1     -12.819   6.960  42.594  1.00  0.00    -0.378 N
ATOM      2  H2  UNL     1     -12.007   6.411  42.877  1.00  0.00     0.160 HD
ENDROOT
BRANCH   1   3
HETATM    3  C1  UNL     1     -12.685   7.863  41.511  1.00  0.00     0.103 C
HETATM    4  N1  UNL     1     -11.818   7.571  40.595  1.00  0.00    -0.387 N
ATOM      5  H12 UNL     1     -11.250   6.725  40.645  1.00  0.00     0.157 HD
ATOM      6  H11 UNL     1     -11.722   8.221  39.816  1.00  0.00     0.157 HD
BRANCH   3   7
HETATM    7  C13 UNL     1     -13.511   9.093  41.439  1.00  0.00     0.223 C
HETATM    8  O3  UNL     1     -13.437   9.556  40.079  1.00  0.00    -0.289 OA
HETATM    9  C14 UNL     1     -13.586  10.945  40.111  1.00  0.00     0.361 C
HETATM   10  O4  UNL     1     -13.746  11.724  39.112  1.00  0.00    -0.238 OA
HETATM   11  N4  UNL     1     -13.531  11.379  41.465  1.00  0.00    -0.329 N
HETATM   12  C15 UNL     1     -12.953  10.256  42.192  1.00  0.00     0.128 C
ATOM     13  H4  UNL     1     -13.830  12.278  41.843  1.00  0.00     0.165 HD
BRANCH  12  14
HETATM   14  C16 UNL     1     -13.315  10.299  43.654  1.00  0.00     0.011 C
HETATM   15  C17 UNL     1     -12.023   9.947  44.410  1.00  0.00     0.007 C
HETATM   16  C18 UNL     1     -12.426   9.796  45.877  1.00  0.00     0.000 C
HETATM   17  C19 UNL     1     -12.960  11.121  46.408  1.00  0.00     0.000 C
HETATM   18  C20 UNL     1     -14.191  11.468  45.595  1.00  0.00     0.000 C
HETATM   19  C21 UNL     1     -13.705  11.661  44.152  1.00  0.00     0.007 C
ENDBRANCH  12  14
ENDBRANCH   3   7
ENDBRANCH   1   3
BRANCH   1  20
HETATM   20  C2  UNL     1     -14.066   6.784  43.318  1.00  0.00     0.121 C
BRANCH  20  21
HETATM   21  C3  UNL     1     -14.104   5.485  44.065  1.00  0.00     0.020 C
BRANCH  21  22
HETATM   22  C4  UNL     1     -15.464   4.826  43.899  1.00  0.00     0.002 C
BRANCH  22  23
HETATM   23  C5  UNL     1     -16.519   5.580  44.620  1.00  0.00     0.000 C
BRANCH  23  24
HETATM   24  C6  UNL     1     -16.315   5.587  46.109  1.00  0.00     0.002 C
BRANCH  24  25
HETATM   25  C7  UNL     1     -16.381   6.990  46.646  1.00  0.00     0.020 C
BRANCH  25  26
HETATM   26  C8  UNL     1     -17.847   7.366  46.893  1.00  0.00     0.132 C
BRANCH  26  27
HETATM   27  N3  UNL     1     -18.139   7.015  48.248  1.00  0.00    -0.315 N
ATOM     28  H3  UNL     1     -17.444   7.046  48.995  1.00  0.00     0.172 HD
BRANCH  27  29
HETATM   29  S1  UNL     1     -19.764   6.535  48.501  1.00  0.00     0.265 S
HETATM   30  O1  UNL     1     -20.451   6.376  47.187  1.00  0.00    -0.200 OA
HETATM   31  O2  UNL     1     -20.454   7.578  49.287  1.00  0.00    -0.200 OA
BRANCH  29  32
HETATM   32  C9  UNL     1     -19.847   5.018  49.399  1.00  0.00     0.121 A
HETATM   33  C10 UNL     1     -18.831   4.142  49.660  1.00  0.00     0.035 A
HETATM   34  C11 UNL     1     -19.124   3.046  50.364  1.00  0.00     0.033 A
HETATM   35  C12 UNL     1     -20.423   2.884  50.770  1.00  0.00     0.075 A
HETATM   36 CL1  UNL     1     -21.101   1.542  51.709  1.00  0.00    -0.076 Cl
HETATM   37  S2  UNL     1     -21.189   4.277  50.150  1.00  0.00    -0.064 SA
ENDBRANCH  29  32
ENDBRANCH  27  29
ENDBRANCH  26  27
ENDBRANCH  25  26
ENDBRANCH  24  25
ENDBRANCH  23  24
ENDBRANCH  22  23
ENDBRANCH  21  22
ENDBRANCH  20  21
ENDBRANCH   1  20
TORSDOF 13
ENDMDL