MODEL 5
REMARK VINA RESULT: -6.706577768      1.491      1.811
REMARK  15 active torsions:
REMARK  status: ('A' for Active; 'I' for Inactive)
REMARK    1  A    between atoms: C2_2  and  O1_5
REMARK    2  A    between atoms: O1_5  and  C5_6
REMARK       I    between atoms: C5_6  and  N1_8
REMARK    3  A    between atoms: N1_8  and  C6_10
REMARK    4  A    between atoms: C6_10  and  C14_18
REMARK    5  A    between atoms: C7_11  and  C8_12
REMARK    6  A    between atoms: C14_18  and  O3_19
REMARK    7  A    between atoms: N2_21  and  C15_23
REMARK    8  A    between atoms: C15_23  and  C16_24
REMARK    9  A    between atoms: C15_23  and  C19_30
REMARK   10  A    between atoms: C16_24  and  C17_25
REMARK   11  A    between atoms: C17_25  and  C18_26
REMARK   12  A    between atoms: C18_26  and  O4_27
REMARK       I    between atoms: C19_30  and  N3_32
REMARK   13  A    between atoms: C20_34  and  C21_35
REMARK   14  A    between atoms: C21_35  and  C22_36
REMARK   15  A    between atoms: C22_36  and  C23_37
ROOT
HETATM    1  C14 UNL     1     -12.126   8.244  45.092  1.00  0.00     0.167 C
HETATM    2  N2  UNL     1     -12.917   7.567  45.975  1.00  0.00    -0.334 N
ATOM      3  H2  UNL     1     -13.687   8.128  46.340  1.00  0.00     0.168 HD
ENDROOT
BRANCH   1   4
HETATM    4  C6  UNL     1     -12.153   9.567  44.583  1.00  0.00     0.084 C
HETATM    5  C7  UNL     1     -12.729  10.221  43.462  1.00  0.00     0.012 C
BRANCH   4   6
HETATM    6  N1  UNL     1     -12.527  10.370  45.842  1.00  0.00    -0.299 N
HETATM    7  C5  UNL     1     -11.578  11.154  46.488  1.00  0.00     0.366 C
HETATM    8  O2  UNL     1     -10.399  11.180  46.009  1.00  0.00    -0.238 OA
ATOM      9  H1  UNL     1     -13.479  10.326  46.206  1.00  0.00     0.171 HD
BRANCH   7  10
HETATM   10  O1  UNL     1     -11.818  11.904  47.609  1.00  0.00    -0.294 OA
BRANCH  10  11
HETATM   11  C2  UNL     1     -12.033  11.387  48.910  1.00  0.00     0.061 C
HETATM   12  C1  UNL     1     -13.522  11.351  49.225  1.00  0.00     0.046 C
HETATM   13  C3  UNL     1     -11.463  10.013  49.104  1.00  0.00     0.046 C
HETATM   14  C4  UNL     1     -11.371  12.323  49.891  1.00  0.00     0.046 C
ENDBRANCH  10  11
ENDBRANCH   7  10
ENDBRANCH   4   6
BRANCH   5  15
HETATM   15  C8  UNL     1     -12.682  10.037  42.041  1.00  0.00     0.010 C
HETATM   16  C9  UNL     1     -13.597  11.205  41.457  1.00  0.00     0.008 C
HETATM   17  C10 UNL     1     -14.097  10.857  40.108  1.00  0.00     0.001 C
HETATM   18  C11 UNL     1     -13.120  10.088  39.272  1.00  0.00     0.000 C
HETATM   19  C12 UNL     1     -12.638   8.830  39.929  1.00  0.00     0.001 C
HETATM   20  C13 UNL     1     -13.209   8.849  41.377  1.00  0.00     0.008 C
ENDBRANCH   5  15
ENDBRANCH   1   4
BRANCH   1  21
HETATM   21  O3  UNL     1     -11.136   7.523  44.624  1.00  0.00    -0.344 OA
ATOM     22  H3  UNL     1     -10.317   7.659  45.084  1.00  0.00     0.219 HD
ENDBRANCH   1  21
BRANCH   2  23
HETATM   23  C15 UNL     1     -12.890   6.228  46.495  1.00  0.00     0.080 C
BRANCH  23  24
HETATM   24  C16 UNL     1     -14.136   5.417  46.233  1.00  0.00     0.068 C
BRANCH  24  25
HETATM   25  C17 UNL     1     -14.871   5.977  45.039  1.00  0.00     0.072 C
BRANCH  25  26
HETATM   26  C18 UNL     1     -14.427   5.144  43.830  1.00  0.00     0.304 C
HETATM   27  F1  UNL     1     -14.101   3.871  44.312  1.00  0.00    -0.220 F
BRANCH  26  28
HETATM   28  O4  UNL     1     -13.334   5.742  43.224  1.00  0.00    -0.367 OA
ATOM     29  H4  UNL     1     -13.417   5.680  42.279  1.00  0.00     0.213 HD
ENDBRANCH  26  28
ENDBRANCH  25  26
ENDBRANCH  24  25
ENDBRANCH  23  24
BRANCH  23  30
HETATM   30  C19 UNL     1     -12.318   6.073  47.822  1.00  0.00     0.267 C
HETATM   31  O5  UNL     1     -12.699   6.756  48.823  1.00  0.00    -0.266 OA
HETATM   32  N3  UNL     1     -11.291   5.119  48.008  1.00  0.00    -0.336 N
HETATM   33  C20 UNL     1     -10.082   5.215  47.621  1.00  0.00     0.064 C
ATOM     34  H3  UNL     1     -11.545   4.265  48.504  1.00  0.00     0.168 HD
BRANCH  33  35
HETATM   35  C21 UNL     1      -9.072   4.155  47.866  1.00  0.00     0.045 C
BRANCH  35  36
HETATM   36  C22 UNL     1      -8.151   4.013  46.689  1.00  0.00     0.016 C
BRANCH  36  37
HETATM   37  C23 UNL     1      -6.836   3.359  47.102  1.00  0.00     0.086 C
HETATM   38  S1  UNL     1      -5.425   4.169  46.344  1.00  0.00    -0.098 SA
ENDBRANCH  36  37
ENDBRANCH  35  36
ENDBRANCH  33  35
ENDBRANCH  23  30
ENDBRANCH   2  23
TORSDOF 15
ENDMDL