MODEL 4
REMARK VINA RESULT: -6.231180315      2.770      5.669
REMARK  18 active torsions:
REMARK  status: ('A' for Active; 'I' for Inactive)
REMARK    1  A    between atoms: C2_2  and  C3_3
REMARK    2  A    between atoms: C3_3  and  C4_4
REMARK    3  A    between atoms: C4_4  and  C5_5
REMARK    4  A    between atoms: C5_5  and  C6_6
REMARK    5  A    between atoms: C5_5  and  N2_19
REMARK    6  A    between atoms: C5_5  and  C20_38
REMARK    7  A    between atoms: C6_6  and  C7_7
REMARK    8  A    between atoms: C7_7  and  C8_8
REMARK    9  A    between atoms: C8_8  and  C9_9
REMARK   10  A    between atoms: C9_9  and  C10_10
REMARK   11  A    between atoms: C10_10  and  C11_11
REMARK   12  A    between atoms: C11_11  and  C12_12
REMARK   13  A    between atoms: C12_12  and  O1_13
REMARK   14  A    between atoms: N1_15  and  O2_17
REMARK   15  A    between atoms: N2_19  and  C13_21
REMARK   16  A    between atoms: C13_21  and  C15_30
REMARK       I    between atoms: N3_22  and  C14_24
REMARK   17  A    between atoms: N5_26  and  O3_28
REMARK   18  A    between atoms: C20_38  and  O5_40
ROOT
HETATM    1  C5  UNL     1      76.321   6.550  -4.165  1.00  0.00     0.119 C
ENDROOT
BRANCH   1   2
HETATM    2  C4  UNL     1      75.552   7.237  -3.024  1.00  0.00     0.041 C
BRANCH   2   3
HETATM    3  C3  UNL     1      76.012   6.931  -1.656  1.00  0.00     0.002 C
BRANCH   3   4
HETATM    4  C2  UNL     1      75.381   7.588  -0.487  1.00  0.00    -0.004 C
HETATM    5  C1  UNL     1      76.016   6.924   0.761  1.00  0.00     0.005 C
ENDBRANCH   3   4
ENDBRANCH   2   3
ENDBRANCH   1   2
BRANCH   1   6
HETATM    6  C6  UNL     1      77.312   7.612  -4.664  1.00  0.00     0.041 C
BRANCH   6   7
HETATM    7  C7  UNL     1      76.653   8.707  -5.411  1.00  0.00     0.003 C
BRANCH   7   8
HETATM    8  C8  UNL     1      77.645   9.661  -6.047  1.00  0.00     0.000 C
BRANCH   8   9
HETATM    9  C9  UNL     1      78.994   9.481  -5.388  1.00  0.00     0.000 C
BRANCH   9  10
HETATM   10  C10 UNL     1      80.118   9.714  -6.361  1.00  0.00     0.008 C
BRANCH  10  11
HETATM   11  C11 UNL     1      81.432   9.935  -5.723  1.00  0.00     0.086 C
BRANCH  11  12
HETATM   12  C12 UNL     1      82.031   8.799  -5.006  1.00  0.00     0.135 C
HETATM   13  N1  UNL     1      82.096   8.679  -3.743  1.00  0.00    -0.251 N
ATOM     14  H1  UNL     1      81.705   9.421  -3.164  1.00  0.00     0.196 HD
BRANCH  12  15
HETATM   15  O1  UNL     1      82.588   7.733  -5.751  1.00  0.00    -0.348 OA
ATOM     16  H1  UNL     1      83.324   7.253  -5.391  1.00  0.00     0.219 HD
ENDBRANCH  12  15
BRANCH  13  17
HETATM   17  O2  UNL     1      82.661   7.606  -3.130  1.00  0.00    -0.288 OA
ATOM     18  H2  UNL     1      83.542   7.619  -2.773  1.00  0.00     0.244 HD
ENDBRANCH  13  17
ENDBRANCH  11  12
ENDBRANCH  10  11
ENDBRANCH   9  10
ENDBRANCH   8   9
ENDBRANCH   7   8
ENDBRANCH   6   7
ENDBRANCH   1   6
BRANCH   1  19
HETATM   19  N2  UNL     1      77.145   5.471  -3.696  1.00  0.00    -0.360 N
ATOM     20  H2  UNL     1      76.827   5.070  -2.814  1.00  0.00     0.162 HD
BRANCH  19  21
HETATM   21  C13 UNL     1      78.273   4.872  -4.195  1.00  0.00     0.096 C
HETATM   22  N3  UNL     1      79.382   4.922  -3.465  1.00  0.00    -0.318 N
HETATM   23  C14 UNL     1      79.508   5.531  -2.226  1.00  0.00     0.213 C
ATOM     24  H3  UNL     1      80.212   4.473  -3.850  1.00  0.00     0.170 HD
HETATM   25  N4  UNL     1      80.141   6.833  -2.189  1.00  0.00    -0.061 NA
HETATM   26  N5  UNL     1      79.125   5.066  -1.101  1.00  0.00    -0.241 N
ATOM     27  H5  UNL     1      78.676   4.150  -1.083  1.00  0.00     0.197 HD
BRANCH  26  28
HETATM   28  O3  UNL     1      79.286   5.735   0.086  1.00  0.00    -0.287 OA
ATOM     29  H3  UNL     1      78.775   5.548   0.864  1.00  0.00     0.244 HD
ENDBRANCH  26  28
BRANCH  21  30
HETATM   30  C15 UNL     1      78.430   4.156  -5.492  1.00  0.00     0.148 A
HETATM   31  C16 UNL     1      79.149   4.918  -6.505  1.00  0.00     0.033 A
HETATM   32  C17 UNL     1      78.991   6.042  -7.218  1.00  0.00     0.082 C
HETATM   33  N6  UNL     1      80.133   3.982  -6.458  1.00  0.00    -0.364 N
HETATM   34 BR1  UNL     1      80.290   6.634  -8.478  1.00  0.00    -0.061 Br
HETATM   35  C18 UNL     1      79.578   3.277  -5.591  1.00  0.00    -0.000 A
ATOM     36  H6  UNL     1      81.017   3.888  -6.958  1.00  0.00     0.165 HD
HETATM   37  C19 UNL     1      80.019   1.969  -4.922  1.00  0.00     0.064 C
ENDBRANCH  21  30
ENDBRANCH  19  21
ENDBRANCH   1  19
BRANCH   1  38
HETATM   38  C20 UNL     1      75.367   6.096  -5.179  1.00  0.00     0.287 C
HETATM   39  O4  UNL     1      75.607   5.918  -6.395  1.00  0.00    -0.262 OA
BRANCH  38  40
HETATM   40  O5  UNL     1      74.020   5.809  -4.827  1.00  0.00    -0.325 OA
HETATM   41  C21 UNL     1      72.952   6.163  -5.685  1.00  0.00     0.213 C
ENDBRANCH  38  40
ENDBRANCH   1  38
TORSDOF 18
ENDMDL