MODEL 5
REMARK VINA RESULT: -5.825749291      2.633      5.495
REMARK  18 active torsions:
REMARK  status: ('A' for Active; 'I' for Inactive)
REMARK    1  A    between atoms: C2_2  and  O1_3
REMARK    2  A    between atoms: O1_3  and  C3_4
REMARK    3  A    between atoms: C7_12  and  N3_13
REMARK    4  A    between atoms: N3_13  and  C8_15
REMARK    5  A    between atoms: C8_15  and  C9_16
REMARK    6  A    between atoms: C9_16  and  C10_17
REMARK    7  A    between atoms: C10_17  and  N4_18
REMARK    8  A    between atoms: N4_18  and  C11_21
REMARK    9  A    between atoms: C11_21  and  C12_22
REMARK   10  A    between atoms: C12_22  and  C13_23
REMARK   11  A    between atoms: C13_23  and  S1_24
REMARK   12  A    between atoms: S1_24  and  C14_25
REMARK   13  A    between atoms: C14_25  and  N6_29
REMARK   14  A    between atoms: N6_29  and  C16_31
REMARK   15  A    between atoms: C22_37  and  N7_38
REMARK       I    between atoms: N7_38  and  C23_39
REMARK   16  A    between atoms: C23_39  and  C24_41
REMARK   17  A    between atoms: C24_41  and  C25_42
REMARK   18  A    between atoms: C25_42  and  N8_43
ROOT
HETATM    1  C3  UNL     1      76.445   5.213  -5.394  1.00  0.00     0.111 A
HETATM    2  C4  UNL     1      76.317   4.755  -6.641  1.00  0.00     0.070 A
HETATM    3  C5  UNL     1      75.202   5.082  -7.427  1.00  0.00     0.050 A
HETATM    4  N1  UNL     1      75.149   4.613  -8.678  1.00  0.00    -0.351 N
ATOM      5  H1  UNL     1      75.876   4.009  -9.062  1.00  0.00     0.166 HD
HETATM    6  C6  UNL     1      74.074   4.990  -9.399  1.00  0.00     0.182 A
HETATM    7  N2  UNL     1      73.151   5.777  -8.857  1.00  0.00    -0.338 N
ATOM      8  H2  UNL     1      72.364   6.031  -9.454  1.00  0.00     0.168 HD
HETATM    9  C7  UNL     1      73.140   6.267  -7.638  1.00  0.00     0.118 A
HETATM   10  C20 UNL     1      74.279   5.889  -6.829  1.00  0.00     0.038 A
HETATM   11  C21 UNL     1      74.378   6.371  -5.561  1.00  0.00     0.065 A
HETATM   12  C22 UNL     1      75.485   6.056  -4.764  1.00  0.00     0.145 A
ENDROOT
BRANCH   9  13
HETATM   13  N3  UNL     1      72.366   7.068  -7.073  1.00  0.00    -0.355 N
ATOM     14  H3  UNL     1      72.045   6.675  -6.189  1.00  0.00     0.166 HD
BRANCH  13  15
HETATM   15  C8  UNL     1      71.811   8.307  -7.263  1.00  0.00     0.064 C
BRANCH  15  16
HETATM   16  C9  UNL     1      71.974   9.445  -6.320  1.00  0.00     0.072 C
BRANCH  16  17
HETATM   17  C10 UNL     1      72.894  10.494  -6.823  1.00  0.00     0.237 C
BRANCH  17  18
HETATM   18  N4  UNL     1      74.113  10.577  -6.041  1.00  0.00    -0.075 N
ATOM     19  H42 UNL     1      74.385  11.544  -5.866  1.00  0.00     0.277 HD
ATOM     20  H41 UNL     1      73.963  10.283  -5.076  1.00  0.00     0.277 HD
BRANCH  18  21
HETATM   21  C11 UNL     1      75.157   9.841  -6.658  1.00  0.00     0.233 C
BRANCH  21  22
HETATM   22  C12 UNL     1      76.288   9.441  -5.704  1.00  0.00     0.038 C
BRANCH  22  23
HETATM   23  C13 UNL     1      77.562   9.641  -6.515  1.00  0.00     0.084 C
BRANCH  23  24
HETATM   24  S1  UNL     1      78.386   8.121  -6.925  1.00  0.00    -0.095 SA
BRANCH  24  25
HETATM   25  C14 UNL     1      79.499   7.591  -5.695  1.00  0.00     0.136 C
HETATM   26  N5  UNL     1      80.105   6.432  -5.900  1.00  0.00    -0.375 N
HETATM   27  C15 UNL     1      79.829   5.661  -7.098  1.00  0.00     0.148 C
ATOM     28  H5  UNL     1      80.769   6.078  -5.212  1.00  0.00     0.161 HD
BRANCH  25  29
HETATM   29  N6  UNL     1      79.821   8.264  -4.499  1.00  0.00    -0.363 N
ATOM     30  H6  UNL     1      79.197   8.152  -3.699  1.00  0.00     0.162 HD
BRANCH  29  31
HETATM   31  C16 UNL     1      80.988   9.106  -4.344  1.00  0.00     0.021 C
HETATM   32  C17 UNL     1      82.172   8.367  -3.753  1.00  0.00     0.037 C
HETATM   33  C18 UNL     1      80.605  10.314  -3.546  1.00  0.00     0.037 C
HETATM   34  C19 UNL     1      81.438   9.553  -5.730  1.00  0.00     0.037 C
ENDBRANCH  29  31
ENDBRANCH  25  29
ENDBRANCH  24  25
ENDBRANCH  23  24
ENDBRANCH  22  23
ENDBRANCH  21  22
ENDBRANCH  18  21
ENDBRANCH  17  18
ENDBRANCH  16  17
ENDBRANCH  15  16
ENDBRANCH  13  15
ENDBRANCH   9  13
BRANCH  12  35
HETATM   35  N7  UNL     1      75.790   6.554  -3.543  1.00  0.00    -0.368 NA
HETATM   36  C23 UNL     1      76.093   7.053  -2.321  1.00  0.00     0.293 C
HETATM   37  O2  UNL     1      75.355   7.551  -1.475  1.00  0.00    -0.257 OA
BRANCH  36  38
HETATM   38  C24 UNL     1      77.573   7.011  -1.892  1.00  0.00     0.146 C
BRANCH  38  39
HETATM   39  C25 UNL     1      77.952   5.898  -1.012  1.00  0.00     0.240 C
BRANCH  39  40
HETATM   40  N8  UNL     1      77.060   4.825  -0.777  1.00  0.00    -0.079 N
ATOM     41  H83 UNL     1      76.759   4.870   0.196  1.00  0.00     0.274 HD
ATOM     42  H82 UNL     1      76.190   5.021  -1.272  1.00  0.00     0.274 HD
ATOM     43  H81 UNL     1      77.334   3.864  -0.982  1.00  0.00     0.274 HD
ENDBRANCH  39  40
ENDBRANCH  38  39
ENDBRANCH  36  38
ENDBRANCH  12  35
BRANCH   1  44
HETATM   44  O1  UNL     1      77.570   4.874  -4.603  1.00  0.00    -0.348 OA
BRANCH  44  45
HETATM   45  C2  UNL     1      77.987   3.518  -4.548  1.00  0.00     0.171 C
HETATM   46  C1  UNL     1      78.995   3.279  -3.460  1.00  0.00     0.034 C
ENDBRANCH  44  45
ENDBRANCH   1  44
TORSDOF 18
ENDMDL