MODEL 5
REMARK VINA RESULT: -6.632530514      4.058      8.838
REMARK  16 active torsions:
REMARK  status: ('A' for Active; 'I' for Inactive)
REMARK    1  A    between atoms: C4_8  and  C5_9
REMARK    2  A    between atoms: C5_9  and  C6_10
REMARK    3  A    between atoms: C6_10  and  C7_11
REMARK    4  A    between atoms: C7_11  and  C8_12
REMARK    5  A    between atoms: C8_12  and  N3_13
REMARK    6  A    between atoms: N3_13  and  C9_15
REMARK    7  A    between atoms: C9_15  and  N4_17
REMARK    8  A    between atoms: N4_17  and  C10_19
REMARK    9  A    between atoms: C15_25  and  O1_26
REMARK   10  A    between atoms: O1_26  and  C16_27
REMARK   11  A    between atoms: C16_27  and  C17_28
REMARK   12  A    between atoms: C17_28  and  O2_29
REMARK   13  A    between atoms: O2_29  and  C18_30
REMARK   14  A    between atoms: C18_30  and  C19_31
REMARK   15  A    between atoms: C19_31  and  N5_32
REMARK   16  A    between atoms: N5_32  and  C20_34
ROOT
HETATM    1  C9  UNL     1      80.626   7.493  -5.591  1.00  0.00     0.172 C
HETATM    2  S1  UNL     1      80.515   7.700  -7.195  1.00  0.00    -0.041 SA
ENDROOT
BRANCH   1   3
HETATM    3  N3  UNL     1      81.858   8.021  -5.014  1.00  0.00    -0.367 N
ATOM      4  H3  UNL     1      82.662   7.414  -4.851  1.00  0.00     0.161 HD
BRANCH   3   5
HETATM    5  C8  UNL     1      81.907   9.408  -4.684  1.00  0.00     0.122 C
BRANCH   5   6
HETATM    6  C7  UNL     1      80.826   9.935  -3.827  1.00  0.00     0.020 C
BRANCH   6   7
HETATM    7  C6  UNL     1      80.081  11.145  -4.254  1.00  0.00     0.009 C
BRANCH   7   8
HETATM    8  C5  UNL     1      79.270  11.019  -5.483  1.00  0.00     0.076 C
BRANCH   8   9
HETATM    9  C4  UNL     1      79.564  12.166  -6.444  1.00  0.00     0.084 A
HETATM   10  N2  UNL     1      80.142  12.075  -7.652  1.00  0.00    -0.328 N
HETATM   11  C3  UNL     1      80.241  13.289  -8.219  1.00  0.00     0.161 A
ATOM     12  H2  UNL     1      80.462  11.206  -8.081  1.00  0.00     0.169 HD
HETATM   13  N1  UNL     1      80.628  14.042  -9.265  1.00  0.00    -0.323 N
HETATM   14  C21 UNL     1      79.703  14.197  -7.331  1.00  0.00     0.195 A
HETATM   15  C2  UNL     1      80.348  15.338  -9.044  1.00  0.00     0.123 A
ATOM     16  H1  UNL     1      81.072  13.680 -10.108  1.00  0.00     0.169 HD
HETATM   17  C1  UNL     1      80.625  16.495  -9.972  1.00  0.00     0.098 C
HETATM   18  O3  UNL     1      79.789  15.391  -7.862  1.00  0.00    -0.277 OA
HETATM   19  N7  UNL     1      79.299  13.468  -6.253  1.00  0.00    -0.323 N
ATOM     20  H7  UNL     1      78.857  13.857  -5.419  1.00  0.00     0.169 HD
ENDBRANCH   8   9
ENDBRANCH   7   8
ENDBRANCH   6   7
ENDBRANCH   5   6
ENDBRANCH   3   5
ENDBRANCH   1   3
BRANCH   1  21
HETATM   21  N4  UNL     1      79.696   6.853  -4.772  1.00  0.00    -0.331 N
ATOM     22  H4  UNL     1      80.066   6.392  -3.942  1.00  0.00     0.168 HD
BRANCH  21  23
HETATM   23  C10 UNL     1      78.295   6.771  -4.962  1.00  0.00     0.069 A
HETATM   24  C11 UNL     1      77.435   7.810  -4.949  1.00  0.00     0.056 A
HETATM   25  C12 UNL     1      76.067   7.620  -5.104  1.00  0.00     0.036 A
HETATM   26 CL1  UNL     1      74.985   9.006  -5.081  1.00  0.00    -0.084 Cl
HETATM   27  C13 UNL     1      75.567   6.357  -5.276  1.00  0.00     0.026 A
HETATM   28  C14 UNL     1      76.426   5.284  -5.292  1.00  0.00     0.041 A
HETATM   29  C15 UNL     1      77.755   5.467  -5.141  1.00  0.00     0.095 A
BRANCH  29  30
HETATM   30  O1  UNL     1      78.602   4.416  -5.160  1.00  0.00    -0.347 OA
BRANCH  30  31
HETATM   31  C16 UNL     1      78.892   3.376  -4.334  1.00  0.00     0.201 C
BRANCH  31  32
HETATM   32  C17 UNL     1      78.813   3.596  -2.860  1.00  0.00     0.194 C
BRANCH  32  33
HETATM   33  O2  UNL     1      79.715   4.567  -2.419  1.00  0.00    -0.387 OA
BRANCH  33  34
HETATM   34  C18 UNL     1      79.157   5.328  -1.385  1.00  0.00     0.187 C
BRANCH  34  35
HETATM   35  C19 UNL     1      77.684   5.488  -1.526  1.00  0.00     0.148 C
BRANCH  35  36
HETATM   36  N5  UNL     1      77.038   5.455  -0.241  1.00  0.00    -0.367 N
ATOM     37  H5  UNL     1      77.353   4.753   0.429  1.00  0.00     0.161 HD
BRANCH  36  38
HETATM   38  C20 UNL     1      75.994   6.326   0.161  1.00  0.00     0.181 C
HETATM   39  N6  UNL     1      75.376   6.233   1.447  1.00  0.00    -0.070 NA
HETATM   40  S2  UNL     1      75.435   7.478  -0.846  1.00  0.00    -0.044 SA
ENDBRANCH  36  38
ENDBRANCH  35  36
ENDBRANCH  34  35
ENDBRANCH  33  34
ENDBRANCH  32  33
ENDBRANCH  31  32
ENDBRANCH  30  31
ENDBRANCH  29  30
ENDBRANCH  21  23
ENDBRANCH   1  21
TORSDOF 16
ENDMDL