MODEL 5
REMARK VINA RESULT: -6.431175870      2.083      5.248
REMARK  17 active torsions:
REMARK  status: ('A' for Active; 'I' for Inactive)
REMARK    1  A    between atoms: C1_2  and  C2_3
REMARK       I    between atoms: C1_2  and  N1_7
REMARK    2  A    between atoms: C2_3  and  C3_4
REMARK    3  A    between atoms: C3_4  and  O2_5
REMARK    4  A    between atoms: N1_7  and  C4_9
REMARK    5  A    between atoms: C4_9  and  C5_10
REMARK    6  A    between atoms: C5_10  and  C6_11
REMARK    7  A    between atoms: C6_11  and  C7_12
REMARK    8  A    between atoms: C7_12  and  C8_13
REMARK    9  A    between atoms: C8_13  and  C9_14
REMARK   10  A    between atoms: C9_14  and  O4_19
REMARK   11  A    between atoms: N2_15  and  O3_17
REMARK   12  A    between atoms: O4_19  and  C10_20
REMARK   13  A    between atoms: C10_20  and  C11_21
REMARK   14  A    between atoms: C11_21  and  N3_22
REMARK   15  A    between atoms: C12_24  and  C13_25
REMARK   16  A    between atoms: C14_26  and  O5_27
REMARK   17  A    between atoms: C19_36  and  C20_37
ROOT
HETATM    1  C10 UNL     1      77.623   4.432  -4.584  1.00  0.00     0.196 C
ENDROOT
BRANCH   1   2
HETATM    2  O4  UNL     1      76.502   5.162  -4.844  1.00  0.00    -0.336 OA
BRANCH   2   3
HETATM    3  C9  UNL     1      75.726   5.056  -5.973  1.00  0.00     0.137 C
HETATM    4  N2  UNL     1      75.902   4.070  -6.732  1.00  0.00    -0.251 N
ATOM      5  H2  UNL     1      76.634   3.433  -6.417  1.00  0.00     0.196 HD
BRANCH   3   6
HETATM    6  C8  UNL     1      74.681   6.099  -6.292  1.00  0.00     0.086 C
BRANCH   6   7
HETATM    7  C7  UNL     1      73.388   5.821  -5.589  1.00  0.00     0.012 C
BRANCH   7   8
HETATM    8  C6  UNL     1      73.004   6.902  -4.611  1.00  0.00     0.029 C
BRANCH   8   9
HETATM    9  C5  UNL     1      73.613   6.844  -3.286  1.00  0.00    -0.010 C
BRANCH   9  10
HETATM   10  C4  UNL     1      74.905   7.453  -2.942  1.00  0.00     0.087 C
BRANCH  10  11
HETATM   11  N1  UNL     1      75.818   6.818  -2.091  1.00  0.00    -0.337 N
HETATM   12  C1  UNL     1      75.928   6.799  -0.705  1.00  0.00     0.223 C
HETATM   13  O1  UNL     1      75.168   7.375   0.085  1.00  0.00    -0.273 OA
ATOM     14  H1  UNL     1      76.530   6.271  -2.574  1.00  0.00     0.168 HD
BRANCH  12  15
HETATM   15  C2  UNL     1      77.087   6.002  -0.079  1.00  0.00     0.129 C
BRANCH  15  16
HETATM   16  C3  UNL     1      76.654   5.472   1.252  1.00  0.00     0.173 C
BRANCH  16  17
HETATM   17  O2  UNL     1      77.742   5.453   2.143  1.00  0.00    -0.400 OA
ATOM     18  H2  UNL     1      78.335   4.745   1.919  1.00  0.00     0.209 HD
ENDBRANCH  16  17
ENDBRANCH  15  16
ENDBRANCH  12  15
ENDBRANCH  10  11
ENDBRANCH   9  10
ENDBRANCH   8   9
ENDBRANCH   7   8
ENDBRANCH   6   7
ENDBRANCH   3   6
BRANCH   4  19
HETATM   19  O3  UNL     1      75.313   3.693  -7.874  1.00  0.00    -0.288 OA
ATOM     20  H3  UNL     1      75.302   2.869  -8.347  1.00  0.00     0.244 HD
ENDBRANCH   4  19
ENDBRANCH   2   3
ENDBRANCH   1   2
BRANCH   1  21
HETATM   21  C11 UNL     1      78.598   4.926  -3.574  1.00  0.00     0.146 C
BRANCH  21  22
HETATM   22  N3  UNL     1      79.279   6.073  -4.046  1.00  0.00    -0.396 N
HETATM   23  C12 UNL     1      79.048   7.316  -3.737  1.00  0.00     0.099 C
ATOM     24  H3  UNL     1      80.040   5.906  -4.704  1.00  0.00     0.158 HD
BRANCH  23  25
HETATM   25  C13 UNL     1      79.898   8.290  -4.367  1.00  0.00     0.043 A
HETATM   26  C14 UNL     1      81.248   8.490  -4.040  1.00  0.00     0.153 A
HETATM   27  N4  UNL     1      81.765   9.464  -4.785  1.00  0.00    -0.336 N
HETATM   28  C15 UNL     1      80.798   9.921  -5.600  1.00  0.00     0.047 A
ATOM     29  H4  UNL     1      82.725   9.804  -4.745  1.00  0.00     0.168 HD
HETATM   30  C16 UNL     1      80.804  10.918  -6.557  1.00  0.00     0.049 A
HETATM   31  C23 UNL     1      79.614   9.202  -5.361  1.00  0.00     0.013 A
HETATM   32  C17 UNL     1      79.681  11.228  -7.286  1.00  0.00     0.013 A
HETATM   33 BR1  UNL     1      79.720  12.612  -8.602  1.00  0.00    -0.051 Br
HETATM   34  C18 UNL     1      78.516  10.532  -7.062  1.00  0.00     0.027 A
HETATM   35  C19 UNL     1      78.506   9.516  -6.088  1.00  0.00    -0.039 A
BRANCH  26  36
HETATM   36  O5  UNL     1      81.937   7.763  -3.070  1.00  0.00    -0.345 OA
ATOM     37  H5  UNL     1      81.642   7.653  -2.173  1.00  0.00     0.219 HD
ENDBRANCH  26  36
BRANCH  35  38
HETATM   38  C20 UNL     1      77.225   8.785  -5.931  1.00  0.00     0.019 A
HETATM   39  C21 UNL     1      75.955   9.628  -5.586  1.00  0.00     0.010 A
HETATM   40  C22 UNL     1      76.192   9.282  -6.981  1.00  0.00     0.010 A
ENDBRANCH  35  38
ENDBRANCH  23  25
ENDBRANCH  21  22
ENDBRANCH   1  21
TORSDOF 17
ENDMDL