MODEL 2
REMARK VINA RESULT: -7.288876466      3.185      4.566
REMARK  14 active torsions:
REMARK  status: ('A' for Active; 'I' for Inactive)
REMARK    1  A    between atoms: C2_2  and  C3_3
REMARK    2  A    between atoms: C3_3  and  C4_4
REMARK    3  A    between atoms: C4_4  and  C5_5
REMARK    4  A    between atoms: C6_8  and  C7_9
REMARK    5  A    between atoms: C7_9  and  O1_10
REMARK    6  A    between atoms: C7_9  and  C8_12
REMARK    7  A    between atoms: C8_12  and  N2_13
REMARK    8  A    between atoms: N2_13  and  C9_16
REMARK    9  A    between atoms: C14_21  and  C15_22
REMARK   10  A    between atoms: C15_22  and  N3_23
REMARK   11  A    between atoms: N3_23  and  C16_25
REMARK   12  A    between atoms: C16_25  and  C17_26
REMARK   13  A    between atoms: C17_26  and  C18_27
REMARK   14  A    between atoms: C18_27  and  N4_28
ROOT
HETATM    1  C9  UNL     1      79.477  10.641  -5.219  1.00  0.00     0.190 C
HETATM    2  C10 UNL     1      78.503   9.767  -5.994  1.00  0.00     0.058 C
HETATM    3  C11 UNL     1      78.463   8.538  -5.161  1.00  0.00     0.085 C
HETATM    4  C12 UNL     1      77.498   7.478  -5.275  1.00  0.00     0.026 C
HETATM    5  C13 UNL     1      77.702   6.601  -4.012  1.00  0.00     0.012 C
HETATM    6  C14 UNL     1      79.053   6.524  -3.491  1.00  0.00     0.025 C
HETATM    7  C23 UNL     1      79.709   7.803  -3.025  1.00  0.00     0.035 C
HETATM    8  C24 UNL     1      80.478   8.511  -4.164  1.00  0.00     0.086 C
HETATM    9  C25 UNL     1      80.293   9.987  -4.187  1.00  0.00     0.058 C
HETATM   10  N5  UNL     1      79.787   7.986  -5.282  1.00  0.00    -0.390 N
HETATM   11  C26 UNL     1      80.377   7.727  -6.457  1.00  0.00     0.116 C
ENDROOT
BRANCH   1  12
HETATM   12  N2  UNL     1      80.180  11.600  -6.089  1.00  0.00    -0.065 N
ATOM     13  H22 UNL     1      80.818  11.161  -6.752  1.00  0.00     0.278 HD
ATOM     14  H21 UNL     1      80.880  12.159  -5.603  1.00  0.00     0.278 HD
BRANCH  12  15
HETATM   15  C8  UNL     1      79.140  12.382  -6.712  1.00  0.00     0.299 C
BRANCH  15  16
HETATM   16  C7  UNL     1      79.409  13.789  -6.999  1.00  0.00     0.095 C
BRANCH  16  17
HETATM   17  C6  UNL     1      80.499  14.165  -7.896  1.00  0.00     0.065 A
HETATM   18  N1  UNL     1      81.188  15.302  -8.039  1.00  0.00    -0.356 N
HETATM   19  C5  UNL     1      82.125  15.208  -8.984  1.00  0.00     0.031 A
ATOM     20  H1  UNL     1      81.017  16.144  -7.488  1.00  0.00     0.166 HD
HETATM   21  C28 UNL     1      82.053  13.922  -9.501  1.00  0.00     0.058 A
HETATM   22  C27 UNL     1      81.047  13.286  -8.824  1.00  0.00     0.058 A
HETATM   23 CL1  UNL     1      83.057  13.253 -10.764  1.00  0.00    -0.082 Cl
BRANCH  19  24
HETATM   24  C4  UNL     1      83.108  16.193  -9.508  1.00  0.00     0.059 C
BRANCH  24  25
HETATM   25  C3  UNL     1      82.401  17.277 -10.265  1.00  0.00     0.006 C
BRANCH  25  26
HETATM   26  C2  UNL     1      83.230  18.527 -10.412  1.00  0.00    -0.004 C
HETATM   27  C1  UNL     1      84.567  18.400  -9.696  1.00  0.00     0.005 C
ENDBRANCH  25  26
ENDBRANCH  24  25
ENDBRANCH  19  24
ENDBRANCH  16  17
BRANCH  16  28
HETATM   28  O1  UNL     1      79.352  14.630  -5.873  1.00  0.00    -0.361 OA
ATOM     29  H1  UNL     1      78.511  15.063  -5.803  1.00  0.00     0.217 HD
ENDBRANCH  16  28
ENDBRANCH  15  16
ENDBRANCH  12  15
ENDBRANCH   1  12
BRANCH   6  30
HETATM   30  C15 UNL     1      79.169   5.537  -2.356  1.00  0.00     0.060 C
BRANCH  30  31
HETATM   31  N3  UNL     1      79.799   4.318  -2.591  1.00  0.00    -0.402 N
ATOM     32  H3  UNL     1      80.798   4.241  -2.399  1.00  0.00     0.158 HD
BRANCH  31  33
HETATM   33  C16 UNL     1      79.127   3.195  -3.079  1.00  0.00     0.120 C
BRANCH  33  34
HETATM   34  C17 UNL     1      80.081   2.010  -3.391  1.00  0.00     0.039 C
BRANCH  34  35
HETATM   35  C18 UNL     1      80.008   1.722  -4.876  1.00  0.00     0.123 C
BRANCH  35  36
HETATM   36  N4  UNL     1      81.248   1.915  -5.539  1.00  0.00    -0.389 N
HETATM   37  C19 UNL     1      81.301   2.735  -6.684  1.00  0.00     0.084 C
HETATM   38  C20 UNL     1      82.392   2.217  -7.620  1.00  0.00     0.212 C
HETATM   39  O2  UNL     1      82.157   0.869  -7.909  1.00  0.00    -0.385 OA
HETATM   40  C21 UNL     1      82.133   0.057  -6.797  1.00  0.00     0.187 C
HETATM   41  C22 UNL     1      82.154   0.804  -5.496  1.00  0.00     0.148 C
ENDBRANCH  35  36
ENDBRANCH  34  35
ENDBRANCH  33  34
ENDBRANCH  31  33
ENDBRANCH  30  31
ENDBRANCH   6  30
TORSDOF 14
ENDMDL