MODEL 4
REMARK VINA RESULT: -7.434081433      3.051      6.792
REMARK  17 active torsions:
REMARK  status: ('A' for Active; 'I' for Inactive)
REMARK    1  A    between atoms: O1_2  and  C2_3
REMARK    2  A    between atoms: C5_7  and  C6_8
REMARK    3  A    between atoms: C6_8  and  N1_9
REMARK    4  A    between atoms: N1_9  and  C7_11
REMARK    5  A    between atoms: C8_14  and  N3_15
REMARK    6  A    between atoms: N3_15  and  C9_17
REMARK    7  A    between atoms: C9_17  and  C10_18
REMARK    8  A    between atoms: C10_18  and  C11_19
REMARK    9  A    between atoms: C11_19  and  C12_20
REMARK   10  A    between atoms: C12_20  and  C13_21
REMARK   11  A    between atoms: C13_21  and  C14_22
REMARK   12  A    between atoms: C14_22  and  C15_23
REMARK   13  A    between atoms: C15_23  and  O2_24
REMARK   14  A    between atoms: N4_26  and  O3_28
REMARK   15  A    between atoms: N6_33  and  C17_35
REMARK   16  A    between atoms: C21_41  and  O4_42
REMARK   17  A    between atoms: O4_42  and  C22_43
ROOT
HETATM    1  C7  UNL     1      80.135   3.201  -6.071  1.00  0.00     0.707 A
HETATM    2  N2  UNL     1      79.546   3.374  -4.866  1.00  0.00    -0.022 N
ATOM      3  H2  UNL     1      78.750   4.007  -4.801  1.00  0.00     0.203 HD
HETATM    4  C8  UNL     1      79.960   2.752  -3.751  1.00  0.00     0.707 A
HETATM    5  N5  UNL     1      80.989   1.930  -3.833  1.00  0.00    -0.022 N
ATOM      6  H5  UNL     1      81.300   1.455  -2.986  1.00  0.00     0.203 HD
HETATM    7  C16 UNL     1      81.672   1.681  -5.024  1.00  0.00     0.707 A
HETATM    8  N6  UNL     1      82.527   0.834  -4.940  1.00  0.00    -0.220 N
ATOM      9  H6  UNL     1      82.506   0.488  -3.980  1.00  0.00     0.178 HD
HETATM   10  N7  UNL     1      81.178   2.364  -6.100  1.00  0.00    -0.021 N
ATOM     11  H7  UNL     1      81.642   2.224  -6.998  1.00  0.00     0.203 HD
ENDROOT
BRANCH   1  12
HETATM   12  N1  UNL     1      79.793   3.886  -7.126  1.00  0.00    -0.221 N
ATOM     13  H1  UNL     1      78.821   3.936  -7.432  1.00  0.00     0.178 HD
BRANCH  12  14
HETATM   14  C6  UNL     1      80.874   4.592  -7.872  1.00  0.00     0.178 C
BRANCH  14  15
HETATM   15  C5  UNL     1      80.413   6.025  -7.819  1.00  0.00    -0.015 A
HETATM   16  C4  UNL     1      80.055   6.615  -9.001  1.00  0.00     0.044 A
HETATM   17  C3  UNL     1      79.644   7.947  -9.023  1.00  0.00     0.064 A
HETATM   18 CL1  UNL     1      80.136   5.713 -10.485  1.00  0.00    -0.084 Cl
HETATM   19  C2  UNL     1      79.579   8.721  -7.908  1.00  0.00     0.103 A
HETATM   20  C21 UNL     1      79.960   8.124  -6.702  1.00  0.00     0.103 A
HETATM   21  C20 UNL     1      80.361   6.808  -6.698  1.00  0.00     0.050 A
BRANCH  19  22
HETATM   22  O1  UNL     1      79.143  10.026  -7.934  1.00  0.00    -0.353 OA
HETATM   23  C1  UNL     1      79.986  11.096  -8.354  1.00  0.00     0.210 C
ENDBRANCH  19  22
BRANCH  20  24
HETATM   24  O4  UNL     1      79.923   8.954  -5.573  1.00  0.00    -0.343 OA
BRANCH  24  25
HETATM   25  C22 UNL     1      81.130   9.552  -5.061  1.00  0.00     0.129 C
HETATM   26  C23 UNL     1      80.723  10.346  -3.742  1.00  0.00     0.032 C
HETATM   27  C24 UNL     1      80.578   8.972  -3.132  1.00  0.00     0.005 C
HETATM   28  C25 UNL     1      81.771   8.599  -4.094  1.00  0.00     0.032 C
ENDBRANCH  24  25
ENDBRANCH  20  24
ENDBRANCH  14  15
ENDBRANCH  12  14
ENDBRANCH   1  12
BRANCH   4  29
HETATM   29  N3  UNL     1      79.347   3.009  -2.634  1.00  0.00    -0.225 N
ATOM     30  H3  UNL     1      78.967   2.228  -2.099  1.00  0.00     0.177 HD
BRANCH  29  31
HETATM   31  C9  UNL     1      79.177   4.344  -2.111  1.00  0.00     0.138 C
BRANCH  31  32
HETATM   32  C10 UNL     1      77.792   4.866  -2.254  1.00  0.00     0.020 C
BRANCH  32  33
HETATM   33  C11 UNL     1      77.601   6.319  -2.099  1.00  0.00     0.002 C
BRANCH  33  34
HETATM   34  C12 UNL     1      76.209   6.862  -2.145  1.00  0.00     0.000 C
BRANCH  34  35
HETATM   35  C13 UNL     1      75.546   6.861  -0.810  1.00  0.00     0.008 C
BRANCH  35  36
HETATM   36  C14 UNL     1      76.389   7.016   0.406  1.00  0.00     0.086 C
BRANCH  36  37
HETATM   37  C15 UNL     1      76.278   5.768   1.201  1.00  0.00     0.135 C
HETATM   38  N4  UNL     1      77.322   5.075   1.547  1.00  0.00    -0.251 N
ATOM     39  H4  UNL     1      77.186   4.228   2.098  1.00  0.00     0.196 HD
BRANCH  37  40
HETATM   40  O2  UNL     1      75.044   5.269   1.618  1.00  0.00    -0.348 OA
ATOM     41  H2  UNL     1      74.950   4.770   2.421  1.00  0.00     0.219 HD
ENDBRANCH  37  40
BRANCH  38  42
HETATM   42  O3  UNL     1      78.594   5.435   1.203  1.00  0.00    -0.288 OA
ATOM     43  H3  UNL     1      79.266   5.630   1.847  1.00  0.00     0.244 HD
ENDBRANCH  38  42
ENDBRANCH  36  37
ENDBRANCH  35  36
ENDBRANCH  34  35
ENDBRANCH  33  34
ENDBRANCH  32  33
ENDBRANCH  31  32
ENDBRANCH  29  31
ENDBRANCH   4  29
BRANCH   8  44
HETATM   44  C17 UNL     1      83.543   0.121  -5.608  1.00  0.00     0.099 A
HETATM   45  C18 UNL     1      83.686  -1.366  -5.156  1.00  0.00     0.028 A
HETATM   46  C19 UNL     1      83.242  -1.013  -6.517  1.00  0.00     0.028 A
ENDBRANCH   8  44
TORSDOF 17
ENDMDL