MODEL 4
REMARK VINA RESULT: -7.178771451      5.895      8.287
REMARK  15 active torsions:
REMARK  status: ('A' for Active; 'I' for Inactive)
REMARK    1  A    between atoms: C2_2  and  C3_3
REMARK    2  A    between atoms: C3_3  and  C4_4
REMARK    3  A    between atoms: C4_4  and  C5_5
REMARK    4  A    between atoms: C5_5  and  C6_6
REMARK    5  A    between atoms: C6_6  and  C7_7
REMARK    6  A    between atoms: C7_7  and  O1_8
REMARK    7  A    between atoms: C7_7  and  C8_10
REMARK    8  A    between atoms: C7_7  and  C20_31
REMARK    9  A    between atoms: C8_10  and  N1_11
REMARK   10  A    between atoms: C11_14  and  N2_15
REMARK   11  A    between atoms: N2_15  and  C12_18
REMARK   12  A    between atoms: C12_18  and  C13_19
REMARK   13  A    between atoms: C20_31  and  O3_32
REMARK   14  A    between atoms: C20_31  and  C21_34
REMARK   15  A    between atoms: C21_34  and  C22_35
ROOT
HETATM    1  N1  UNL     1      79.737   9.781  -6.363  1.00  0.00    -0.281 N
HETATM    2  C9  UNL     1      80.810   8.942  -6.570  1.00  0.00     0.091 C
HETATM    3  C10 UNL     1      81.623   8.509  -5.387  1.00  0.00     0.089 C
HETATM    4  C11 UNL     1      81.378   9.150  -4.085  1.00  0.00     0.283 C
HETATM    5  C19 UNL     1      80.654  10.410  -4.179  1.00  0.00     0.267 C
HETATM    6  O2  UNL     1      80.858  11.319  -3.342  1.00  0.00    -0.269 OA
HETATM    7  N3  UNL     1      79.720  10.563  -5.243  1.00  0.00    -0.263 N
ATOM      8  H3  UNL     1      79.008  11.289  -5.167  1.00  0.00     0.190 HD
ENDROOT
BRANCH   1   9
HETATM    9  C8  UNL     1      78.736   9.978  -7.297  1.00  0.00     0.128 C
BRANCH   9  10
HETATM   10  C7  UNL     1      77.411   9.323  -6.922  1.00  0.00     0.117 C
BRANCH  10  11
HETATM   11  C6  UNL     1      77.484   7.882  -7.478  1.00  0.00     0.046 C
BRANCH  11  12
HETATM   12  C5  UNL     1      77.332   6.861  -6.397  1.00  0.00     0.004 C
BRANCH  12  13
HETATM   13  C4  UNL     1      76.018   6.107  -6.511  1.00  0.00     0.000 C
BRANCH  13  14
HETATM   14  C3  UNL     1      75.159   6.247  -5.277  1.00  0.00    -0.000 C
BRANCH  14  15
HETATM   15  C2  UNL     1      73.716   5.909  -5.578  1.00  0.00    -0.005 C
HETATM   16  C1  UNL     1      72.774   6.536  -4.570  1.00  0.00     0.005 C
ENDBRANCH  14  15
ENDBRANCH  13  14
ENDBRANCH  12  13
ENDBRANCH  11  12
ENDBRANCH  10  11
BRANCH  10  17
HETATM   17  O1  UNL     1      77.342   9.182  -5.568  1.00  0.00    -0.382 OA
ATOM     18  H1  UNL     1      76.619   9.735  -5.296  1.00  0.00     0.211 HD
ENDBRANCH  10  17
BRANCH  10  19
HETATM   19  C20 UNL     1      76.263  10.015  -7.553  1.00  0.00     0.158 C
BRANCH  19  20
HETATM   20  O3  UNL     1      76.777  11.325  -7.904  1.00  0.00    -0.392 OA
ATOM     21  H3  UNL     1      77.056  11.236  -8.808  1.00  0.00     0.210 HD
ENDBRANCH  19  20
BRANCH  19  22
HETATM   22  C21 UNL     1      75.071  10.326  -6.731  1.00  0.00     0.039 C
BRANCH  22  23
HETATM   23  C22 UNL     1      73.909   9.386  -6.759  1.00  0.00    -0.008 C
HETATM   24  C23 UNL     1      72.693  10.180  -6.319  1.00  0.00     0.031 C
HETATM   25  C24 UNL     1      71.900  10.765  -7.423  1.00  0.00     0.168 C
HETATM   26  O4  UNL     1      71.994  10.092  -8.632  1.00  0.00    -0.391 OA
HETATM   27  C25 UNL     1      72.224   8.742  -8.390  1.00  0.00     0.168 C
HETATM   28  C26 UNL     1      73.711   8.662  -8.044  1.00  0.00     0.031 C
ENDBRANCH  22  23
ENDBRANCH  19  22
ENDBRANCH  10  19
ENDBRANCH   9  10
ENDBRANCH   1   9
BRANCH   4  29
HETATM   29  N2  UNL     1      80.843   8.283  -3.048  1.00  0.00    -0.058 N
ATOM     30  H22 UNL     1      81.584   7.732  -2.615  1.00  0.00     0.278 HD
ATOM     31  H21 UNL     1      80.545   8.826  -2.237  1.00  0.00     0.278 HD
BRANCH  29  32
HETATM   32  C12 UNL     1      79.792   7.445  -3.515  1.00  0.00     0.271 C
BRANCH  32  33
HETATM   33  C13 UNL     1      78.833   7.062  -2.454  1.00  0.00    -0.031 A
HETATM   34  C14 UNL     1      79.319   6.564  -1.263  1.00  0.00     0.010 A
HETATM   35  C15 UNL     1      78.489   6.184  -0.228  1.00  0.00     0.021 A
HETATM   36  C16 UNL     1      77.126   6.292  -0.358  1.00  0.00     0.033 A
HETATM   37  S1  UNL     1      76.044   5.797   0.987  1.00  0.00    -0.051 SA
HETATM   38  C17 UNL     1      76.627   6.788  -1.543  1.00  0.00     0.052 A
HETATM   39 CL1  UNL     1      74.896   6.927  -1.709  1.00  0.00    -0.083 Cl
HETATM   40  C18 UNL     1      77.471   7.173  -2.588  1.00  0.00     0.034 A
ENDBRANCH  32  33
ENDBRANCH  29  32
ENDBRANCH   4  29
TORSDOF 15
ENDMDL