MODEL 2
REMARK VINA RESULT: -6.899667140      1.522      2.056
REMARK  15 active torsions:
REMARK  status: ('A' for Active; 'I' for Inactive)
REMARK    1  A    between atoms: C2_2  and  C3_3
REMARK    2  A    between atoms: C3_3  and  N1_4
REMARK    3  A    between atoms: N1_4  and  C4_6
REMARK    4  A    between atoms: C5_9  and  C6_10
REMARK    5  A    between atoms: C8_13  and  C9_14
REMARK    6  A    between atoms: C9_14  and  C10_15
REMARK    7  A    between atoms: C10_15  and  C11_16
REMARK    8  A    between atoms: C11_16  and  N3_17
REMARK    9  A    between atoms: N3_17  and  C12_18
REMARK   10  A    between atoms: N3_17  and  C14_21
REMARK   11  A    between atoms: C12_18  and  C13_19
REMARK   12  A    between atoms: C15_24  and  N5_25
REMARK   13  A    between atoms: N5_25  and  C16_27
REMARK   14  A    between atoms: C16_27  and  C17_28
REMARK   15  A    between atoms: C22_35  and  N7_36
ROOT
HETATM    1  N3  UNL     1      76.144   6.850  -1.514  1.00  0.00    -0.216 N
ENDROOT
BRANCH   1   2
HETATM    2  C11 UNL     1      74.956   6.911  -2.363  1.00  0.00     0.141 C
BRANCH   2   3
HETATM    3  C10 UNL     1      75.180   7.606  -3.657  1.00  0.00     0.025 C
BRANCH   3   4
HETATM    4  C9  UNL     1      75.213   6.751  -4.861  1.00  0.00     0.048 C
BRANCH   4   5
HETATM    5  C8  UNL     1      76.539   6.696  -5.513  1.00  0.00    -0.017 A
HETATM    6  S1  UNL     1      77.493   7.848  -6.314  1.00  0.00    -0.106 SA
HETATM    7  C7  UNL     1      78.840   6.882  -6.696  1.00  0.00     0.063 A
HETATM    8  C6  UNL     1      78.500   5.658  -6.176  1.00  0.00    -0.001 A
HETATM    9  C23 UNL     1      77.304   5.563  -5.562  1.00  0.00     0.028 A
BRANCH   8  10
HETATM   10  C5  UNL     1      79.460   4.524  -6.322  1.00  0.00     0.061 A
HETATM   11  N2  UNL     1      80.515   4.688  -7.122  1.00  0.00    -0.191 N
HETATM   12  C4  UNL     1      81.461   3.727  -7.332  1.00  0.00     0.678 A
ATOM     13  H2  UNL     1      80.621   5.581  -7.603  1.00  0.00     0.184 HD
HETATM   14  N9  UNL     1      81.277   2.573  -6.676  1.00  0.00    -0.202 N
HETATM   15  C25 UNL     1      80.233   2.342  -5.853  1.00  0.00     0.108 A
ATOM     16  H9  UNL     1      81.964   1.830  -6.805  1.00  0.00     0.183 HD
HETATM   17  C24 UNL     1      79.304   3.346  -5.675  1.00  0.00     0.048 A
BRANCH  12  18
HETATM   18  N1  UNL     1      82.452   3.967  -8.129  1.00  0.00    -0.226 N
ATOM     19  H1  UNL     1      83.207   4.575  -7.811  1.00  0.00     0.177 HD
BRANCH  18  20
HETATM   20  C3  UNL     1      82.519   3.405  -9.449  1.00  0.00     0.137 C
BRANCH  20  21
HETATM   21  C2  UNL     1      83.542   2.266  -9.479  1.00  0.00     0.016 C
HETATM   22  C1  UNL     1      82.882   0.943  -9.721  1.00  0.00     0.006 C
ENDBRANCH  20  21
ENDBRANCH  18  20
ENDBRANCH  12  18
ENDBRANCH   8  10
ENDBRANCH   4   5
ENDBRANCH   3   4
ENDBRANCH   2   3
ENDBRANCH   1   2
BRANCH   1  23
HETATM   23  C12 UNL     1      76.064   7.368  -0.161  1.00  0.00     0.156 C
BRANCH  23  24
HETATM   24  C13 UNL     1      75.795   6.360   0.895  1.00  0.00     0.135 C
HETATM   25 CL1  UNL     1      77.184   5.481   1.496  1.00  0.00    -0.129 Cl
ENDBRANCH  23  24
ENDBRANCH   1  23
BRANCH   1  26
HETATM   26  C14 UNL     1      77.393   6.330  -1.939  1.00  0.00     0.709 A
HETATM   27  N4  UNL     1      78.356   7.130  -2.431  1.00  0.00    -0.021 N
HETATM   28  C15 UNL     1      79.557   6.650  -2.839  1.00  0.00     0.707 A
ATOM     29  H4  UNL     1      78.176   8.132  -2.500  1.00  0.00     0.203 HD
HETATM   30  N6  UNL     1      79.816   5.334  -2.759  1.00  0.00    -0.022 N
HETATM   31  C22 UNL     1      78.870   4.522  -2.272  1.00  0.00     0.705 A
ATOM     32  H6  UNL     1      80.716   4.961  -3.062  1.00  0.00     0.203 HD
HETATM   33  N8  UNL     1      77.689   5.021  -1.874  1.00  0.00    -0.022 N
ATOM     34  H8  UNL     1      76.985   4.380  -1.507  1.00  0.00     0.203 HD
BRANCH  28  35
HETATM   35  N5  UNL     1      80.434   7.468  -3.297  1.00  0.00    -0.225 N
ATOM     36  H5  UNL     1      81.140   7.152  -3.961  1.00  0.00     0.177 HD
BRANCH  35  37
HETATM   37  C16 UNL     1      80.402   8.836  -2.856  1.00  0.00     0.142 C
BRANCH  37  38
HETATM   38  C17 UNL     1      80.936   9.792  -3.903  1.00  0.00     0.004 C
HETATM   39  C18 UNL     1      81.394   9.016  -5.102  1.00  0.00     0.006 C
HETATM   40  C19 UNL     1      81.179   9.958  -6.269  1.00  0.00     0.000 C
HETATM   41  C20 UNL     1      79.985  10.812  -5.891  1.00  0.00     0.000 C
HETATM   42  C21 UNL     1      79.859  10.728  -4.382  1.00  0.00     0.006 C
ENDBRANCH  37  38
ENDBRANCH  35  37
ENDBRANCH  28  35
BRANCH  31  43
HETATM   43  N7  UNL     1      79.157   3.267  -2.212  1.00  0.00    -0.234 N
ATOM     44  H72 UNL     1      79.824   2.819  -2.840  1.00  0.00     0.174 HD
ATOM     45  H71 UNL     1      78.681   2.721  -1.494  1.00  0.00     0.174 HD
ENDBRANCH  31  43
ENDBRANCH   1  26
TORSDOF 15
ENDMDL