MODEL 3
REMARK VINA RESULT: -7.083219952      2.009      2.654
REMARK  15 active torsions:
REMARK  status: ('A' for Active; 'I' for Inactive)
REMARK    1  A    between atoms: N1_2  and  C3_4
REMARK    2  A    between atoms: C3_4  and  C4_5
REMARK    3  A    between atoms: C4_5  and  C5_6
REMARK    4  A    between atoms: C5_6  and  C6_7
REMARK    5  A    between atoms: C6_7  and  C7_8
REMARK    6  A    between atoms: C7_8  and  C8_9
REMARK    7  A    between atoms: C8_9  and  N2_10
REMARK    8  A    between atoms: C12_18  and  N4_19
REMARK    9  A    between atoms: N4_19  and  C13_21
REMARK   10  A    between atoms: C13_21  and  C14_22
REMARK   11  A    between atoms: C14_22  and  C15_23
REMARK   12  A    between atoms: C15_23  and  N5_24
REMARK       I    between atoms: N5_24  and  C16_26
REMARK       I    between atoms: C16_26  and  N6_28
REMARK   13  A    between atoms: N6_28  and  C17_30
REMARK   14  A    between atoms: N8_34  and  C19_35
REMARK   15  A    between atoms: C22_38  and  O2_39
ROOT
HETATM    1  C13 UNL     1      79.439   5.421  -2.116  1.00  0.00     0.123 C
ENDROOT
BRANCH   1   2
HETATM    2  N4  UNL     1      78.370   5.029  -1.266  1.00  0.00    -0.374 N
ATOM      3  H4  UNL     1      78.417   4.071  -0.917  1.00  0.00     0.161 HD
BRANCH   2   4
HETATM    4  C12 UNL     1      77.361   5.704  -0.876  1.00  0.00     0.140 A
HETATM    5  C11 UNL     1      77.239   6.000   0.485  1.00  0.00     0.094 A
HETATM    6  C10 UNL     1      76.151   6.721   0.884  1.00  0.00     0.133 A
HETATM    7 CL1  UNL     1      78.475   5.436   1.588  1.00  0.00    -0.079 Cl
HETATM    8  N3  UNL     1      75.245   7.122  -0.010  1.00  0.00    -0.200 N
HETATM    9  C9  UNL     1      75.331   6.850  -1.352  1.00  0.00     0.679 A
ATOM     10  H3  UNL     1      74.445   7.659   0.322  1.00  0.00     0.183 HD
HETATM   11  N2  UNL     1      74.407   7.275  -2.139  1.00  0.00    -0.226 N
HETATM   12  N9  UNL     1      76.409   6.141  -1.720  1.00  0.00    -0.175 N
ATOM     13  H2  UNL     1      73.631   7.805  -1.744  1.00  0.00     0.177 HD
ATOM     14  H9  UNL     1      76.514   5.917  -2.709  1.00  0.00     0.186 HD
BRANCH  11  15
HETATM   15  C8  UNL     1      74.429   7.032  -3.549  1.00  0.00     0.138 C
BRANCH  15  16
HETATM   16  C7  UNL     1      73.099   6.560  -4.102  1.00  0.00     0.020 C
BRANCH  16  17
HETATM   17  C6  UNL     1      73.148   6.333  -5.576  1.00  0.00     0.002 C
BRANCH  17  18
HETATM   18  C5  UNL     1      72.350   7.303  -6.389  1.00  0.00     0.002 C
BRANCH  18  19
HETATM   19  C4  UNL     1      73.176   8.407  -6.967  1.00  0.00     0.030 C
BRANCH  19  20
HETATM   20  C3  UNL     1      72.823   9.694  -6.278  1.00  0.00     0.271 C
BRANCH  20  21
HETATM   21  N1  UNL     1      73.919  10.624  -6.219  1.00  0.00     0.080 N
HETATM   22  C1  UNL     1      74.280  11.029  -7.549  1.00  0.00     0.309 C
HETATM   23  C2  UNL     1      75.050  10.114  -5.488  1.00  0.00     0.309 C
ENDBRANCH  20  21
ENDBRANCH  19  20
ENDBRANCH  18  19
ENDBRANCH  17  18
ENDBRANCH  16  17
ENDBRANCH  15  16
ENDBRANCH  11  15
ENDBRANCH   2   4
ENDBRANCH   1   2
BRANCH   1  24
HETATM   24  C14 UNL     1      79.684   6.924  -1.930  1.00  0.00     0.039 C
BRANCH  24  25
HETATM   25  C15 UNL     1      80.435   7.407  -3.135  1.00  0.00     0.126 C
BRANCH  25  26
HETATM   26  N5  UNL     1      79.603   8.076  -4.091  1.00  0.00    -0.343 N
HETATM   27  C16 UNL     1      79.935   9.369  -4.547  1.00  0.00     0.320 C
HETATM   28  O1  UNL     1      80.980   9.903  -4.082  1.00  0.00    -0.247 OA
HETATM   29  N6  UNL     1      79.108  10.019  -5.492  1.00  0.00    -0.306 N
ATOM     30  H6  UNL     1      78.281   9.517  -5.812  1.00  0.00     0.171 HD
ATOM     31  H5  UNL     1      78.766   7.614  -4.445  1.00  0.00     0.164 HD
BRANCH  29  32
HETATM   32  C17 UNL     1      79.333  11.301  -6.028  1.00  0.00     0.070 A
HETATM   33  C18 UNL     1      78.983  12.514  -5.425  1.00  0.00     0.138 A
HETATM   34  N7  UNL     1      79.357  13.521  -6.250  1.00  0.00    -0.307 N
HETATM   35  N8  UNL     1      79.919  13.020  -7.331  1.00  0.00    -0.297 N
ATOM     36  H7  UNL     1      79.224  14.515  -6.063  1.00  0.00     0.186 HD
HETATM   37  C25 UNL     1      79.917  11.660  -7.220  1.00  0.00     0.141 A
BRANCH  35  38
HETATM   38  C19 UNL     1      80.442  13.783  -8.439  1.00  0.00     0.107 C
HETATM   39  C20 UNL     1      80.886  15.158  -8.000  1.00  0.00     0.030 C
HETATM   40  C21 UNL     1      81.192  15.939  -9.272  1.00  0.00     0.034 C
HETATM   41  C22 UNL     1      82.339  15.292  -9.991  1.00  0.00     0.118 C
HETATM   42  C23 UNL     1      82.752  13.983  -9.364  1.00  0.00     0.034 C
HETATM   43  C24 UNL     1      81.565  13.056  -9.174  1.00  0.00     0.030 C
BRANCH  41  44
HETATM   44  O2  UNL     1      81.990  15.063 -11.338  1.00  0.00    -0.396 OA
ATOM     45  H2  UNL     1      82.632  14.493 -11.744  1.00  0.00     0.210 HD
ENDBRANCH  41  44
ENDBRANCH  35  38
ENDBRANCH  29  32
ENDBRANCH  25  26
ENDBRANCH  24  25
ENDBRANCH   1  24
TORSDOF 15
ENDMDL