MODEL 1
REMARK VINA RESULT: -6.773399558      0.000      0.000
REMARK  15 active torsions:
REMARK  status: ('A' for Active; 'I' for Inactive)
REMARK    1  A    between atoms: C2_2  and  C3_3
REMARK    2  A    between atoms: C2_2  and  C7_9
REMARK    3  A    between atoms: C3_3  and  C4_4
REMARK    4  A    between atoms: C4_4  and  C5_5
REMARK    5  A    between atoms: C5_5  and  C6_6
REMARK    6  A    between atoms: C6_6  and  O1_7
REMARK    7  A    between atoms: C8_10  and  O2_11
REMARK    8  A    between atoms: C14_18  and  C15_19
REMARK    9  A    between atoms: C16_20  and  C17_21
REMARK   10  A    between atoms: C17_21  and  O3_22
REMARK   11  A    between atoms: C17_21  and  C18_24
REMARK   12  A    between atoms: C18_24  and  C20_27
REMARK   13  A    between atoms: C20_27  and  C21_28
REMARK   14  A    between atoms: C21_28  and  C22_29
REMARK   15  A    between atoms: C22_29  and  C23_30
ROOT
HETATM    1  C18 UNL     1     -13.429  10.489  41.581  1.00  0.00     0.125 C
HETATM    2  C19 UNL     1     -13.752  11.126  40.266  1.00  0.00     0.067 C
HETATM    3  N1  UNL     1     -13.996  11.601  39.241  1.00  0.00    -0.197 NA
ENDROOT
BRANCH   1   4
HETATM    4  C17 UNL     1     -13.247   9.001  41.354  1.00  0.00     0.158 C
BRANCH   4   5
HETATM    5  C16 UNL     1     -12.363   8.386  42.346  1.00  0.00     0.003 C
HETATM    6  C15 UNL     1     -12.608   7.833  43.496  1.00  0.00    -0.016 C
BRANCH   6   7
HETATM    7  C14 UNL     1     -13.796   7.585  44.281  1.00  0.00     0.078 C
HETATM    8  C13 UNL     1     -14.760   6.543  43.883  1.00  0.00     0.016 C
HETATM    9  C12 UNL     1     -15.724   6.318  45.035  1.00  0.00     0.007 C
HETATM   10  C11 UNL     1     -15.847   7.507  45.966  1.00  0.00     0.002 C
HETATM   11  C10 UNL     1     -16.850   7.102  46.997  1.00  0.00     0.001 C
HETATM   12  C25 UNL     1     -14.512   7.718  46.692  1.00  0.00     0.060 C
HETATM   13  C9  UNL     1     -18.282   7.291  46.634  1.00  0.00     0.038 C
HETATM   14  C28 UNL     1     -16.755   7.878  48.308  1.00  0.00    -0.034 C
HETATM   15  C8  UNL     1     -18.911   6.930  47.994  1.00  0.00     0.123 C
HETATM   16  C7  UNL     1     -18.036   7.711  48.995  1.00  0.00     0.026 C
HETATM   17  C27 UNL     1     -15.499   7.413  48.951  1.00  0.00     0.011 C
HETATM   18  C29 UNL     1     -16.616   9.373  47.971  1.00  0.00     0.016 C
HETATM   19  C26 UNL     1     -14.467   6.900  47.931  1.00  0.00     0.013 C
HETATM   20  C24 UNL     1     -13.455   7.276  45.738  1.00  0.00     0.139 C
HETATM   21  O4  UNL     1     -12.431   6.729  46.048  1.00  0.00    -0.297 OA
BRANCH  15  22
HETATM   22  O2  UNL     1     -18.773   5.563  48.127  1.00  0.00    -0.395 OA
ATOM     23  H2  UNL     1     -18.977   5.098  47.324  1.00  0.00     0.210 HD
ENDBRANCH  15  22
BRANCH  16  24
HETATM   24  C2  UNL     1     -18.079   7.089  50.346  1.00  0.00    -0.011 C
HETATM   25  C1  UNL     1     -19.565   7.232  50.782  1.00  0.00     0.010 C
BRANCH  24  26
HETATM   26  C3  UNL     1     -17.354   7.962  51.356  1.00  0.00     0.005 C
BRANCH  26  27
HETATM   27  C4  UNL     1     -18.013   9.308  51.513  1.00  0.00     0.002 C
BRANCH  27  28
HETATM   28  C5  UNL     1     -17.051  10.447  51.551  1.00  0.00     0.026 C
BRANCH  28  29
HETATM   29  C6  UNL     1     -15.672   9.884  51.828  1.00  0.00     0.164 C
BRANCH  29  30
HETATM   30  O1  UNL     1     -14.762  10.439  50.928  1.00  0.00    -0.401 OA
ATOM     31  H1  UNL     1     -14.709   9.886  50.157  1.00  0.00     0.209 HD
ENDBRANCH  29  30
ENDBRANCH  28  29
ENDBRANCH  27  28
ENDBRANCH  26  27
ENDBRANCH  24  26
ENDBRANCH  16  24
ENDBRANCH   6   7
ENDBRANCH   4   5
BRANCH   4  32
HETATM   32  O3  UNL     1     -12.834   8.724  40.065  1.00  0.00    -0.390 OA
ATOM     33  H3  UNL     1     -12.489   9.498  39.635  1.00  0.00     0.210 HD
ENDBRANCH   4  32
ENDBRANCH   1   4
BRANCH   1  34
HETATM   34  C20 UNL     1     -14.467  10.875  42.563  1.00  0.00     0.022 C
BRANCH  34  35
HETATM   35  C21 UNL     1     -14.014  11.737  43.706  1.00  0.00     0.007 C
BRANCH  35  36
HETATM   36  C22 UNL     1     -14.419  11.092  45.030  1.00  0.00     0.071 C
BRANCH  36  37
HETATM   37  C23 UNL     1     -13.255  11.168  45.985  1.00  0.00     0.353 C
HETATM   38  F1  UNL     1     -13.630  10.711  47.216  1.00  0.00    -0.214 F
HETATM   39  F2  UNL     1     -12.232  10.396  45.448  1.00  0.00    -0.214 F
ENDBRANCH  36  37
ENDBRANCH  35  36
ENDBRANCH  34  35
ENDBRANCH   1  34
TORSDOF 15
ENDMDL