MODEL 5
REMARK VINA RESULT: -6.133179166      3.150      5.284
REMARK  13 active torsions:
REMARK  status: ('A' for Active; 'I' for Inactive)
REMARK    1  A    between atoms: O1_2  and  C2_3
REMARK    2  A    between atoms: C7_9  and  O2_10
REMARK    3  A    between atoms: N1_14  and  C10_15
REMARK    4  A    between atoms: C10_15  and  C11_16
REMARK    5  A    between atoms: C11_16  and  C12_17
REMARK    6  A    between atoms: C12_17  and  C13_18
REMARK    7  A    between atoms: C13_18  and  C14_19
REMARK    8  A    between atoms: C14_19  and  C15_21
REMARK    9  A    between atoms: C15_21  and  N2_22
REMARK   10  A    between atoms: C15_21  and  C16_26
REMARK   11  A    between atoms: C16_26  and  C17_27
REMARK   12  A    between atoms: C17_27  and  C18_28
REMARK   13  A    between atoms: C18_28  and  N3_29
REMARK       I    between atoms: N3_29  and  C19_31
ROOT
HETATM    1  C12 UNL     1     -14.408   7.118  42.216  1.00  0.00     0.003 C
ENDROOT
BRANCH   1   2
HETATM    2  C11 UNL     1     -13.783   6.281  43.310  1.00  0.00     0.020 C
BRANCH   2   3
HETATM    3  C10 UNL     1     -14.766   5.291  43.888  1.00  0.00     0.125 C
BRANCH   3   4
HETATM    4  N1  UNL     1     -15.426   5.899  44.997  1.00  0.00    -0.360 N
HETATM    5  C9  UNL     1     -14.733   5.965  46.202  1.00  0.00     0.307 C
HETATM    6  C5  UNL     1     -15.252   7.142  46.987  1.00  0.00     0.022 A
HETATM    7  F1  UNL     1     -14.985   4.828  46.963  1.00  0.00    -0.221 F
HETATM    8  C4  UNL     1     -16.649   7.244  47.013  1.00  0.00    -0.038 A
HETATM    9  C6  UNL     1     -14.473   8.036  47.634  1.00  0.00     0.058 A
HETATM   10  C3  UNL     1     -17.217   8.272  47.708  1.00  0.00     0.047 A
HETATM   11  C21 UNL     1     -17.450   6.216  46.257  1.00  0.00     0.083 C
HETATM   12  C2  UNL     1     -16.414   9.195  48.376  1.00  0.00     0.103 A
HETATM   13  C7  UNL     1     -15.013   9.085  48.344  1.00  0.00     0.119 A
HETATM   14  C20 UNL     1     -16.800   6.076  44.903  1.00  0.00     0.066 C
HETATM   15 BR1  UNL     1     -12.568   7.843  47.558  1.00  0.00    -0.047 Br
BRANCH  12  16
HETATM   16  O1  UNL     1     -16.909  10.255  49.099  1.00  0.00    -0.353 OA
HETATM   17  C1  UNL     1     -17.669  10.123  50.265  1.00  0.00     0.210 C
ENDBRANCH  12  16
BRANCH  13  18
HETATM   18  O2  UNL     1     -14.214  10.002  49.008  1.00  0.00    -0.352 OA
HETATM   19  C8  UNL     1     -13.862   9.720  50.366  1.00  0.00     0.210 C
ENDBRANCH  13  18
ENDBRANCH   3   4
ENDBRANCH   2   3
ENDBRANCH   1   2
BRANCH   1  20
HETATM   20  C13 UNL     1     -13.386   7.746  41.320  1.00  0.00     0.018 C
BRANCH  20  21
HETATM   21  C14 UNL     1     -13.332   9.238  41.456  1.00  0.00     0.089 C
HETATM   22  S1  UNL     1     -13.169  10.039  39.819  1.00  0.00    -0.090 SA
BRANCH  21  23
HETATM   23  C15 UNL     1     -12.112   9.669  42.268  1.00  0.00     0.198 C
BRANCH  23  24
HETATM   24  N2  UNL     1     -11.175   8.562  42.278  1.00  0.00    -0.074 N
ATOM     25  H23 UNL     1     -10.925   8.263  43.221  1.00  0.00     0.274 HD
ATOM     26  H22 UNL     1     -11.593   7.686  41.964  1.00  0.00     0.274 HD
ATOM     27  H21 UNL     1     -10.365   8.836  41.722  1.00  0.00     0.274 HD
ENDBRANCH  23  24
BRANCH  23  28
HETATM   28  C16 UNL     1     -12.520   9.923  43.705  1.00  0.00     0.035 C
BRANCH  28  29
HETATM   29  C17 UNL     1     -13.783  10.731  43.792  1.00  0.00     0.022 C
BRANCH  29  30
HETATM   30  C18 UNL     1     -14.359  10.774  45.191  1.00  0.00     0.122 C
BRANCH  30  31
HETATM   31  N3  UNL     1     -14.006  11.992  45.884  1.00  0.00    -0.365 N
HETATM   32  C19 UNL     1     -12.697  12.213  46.428  1.00  0.00     0.181 C
HETATM   33  N4  UNL     1     -12.119  11.356  47.196  1.00  0.00    -0.374 N
HETATM   34  N5  UNL     1     -11.968  13.414  46.131  1.00  0.00    -0.064 NA
ATOM     35  H42 UNL     1     -12.637  10.503  47.407  1.00  0.00     0.158 HD
ATOM     36  H41 UNL     1     -11.189  11.513  47.583  1.00  0.00     0.158 HD
ATOM     37  H3  UNL     1     -14.712  12.720  45.990  1.00  0.00     0.162 HD
ENDBRANCH  30  31
ENDBRANCH  29  30
ENDBRANCH  28  29
ENDBRANCH  23  28
ENDBRANCH  21  23
ENDBRANCH  20  21
ENDBRANCH   1  20
TORSDOF 13
ENDMDL