MODEL 3
REMARK VINA RESULT: -6.311028752      4.516      7.785
REMARK  16 active torsions:
REMARK  status: ('A' for Active; 'I' for Inactive)
REMARK    1  A    between atoms: C2_2  and  C3_3
REMARK    2  A    between atoms: C3_3  and  N1_4
REMARK    3  A    between atoms: C4_5  and  C5_6
REMARK    4  A    between atoms: C7_10  and  N2_11
REMARK    5  A    between atoms: N2_11  and  C8_13
REMARK    6  A    between atoms: C8_13  and  C9_14
REMARK    7  A    between atoms: C9_14  and  C10_15
REMARK    8  A    between atoms: C10_15  and  C11_16
REMARK    9  A    between atoms: C11_16  and  C12_17
REMARK   10  A    between atoms: C12_17  and  N3_18
REMARK   11  A    between atoms: N3_18  and  C13_20
REMARK   12  A    between atoms: C13_20  and  N4_22
REMARK   13  A    between atoms: N4_22  and  C14_24
REMARK   14  A    between atoms: C14_24  and  C15_25
REMARK   15  A    between atoms: C15_25  and  C16_26
REMARK   16  A    between atoms: C22_36  and  N6_37
ROOT
HETATM    1  C9  UNL     1      -7.768   5.865  46.589  1.00  0.00     0.020 C
ENDROOT
BRANCH   1   2
HETATM    2  C8  UNL     1      -8.538   6.715  45.601  1.00  0.00     0.121 C
BRANCH   2   3
HETATM    3  N2  UNL     1      -9.285   7.755  46.238  1.00  0.00    -0.376 N
ATOM      4  H2  UNL     1      -8.982   8.098  47.149  1.00  0.00     0.161 HD
BRANCH   3   5
HETATM    5  C7  UNL     1     -10.331   8.270  45.690  1.00  0.00     0.119 A
HETATM    6  C6  UNL     1     -11.113   9.185  46.315  1.00  0.00     0.082 A
HETATM    7  C4  UNL     1     -12.270   9.774  45.751  1.00  0.00     0.093 A
HETATM    8  N1  UNL     1     -12.590   9.386  44.519  1.00  0.00    -0.160 N
HETATM    9  C22 UNL     1     -11.792   8.455  43.884  1.00  0.00     0.684 A
HETATM   10  N5  UNL     1     -10.703   7.913  44.440  1.00  0.00    -0.177 N
ATOM     11  H5  UNL     1     -10.153   7.229  43.921  1.00  0.00     0.186 HD
BRANCH   7  12
HETATM   12  C5  UNL     1     -12.993  10.737  46.527  1.00  0.00     0.131 C
HETATM   13 CL1  UNL     1     -14.705  10.616  46.777  1.00  0.00    -0.068 Cl
HETATM   14 CL2  UNL     1     -12.416  12.445  46.310  1.00  0.00    -0.068 Cl
ENDBRANCH   7  12
BRANCH   8  15
HETATM   15  C3  UNL     1     -13.716   9.873  43.842  1.00  0.00     0.088 C
BRANCH  15  16
HETATM   16  C2  UNL     1     -13.666  11.148  43.091  1.00  0.00     0.041 C
HETATM   17  C1  UNL     1     -14.802  11.419  42.148  1.00  0.00     0.010 C
ENDBRANCH  15  16
ENDBRANCH   8  15
BRANCH   9  18
HETATM   18  N6  UNL     1     -12.103   8.058  42.698  1.00  0.00    -0.234 N
ATOM     19  H62 UNL     1     -13.027   7.645  42.575  1.00  0.00     0.174 HD
ATOM     20  H61 UNL     1     -11.435   8.182  41.938  1.00  0.00     0.174 HD
ENDBRANCH   9  18
ENDBRANCH   3   5
ENDBRANCH   2   3
ENDBRANCH   1   2
BRANCH   1  21
HETATM   21  C10 UNL     1      -7.964   4.401  46.364  1.00  0.00     0.003 C
BRANCH  21  22
HETATM   22  C11 UNL     1      -8.426   3.670  47.597  1.00  0.00     0.020 C
BRANCH  22  23
HETATM   23  C12 UNL     1      -9.091   4.551  48.594  1.00  0.00     0.122 C
BRANCH  23  24
HETATM   24  N3  UNL     1     -10.514   4.358  48.539  1.00  0.00    -0.367 N
ATOM     25  H3  UNL     1     -10.921   3.454  48.779  1.00  0.00     0.161 HD
BRANCH  24  26
HETATM   26  C13 UNL     1     -11.347   5.437  48.148  1.00  0.00     0.167 C
HETATM   27  S1  UNL     1     -11.463   6.726  49.132  1.00  0.00    -0.041 SA
BRANCH  26  28
HETATM   28  N4  UNL     1     -12.074   5.418  46.926  1.00  0.00    -0.367 N
ATOM     29  H4  UNL     1     -11.763   4.828  46.154  1.00  0.00     0.161 HD
BRANCH  28  30
HETATM   30  C14 UNL     1     -13.241   6.226  46.783  1.00  0.00     0.124 C
BRANCH  30  31
HETATM   31  C15 UNL     1     -14.099   5.825  45.608  1.00  0.00     0.051 C
BRANCH  31  32
HETATM   32  C16 UNL     1     -15.228   4.915  46.006  1.00  0.00     0.128 C
HETATM   33  C17 UNL     1     -16.112   4.520  44.859  1.00  0.00     0.058 C
HETATM   34  C18 UNL     1     -17.004   5.732  44.576  1.00  0.00     0.174 C
HETATM   35  O1  UNL     1     -17.723   5.952  45.723  1.00  0.00    -0.356 OA
HETATM   36  C19 UNL     1     -16.991   6.187  46.857  1.00  0.00     0.157 C
HETATM   37  C20 UNL     1     -17.957   5.976  48.037  1.00  0.00     0.078 C
HETATM   38  C21 UNL     1     -16.605   7.660  46.904  1.00  0.00     0.078 C
HETATM   39  O2  UNL     1     -15.932   5.356  47.092  1.00  0.00    -0.350 OA
ENDBRANCH  31  32
ENDBRANCH  30  31
ENDBRANCH  28  30
ENDBRANCH  26  28
ENDBRANCH  24  26
ENDBRANCH  23  24
ENDBRANCH  22  23
ENDBRANCH  21  22
ENDBRANCH   1  21
TORSDOF 16
ENDMDL