MODEL 1
REMARK VINA RESULT: -7.462331103      0.000      0.000
REMARK  14 active torsions:
REMARK  status: ('A' for Active; 'I' for Inactive)
REMARK    1  A    between atoms: C2_2  and  O1_3
REMARK    2  A    between atoms: C2_2  and  C3_5
REMARK    3  A    between atoms: C3_5  and  N1_6
REMARK    4  A    between atoms: C3_5  and  C15_20
REMARK       I    between atoms: N1_6  and  C4_8
REMARK    5  A    between atoms: C4_8  and  C5_10
REMARK    6  A    between atoms: C5_10  and  C6_11
REMARK    7  A    between atoms: C6_11  and  C7_12
REMARK    8  A    between atoms: C7_12  and  C8_13
REMARK    9  A    between atoms: C8_13  and  C9_14
REMARK   10  A    between atoms: C15_20  and  O3_21
REMARK   11  A    between atoms: C15_20  and  C16_23
REMARK   12  A    between atoms: C16_23  and  N2_24
REMARK   13  A    between atoms: C19_27  and  N3_28
REMARK   14  A    between atoms: N3_28  and  C20_30
ROOT
HETATM    1  C20 UNL     1     -18.709   6.960  48.587  1.00  0.00     0.178 C
HETATM    2  C21 UNL     1     -20.030   6.472  48.290  1.00  0.00     0.104 C
HETATM    3  N4  UNL     1     -21.095   6.064  48.078  1.00  0.00    -0.191 NA
ENDROOT
BRANCH   1   4
HETATM    4  N3  UNL     1     -17.726   6.842  47.603  1.00  0.00    -0.385 N
ATOM      5  H3  UNL     1     -17.816   7.401  46.754  1.00  0.00     0.160 HD
BRANCH   4   6
HETATM    6  C19 UNL     1     -16.621   5.989  47.732  1.00  0.00     0.093 C
HETATM    7  C18 UNL     1     -15.577   6.321  48.747  1.00  0.00     0.056 C
HETATM    8  C17 UNL     1     -14.870   7.582  48.318  1.00  0.00     0.274 C
HETATM    9  N2  UNL     1     -14.079   7.348  47.106  1.00  0.00     0.091 N
HETATM   10  C27 UNL     1     -14.450   6.151  46.442  1.00  0.00     0.284 C
HETATM   11  C22 UNL     1     -15.934   5.861  46.372  1.00  0.00     0.012 C
HETATM   12  C23 UNL     1     -16.083   4.438  45.888  1.00  0.00     0.019 C
HETATM   13  C26 UNL     1     -16.595   6.643  45.291  1.00  0.00     0.092 C
HETATM   14  C24 UNL     1     -15.656   4.565  44.441  1.00  0.00     0.080 C
HETATM   15  C25 UNL     1     -16.282   5.860  44.014  1.00  0.00     0.244 C
HETATM   16  F1  UNL     1     -15.440   6.539  43.188  1.00  0.00    -0.206 F
HETATM   17  F2  UNL     1     -17.496   5.527  43.405  1.00  0.00    -0.206 F
BRANCH   9  18
HETATM   18  C16 UNL     1     -12.673   7.364  47.421  1.00  0.00     0.306 C
BRANCH  18  19
HETATM   19  C15 UNL     1     -11.823   7.918  46.348  1.00  0.00     0.171 C
BRANCH  19  20
HETATM   20  C3  UNL     1     -11.540   9.410  46.475  1.00  0.00     0.143 C
BRANCH  20  21
HETATM   21  C2  UNL     1     -10.123   9.673  46.034  1.00  0.00     0.139 C
HETATM   22  C1  UNL     1      -9.560  10.902  46.740  1.00  0.00     0.041 C
BRANCH  21  23
HETATM   23  O1  UNL     1      -9.969   9.773  44.659  1.00  0.00    -0.394 OA
ATOM     24  H1  UNL     1     -10.560   9.185  44.205  1.00  0.00     0.210 HD
ENDBRANCH  21  23
ENDBRANCH  20  21
BRANCH  20  25
HETATM   25  N1  UNL     1     -12.509  10.081  45.662  1.00  0.00    -0.351 N
HETATM   26  C4  UNL     1     -13.621  10.800  46.164  1.00  0.00     0.218 C
HETATM   27  O2  UNL     1     -13.769  10.860  47.403  1.00  0.00    -0.274 OA
ATOM     28  H1  UNL     1     -12.389  10.039  44.650  1.00  0.00     0.163 HD
BRANCH  26  29
HETATM   29  C5  UNL     1     -14.602  11.467  45.285  1.00  0.00     0.103 C
BRANCH  29  30
HETATM   30  C6  UNL     1     -14.061  12.041  44.033  1.00  0.00     0.009 C
BRANCH  30  31
HETATM   31  C7  UNL     1     -14.593  11.515  42.746  1.00  0.00     0.001 C
BRANCH  31  32
HETATM   32  C8  UNL     1     -14.094  10.126  42.506  1.00  0.00     0.004 C
BRANCH  32  33
HETATM   33  C9  UNL     1     -12.810  10.002  41.775  1.00  0.00    -0.014 C
HETATM   34  C10 UNL     1     -12.088   8.707  42.165  1.00  0.00     0.004 C
HETATM   35  C11 UNL     1     -12.817   7.577  41.484  1.00  0.00     0.000 C
HETATM   36  C12 UNL     1     -12.805   7.709  40.012  1.00  0.00     0.000 C
HETATM   37  C13 UNL     1     -13.169   9.042  39.467  1.00  0.00     0.000 C
HETATM   38  C14 UNL     1     -12.843  10.210  40.322  1.00  0.00     0.004 C
ENDBRANCH  32  33
ENDBRANCH  31  32
ENDBRANCH  30  31
ENDBRANCH  29  30
ENDBRANCH  26  29
ENDBRANCH  20  25
ENDBRANCH  19  20
BRANCH  19  39
HETATM   39  O3  UNL     1     -10.724   7.198  45.949  1.00  0.00    -0.392 OA
ATOM     40  H3  UNL     1     -10.865   6.258  45.983  1.00  0.00     0.210 HD
ENDBRANCH  19  39
ENDBRANCH  18  19
ENDBRANCH   9  18
ENDBRANCH   4   6
ENDBRANCH   1   4
TORSDOF 14
ENDMDL