MODEL 4
REMARK VINA RESULT: -6.099352237      3.118      4.606
REMARK  16 active torsions:
REMARK  status: ('A' for Active; 'I' for Inactive)
REMARK    1  A    between atoms: C2_2  and  N1_3
REMARK    2  A    between atoms: C2_2  and  O4_32
REMARK       I    between atoms: N1_3  and  C3_5
REMARK    3  A    between atoms: C3_5  and  C4_7
REMARK    4  A    between atoms: C4_7  and  C6_9
REMARK    5  A    between atoms: C4_7  and  N3_16
REMARK    6  A    between atoms: C6_9  and  C7_10
REMARK    7  A    between atoms: C7_10  and  C8_11
REMARK    8  A    between atoms: C8_11  and  N2_12
REMARK    9  A    between atoms: N3_16  and  O2_17
REMARK       I    between atoms: N3_16  and  C9_19
REMARK       I    between atoms: C9_19  and  N4_21
REMARK   10  A    between atoms: N4_21  and  C10_23
REMARK   11  A    between atoms: C10_23  and  C11_24
REMARK   12  A    between atoms: C11_24  and  C12_25
REMARK   13  A    between atoms: C12_25  and  C13_26
REMARK   14  A    between atoms: C13_26  and  C14_28
REMARK   15  A    between atoms: O4_32  and  C17_33
REMARK   16  A    between atoms: C17_33  and  C18_35
ROOT
HETATM    1  C4  UNL     1     -12.905   8.310  42.647  1.00  0.00     0.141 C
HETATM    2  C5  UNL     1     -14.066   9.016  43.276  1.00  0.00     0.052 C
ENDROOT
BRANCH   1   3
HETATM    3  C3  UNL     1     -11.648   8.671  43.388  1.00  0.00     0.250 C
HETATM    4  N1  UNL     1     -10.951   7.771  44.203  1.00  0.00    -0.332 N
ATOM      5  H1  UNL     1     -11.316   6.824  44.299  1.00  0.00     0.165 HD
HETATM    6  O1  UNL     1     -11.221   9.842  43.253  1.00  0.00    -0.271 OA
BRANCH   4   7
HETATM    7  C2  UNL     1      -9.746   8.113  44.910  1.00  0.00     0.228 C
HETATM    8  C1  UNL     1     -10.129   8.990  46.117  1.00  0.00     0.063 C
BRANCH   7   9
HETATM    9  O4  UNL     1      -9.049   7.027  45.426  1.00  0.00    -0.295 OA
BRANCH   9  10
HETATM   10  C17 UNL     1      -8.152   6.218  44.731  1.00  0.00     0.265 C
HETATM   11  O5  UNL     1      -8.168   6.331  43.479  1.00  0.00    -0.265 OA
BRANCH  10  12
HETATM   12  C18 UNL     1      -7.230   5.282  45.377  1.00  0.00     0.085 C
HETATM   13  C19 UNL     1      -7.417   5.208  46.874  1.00  0.00     0.014 C
HETATM   14  C20 UNL     1      -8.326   4.084  47.280  1.00  0.00     0.001 C
HETATM   15  C21 UNL     1      -7.584   2.775  47.051  1.00  0.00     0.000 C
HETATM   16  C22 UNL     1      -6.664   2.964  45.857  1.00  0.00     0.001 C
HETATM   17  C23 UNL     1      -7.327   3.878  44.824  1.00  0.00     0.014 C
ENDBRANCH  10  12
ENDBRANCH   9  10
ENDBRANCH   7   9
ENDBRANCH   4   7
ENDBRANCH   1   3
BRANCH   1  18
HETATM   18  C6  UNL     1     -12.769   8.718  41.196  1.00  0.00     0.045 C
BRANCH  18  19
HETATM   19  C7  UNL     1     -13.522   9.950  40.830  1.00  0.00     0.030 C
BRANCH  19  20
HETATM   20  C8  UNL     1     -13.141  10.357  39.415  1.00  0.00     0.230 C
BRANCH  20  21
HETATM   21  N2  UNL     1     -12.676   9.242  38.637  1.00  0.00    -0.079 N
ATOM     22  H23 UNL     1     -13.136   9.208  37.728  1.00  0.00     0.274 HD
ATOM     23  H22 UNL     1     -11.714   9.384  38.326  1.00  0.00     0.274 HD
ATOM     24  H21 UNL     1     -12.776   8.357  39.135  1.00  0.00     0.274 HD
ENDBRANCH  20  21
ENDBRANCH  19  20
ENDBRANCH  18  19
ENDBRANCH   1  18
BRANCH   1  25
HETATM   25  N3  UNL     1     -13.046   6.896  42.726  1.00  0.00    -0.191 N
HETATM   26  C9  UNL     1     -14.100   6.207  43.334  1.00  0.00     0.343 C
HETATM   27  O3  UNL     1     -14.111   4.912  43.264  1.00  0.00    -0.245 OA
HETATM   28  N4  UNL     1     -15.189   6.767  44.039  1.00  0.00    -0.341 N
ATOM     29  H4  UNL     1     -15.283   7.775  44.164  1.00  0.00     0.164 HD
BRANCH  25  30
HETATM   30  O2  UNL     1     -12.061   6.123  42.152  1.00  0.00    -0.282 OA
ATOM     31  H2  UNL     1     -12.197   5.827  41.259  1.00  0.00     0.245 HD
ENDBRANCH  25  30
BRANCH  28  32
HETATM   32  C10 UNL     1     -16.183   5.822  44.587  1.00  0.00     0.124 C
BRANCH  32  33
HETATM   33  C11 UNL     1     -16.560   6.235  45.994  1.00  0.00     0.022 C
BRANCH  33  34
HETATM   34  C12 UNL     1     -15.549   5.821  47.002  1.00  0.00     0.041 C
BRANCH  34  35
HETATM   35  C13 UNL     1     -15.053   6.865  47.947  1.00  0.00     0.192 C
HETATM   36  F1  UNL     1     -15.829   8.028  47.583  1.00  0.00    -0.247 F
BRANCH  35  37
HETATM   37  C14 UNL     1     -13.647   7.323  47.741  1.00  0.00     0.060 C
HETATM   38  C15 UNL     1     -12.844   7.668  48.942  1.00  0.00     0.035 C
HETATM   39  C16 UNL     1     -13.708   8.591  46.865  1.00  0.00     0.035 C
HETATM   40 CL1  UNL     1     -12.776   6.121  46.711  1.00  0.00    -0.117 Cl
ENDBRANCH  35  37
ENDBRANCH  34  35
ENDBRANCH  33  34
ENDBRANCH  32  33
ENDBRANCH  28  32
ENDBRANCH   1  25
TORSDOF 16
ENDMDL