MODEL 5
REMARK VINA RESULT: -7.295596852      1.470      1.941
REMARK  13 active torsions:
REMARK  status: ('A' for Active; 'I' for Inactive)
REMARK    1  A    between atoms: C2_2  and  C3_3
REMARK    2  A    between atoms: C3_3  and  C4_4
REMARK    3  A    between atoms: C4_4  and  C5_5
REMARK    4  A    between atoms: C7_10  and  C8_11
REMARK    5  A    between atoms: C8_11  and  C9_12
REMARK    6  A    between atoms: C9_12  and  N2_13
REMARK       I    between atoms: N2_13  and  C10_15
REMARK    7  A    between atoms: C10_15  and  C11_17
REMARK    8  A    between atoms: C14_20  and  C15_21
REMARK    9  A    between atoms: C15_21  and  N3_22
REMARK   10  A    between atoms: N3_22  and  C16_25
REMARK   11  A    between atoms: C16_25  and  C17_26
REMARK   12  A    between atoms: C22_33  and  C23_34
REMARK   13  A    between atoms: C23_34  and  O2_35
ROOT
HETATM    1  C11 UNL     1     -17.487   6.623  47.299  1.00  0.00     0.078 C
HETATM    2  C12 UNL     1     -16.601   5.482  46.877  1.00  0.00     0.014 C
HETATM    3  C13 UNL     1     -15.140   5.849  46.907  1.00  0.00     0.007 C
HETATM    4  C14 UNL     1     -14.889   7.204  46.265  1.00  0.00     0.011 C
HETATM    5  C24 UNL     1     -15.619   8.295  47.020  1.00  0.00     0.007 C
HETATM    6  C25 UNL     1     -16.690   7.734  47.925  1.00  0.00     0.014 C
ENDROOT
BRANCH   1   7
HETATM    7  C10 UNL     1     -18.479   6.137  48.291  1.00  0.00     0.221 C
HETATM    8  N2  UNL     1     -19.714   6.801  48.517  1.00  0.00    -0.361 N
ATOM      9  H2  UNL     1     -19.954   7.644  47.995  1.00  0.00     0.162 HD
HETATM   10  O1  UNL     1     -18.206   5.104  48.946  1.00  0.00    -0.273 OA
BRANCH   8  11
HETATM   11  C9  UNL     1     -20.626   6.258  49.501  1.00  0.00     0.125 C
BRANCH  11  12
HETATM   12  C8  UNL     1     -21.459   5.130  48.932  1.00  0.00     0.055 C
BRANCH  12  13
HETATM   13  C7  UNL     1     -21.698   4.045  49.925  1.00  0.00     0.211 C
HETATM   14  N1  UNL     1     -20.503   3.293  50.253  1.00  0.00    -0.066 N
HETATM   15  C6  UNL     1     -20.312   3.361  51.682  1.00  0.00     0.264 C
ATOM     16  H12 UNL     1     -19.685   3.604  49.729  1.00  0.00     0.277 HD
ATOM     17  H11 UNL     1     -20.532   2.335  49.904  1.00  0.00     0.277 HD
HETATM   18  C5  UNL     1     -21.511   2.802  52.383  1.00  0.00     0.147 C
HETATM   19  O3  UNL     1     -22.626   3.596  52.107  1.00  0.00    -0.382 OA
HETATM   20  C26 UNL     1     -22.381   4.565  51.147  1.00  0.00     0.201 C
BRANCH  18  21
HETATM   21  C4  UNL     1     -21.778   1.385  51.933  1.00  0.00     0.034 C
BRANCH  21  22
HETATM   22  C3  UNL     1     -23.245   1.119  51.740  1.00  0.00     0.002 C
BRANCH  22  23
HETATM   23  C2  UNL     1     -23.498  -0.305  51.264  1.00  0.00    -0.004 C
HETATM   24  C1  UNL     1     -24.687  -0.287  50.328  1.00  0.00     0.005 C
ENDBRANCH  22  23
ENDBRANCH  21  22
ENDBRANCH  18  21
ENDBRANCH  12  13
ENDBRANCH  11  12
ENDBRANCH   8  11
ENDBRANCH   1   7
BRANCH   4  25
HETATM   25  C15 UNL     1     -13.415   7.455  46.397  1.00  0.00     0.237 C
BRANCH  25  26
HETATM   26  N3  UNL     1     -12.678   7.277  45.130  1.00  0.00    -0.071 N
ATOM     27  H32 UNL     1     -11.935   6.581  45.205  1.00  0.00     0.277 HD
ATOM     28  H31 UNL     1     -13.237   6.809  44.416  1.00  0.00     0.277 HD
BRANCH  26  29
HETATM   29  C16 UNL     1     -12.197   8.537  44.699  1.00  0.00     0.273 C
BRANCH  29  30
HETATM   30  C17 UNL     1     -12.685   9.102  43.447  1.00  0.00    -0.003 A
HETATM   31  C18 UNL     1     -13.521  10.223  43.591  1.00  0.00     0.044 A
HETATM   32 CL1  UNL     1     -13.796  10.821  45.206  1.00  0.00    -0.084 Cl
HETATM   33  C19 UNL     1     -14.071  10.787  42.486  1.00  0.00     0.048 A
HETATM   34  C20 UNL     1     -13.805  10.255  41.238  1.00  0.00     0.036 A
HETATM   35 CL2  UNL     1     -14.554  11.040  39.856  1.00  0.00    -0.084 Cl
HETATM   36  C21 UNL     1     -12.990   9.163  41.091  1.00  0.00     0.033 A
HETATM   37  C22 UNL     1     -12.418   8.575  42.226  1.00  0.00    -0.024 A
BRANCH  37  38
HETATM   38  C23 UNL     1     -11.558   7.414  41.950  1.00  0.00     0.203 C
BRANCH  38  39
HETATM   39  O2  UNL     1     -12.263   6.198  42.202  1.00  0.00    -0.396 OA
ATOM     40  H2  UNL     1     -12.737   5.921  41.426  1.00  0.00     0.209 HD
ENDBRANCH  38  39
ENDBRANCH  37  38
ENDBRANCH  29  30
ENDBRANCH  26  29
ENDBRANCH  25  26
ENDBRANCH   4  25
TORSDOF 13
ENDMDL