MODEL 3
REMARK VINA RESULT: -7.047004616      2.625      4.759
REMARK  12 active torsions:
REMARK  status: ('A' for Active; 'I' for Inactive)
REMARK    1  A    between atoms: C4_4  and  C5_5
REMARK       I    between atoms: C5_5  and  N1_7
REMARK    2  A    between atoms: N1_7  and  C6_9
REMARK    3  A    between atoms: C6_9  and  C7_12
REMARK       I    between atoms: C7_12  and  N2_14
REMARK    4  A    between atoms: N2_14  and  C8_16
REMARK    5  A    between atoms: C8_16  and  C9_17
REMARK    6  A    between atoms: C8_16  and  C14_26
REMARK    7  A    between atoms: C9_17  and  C10_18
REMARK    8  A    between atoms: C10_18  and  C11_19
REMARK    9  A    between atoms: C14_26  and  S1_27
REMARK   10  A    between atoms: S1_27  and  C15_28
REMARK   11  A    between atoms: C15_28  and  C16_29
REMARK   12  A    between atoms: C16_29  and  C17_30
ROOT
HETATM    1  C8  UNL     1     -13.156  11.687  45.684  1.00  0.00     0.094 C
ENDROOT
BRANCH   1   2
HETATM    2  N2  UNL     1     -13.073  10.462  44.993  1.00  0.00    -0.351 N
HETATM    3  C7  UNL     1     -13.015  10.251  43.608  1.00  0.00     0.278 C
HETATM    4  O2  UNL     1     -13.062  11.179  42.784  1.00  0.00    -0.268 OA
ATOM      5  H2  UNL     1     -13.052   9.622  45.573  1.00  0.00     0.163 HD
BRANCH   3   6
HETATM    6  C6  UNL     1     -12.891   8.859  43.043  1.00  0.00     0.271 C
HETATM    7 CL1  UNL     1     -12.709   8.900  41.271  1.00  0.00    -0.068 Cl
HETATM    8 CL2  UNL     1     -11.484   8.073  43.767  1.00  0.00    -0.068 Cl
BRANCH   6   9
HETATM    9  N1  UNL     1     -14.125   8.166  43.347  1.00  0.00    -0.315 N
HETATM   10  C5  UNL     1     -14.202   6.777  42.990  1.00  0.00     0.244 C
HETATM   11  O1  UNL     1     -13.178   6.290  42.440  1.00  0.00    -0.269 OA
ATOM     12  H1  UNL     1     -14.906   8.644  43.795  1.00  0.00     0.166 HD
BRANCH  10  13
HETATM   13  C4  UNL     1     -15.417   6.065  43.275  1.00  0.00     0.076 C
HETATM   14  C2  UNL     1     -15.488   5.118  44.157  1.00  0.00    -0.082 C
HETATM   15  C1  UNL     1     -14.313   4.696  44.938  1.00  0.00     0.043 C
HETATM   16  C3  UNL     1     -16.804   4.420  44.387  1.00  0.00     0.043 C
ENDBRANCH  10  13
ENDBRANCH   6   9
ENDBRANCH   3   6
ENDBRANCH   1   2
BRANCH   1  17
HETATM   17  C9  UNL     1     -12.187  11.958  46.759  1.00  0.00     0.032 C
BRANCH  17  18
HETATM   18  C10 UNL     1     -11.370  10.786  47.206  1.00  0.00     0.060 C
BRANCH  18  19
HETATM   19  C11 UNL     1     -11.168  10.834  48.686  1.00  0.00     0.025 A
HETATM   20  C12 UNL     1     -11.970  10.334  49.683  1.00  0.00     0.114 A
HETATM   21  N3  UNL     1     -11.397  10.622  50.871  1.00  0.00    -0.360 N
HETATM   22  C13 UNL     1     -10.267  11.281  50.667  1.00  0.00     0.180 A
ATOM     23  H3  UNL     1     -11.775  10.370  51.784  1.00  0.00     0.166 HD
HETATM   24  N4  UNL     1     -10.123  11.413  49.338  1.00  0.00    -0.355 N
ATOM     25  H4  UNL     1      -9.341  11.881  48.881  1.00  0.00     0.166 HD
ENDBRANCH  18  19
ENDBRANCH  17  18
ENDBRANCH   1  17
BRANCH   1  26
HETATM   26  C14 UNL     1     -14.570  12.000  46.161  1.00  0.00     0.099 C
BRANCH  26  27
HETATM   27  S1  UNL     1     -15.497  10.594  46.627  1.00  0.00    -0.166 SA
BRANCH  27  28
HETATM   28  C15 UNL     1     -15.121   9.682  48.029  1.00  0.00     0.084 C
BRANCH  28  29
HETATM   29  C16 UNL     1     -15.354   8.242  48.138  1.00  0.00    -0.023 C
HETATM   30  C18 UNL     1     -16.411   8.033  49.241  1.00  0.00     0.011 C
HETATM   31  C19 UNL     1     -17.791   8.395  48.744  1.00  0.00     0.001 C
HETATM   32  C20 UNL     1     -18.210   7.389  47.688  1.00  0.00     0.000 C
HETATM   33  C21 UNL     1     -16.962   6.721  47.099  1.00  0.00     0.001 C
HETATM   34  C22 UNL     1     -15.966   7.786  46.796  1.00  0.00     0.011 C
BRANCH  29  35
HETATM   35  C17 UNL     1     -14.235   7.330  48.439  1.00  0.00     0.096 C
HETATM   36  S2  UNL     1     -12.925   7.427  47.158  1.00  0.00    -0.097 SA
ENDBRANCH  29  35
ENDBRANCH  28  29
ENDBRANCH  27  28
ENDBRANCH  26  27
ENDBRANCH   1  26
TORSDOF 12
ENDMDL