MODEL 4
REMARK VINA RESULT: -6.048066463      3.403      6.801
REMARK  16 active torsions:
REMARK  status: ('A' for Active; 'I' for Inactive)
REMARK    1  A    between atoms: C2_2  and  N1_3
REMARK    2  A    between atoms: C3_5  and  N2_6
REMARK    3  A    between atoms: C3_5  and  O2_36
REMARK    4  A    between atoms: N2_6  and  C4_8
REMARK    5  A    between atoms: C4_8  and  C5_9
REMARK    6  A    between atoms: N4_16  and  C9_17
REMARK    7  A    between atoms: C9_17  and  C10_18
REMARK    8  A    between atoms: C10_18  and  C11_19
REMARK    9  A    between atoms: C11_19  and  C12_20
REMARK   10  A    between atoms: C12_20  and  C13_21
REMARK   11  A    between atoms: C13_21  and  N5_22
REMARK   12  A    between atoms: N5_22  and  C14_25
REMARK   13  A    between atoms: C14_25  and  C15_26
REMARK   14  A    between atoms: C15_26  and  O1_27
REMARK   15  A    between atoms: O1_27  and  C16_28
REMARK   16  A    between atoms: O2_36  and  C22_37
ROOT
HETATM    1  C5  UNL     1     -15.948   6.320  45.952  1.00  0.00     0.266 C
HETATM    2  C6  UNL     1     -15.547   5.144  46.786  1.00  0.00     0.269 C
HETATM    3  N3  UNL     1     -14.248   4.668  46.331  1.00  0.00    -0.071 N
ATOM      4  H31 UNL     1     -13.791   4.062  47.012  1.00  0.00     0.277 HD
ATOM      5  H32 UNL     1     -13.546   5.407  46.310  1.00  0.00     0.277 HD
HETATM    6  C7  UNL     1     -14.421   4.034  45.057  1.00  0.00     0.262 C
HETATM    7  C8  UNL     1     -15.407   4.814  44.222  1.00  0.00     0.300 C
HETATM    8  N4  UNL     1     -15.506   6.192  44.584  1.00  0.00     0.098 N
ENDROOT
BRANCH   8   9
HETATM    9  C9  UNL     1     -14.358   6.984  44.285  1.00  0.00     0.273 C
BRANCH   9  10
HETATM   10  C10 UNL     1     -13.778   6.616  42.941  1.00  0.00     0.030 C
BRANCH  10  11
HETATM   11  C11 UNL     1     -14.018   7.699  41.909  1.00  0.00     0.003 C
BRANCH  11  12
HETATM   12  C12 UNL     1     -12.746   7.896  41.133  1.00  0.00     0.027 C
BRANCH  12  13
HETATM   13  C13 UNL     1     -12.945   8.610  39.838  1.00  0.00     0.232 C
BRANCH  13  14
HETATM   14  N5  UNL     1     -14.097   9.473  39.878  1.00  0.00    -0.073 N
ATOM     15  H52 UNL     1     -14.715   9.328  39.080  1.00  0.00     0.277 HD
ATOM     16  H51 UNL     1     -14.749   9.211  40.618  1.00  0.00     0.277 HD
BRANCH  14  17
HETATM   17  C14 UNL     1     -13.660  10.875  39.995  1.00  0.00     0.258 C
BRANCH  17  18
HETATM   18  C15 UNL     1     -14.113  11.360  41.339  1.00  0.00     0.203 C
BRANCH  18  19
HETATM   19  O1  UNL     1     -13.228  11.233  42.378  1.00  0.00    -0.349 OA
BRANCH  19  20
HETATM   20  C16 UNL     1     -13.354  10.822  43.662  1.00  0.00     0.072 A
HETATM   21  C17 UNL     1     -14.486  11.094  44.391  1.00  0.00     0.060 A
HETATM   22  C18 UNL     1     -14.644  10.684  45.723  1.00  0.00     0.038 A
HETATM   23 CL1  UNL     1     -16.110  11.069  46.583  1.00  0.00    -0.084 Cl
HETATM   24  C19 UNL     1     -13.623   9.979  46.323  1.00  0.00     0.048 A
HETATM   25  C20 UNL     1     -12.495   9.715  45.575  1.00  0.00     0.038 A
HETATM   26 CL2  UNL     1     -11.206   8.812  46.364  1.00  0.00    -0.084 Cl
HETATM   27  C21 UNL     1     -12.329  10.105  44.287  1.00  0.00     0.060 A
ENDBRANCH  19  20
ENDBRANCH  18  19
ENDBRANCH  17  18
ENDBRANCH  14  17
ENDBRANCH  13  14
ENDBRANCH  12  13
ENDBRANCH  11  12
ENDBRANCH  10  11
ENDBRANCH   9  10
ENDBRANCH   8   9
BRANCH   1  28
HETATM   28  C4  UNL     1     -17.445   6.538  45.888  1.00  0.00     0.161 C
BRANCH  28  29
HETATM   29  N2  UNL     1     -18.146   6.295  47.099  1.00  0.00    -0.354 N
ATOM     30  H2  UNL     1     -18.442   5.333  47.263  1.00  0.00     0.163 HD
BRANCH  29  31
HETATM   31  C3  UNL     1     -18.481   7.228  48.101  1.00  0.00     0.215 C
HETATM   32  N1  UNL     1     -19.598   7.267  48.712  1.00  0.00    -0.357 N
ATOM     33  H1  UNL     1     -19.740   7.984  49.423  1.00  0.00     0.163 HD
BRANCH  32  34
HETATM   34  C2  UNL     1     -20.657   6.352  48.444  1.00  0.00     0.118 C
HETATM   35  C1  UNL     1     -20.693   5.197  49.444  1.00  0.00     0.026 C
ENDBRANCH  32  34
BRANCH  31  36
HETATM   36  O2  UNL     1     -17.529   8.170  48.445  1.00  0.00    -0.312 OA
BRANCH  36  37
HETATM   37  C22 UNL     1     -16.617   8.021  49.505  1.00  0.00     0.060 C
HETATM   38  C23 UNL     1     -15.188   8.224  49.109  1.00  0.00     0.046 C
HETATM   39  C24 UNL     1     -16.970   9.067  50.544  1.00  0.00     0.046 C
HETATM   40  C25 UNL     1     -16.726   6.672  50.174  1.00  0.00     0.046 C
ENDBRANCH  36  37
ENDBRANCH  31  36
ENDBRANCH  29  31
ENDBRANCH  28  29
ENDBRANCH   1  28
TORSDOF 16
ENDMDL