MODEL 4
REMARK VINA RESULT: -7.529876425      3.007      5.648
REMARK  14 active torsions:
REMARK  status: ('A' for Active; 'I' for Inactive)
REMARK    1  A    between atoms: C1_2  and  C2_3
REMARK    2  A    between atoms: C2_3  and  C3_4
REMARK    3  A    between atoms: C3_4  and  C4_5
REMARK    4  A    between atoms: C4_5  and  C5_6
REMARK    5  A    between atoms: C5_6  and  C6_7
REMARK    6  A    between atoms: C6_7  and  C7_8
REMARK    7  A    between atoms: C7_8  and  C8_9
REMARK    8  A    between atoms: C8_9  and  C9_10
REMARK    9  A    between atoms: C9_10  and  O1_11
REMARK   10  A    between atoms: O1_11  and  C10_12
REMARK   11  A    between atoms: C13_15  and  N2_16
REMARK   12  A    between atoms: N2_16  and  S1_18
REMARK   13  A    between atoms: S1_18  and  C14_21
REMARK   14  A    between atoms: N6_37  and  O4_39
ROOT
HETATM    1  C10 UNL     1     -12.782   7.975  41.240  1.00  0.00     0.144 A
HETATM    2  C11 UNL     1     -13.752   7.523  42.107  1.00  0.00     0.075 A
HETATM    3  C12 UNL     1     -13.241   7.446  43.399  1.00  0.00     0.057 A
HETATM    4  C13 UNL     1     -13.795   7.058  44.617  1.00  0.00     0.130 A
HETATM    5  N3  UNL     1     -12.990   7.112  45.682  1.00  0.00    -0.337 N
ATOM      6  H3  UNL     1     -13.350   6.836  46.596  1.00  0.00     0.168 HD
HETATM    7  C20 UNL     1     -11.713   7.524  45.571  1.00  0.00     0.183 A
HETATM    8  N4  UNL     1     -11.168   7.903  44.390  1.00  0.00    -0.338 N
ATOM      9  H4  UNL     1     -10.196   8.209  44.340  1.00  0.00     0.168 HD
HETATM   10  C21 UNL     1     -11.935   7.867  43.284  1.00  0.00     0.122 A
HETATM   11  N5  UNL     1     -11.693   8.173  41.995  1.00  0.00    -0.322 N
ATOM     12  H5  UNL     1     -10.799   8.511  41.640  1.00  0.00     0.169 HD
ENDROOT
BRANCH   1  13
HETATM   13  O1  UNL     1     -12.954   8.167  39.877  1.00  0.00    -0.336 OA
BRANCH  13  14
HETATM   14  C9  UNL     1     -12.984   9.476  39.345  1.00  0.00     0.177 C
BRANCH  14  15
HETATM   15  C8  UNL     1     -13.167  10.424  40.520  1.00  0.00     0.027 C
BRANCH  15  16
HETATM   16  C7  UNL     1     -14.472  11.185  40.407  1.00  0.00     0.002 C
BRANCH  16  17
HETATM   17  C6  UNL     1     -14.874  11.591  41.810  1.00  0.00     0.000 C
BRANCH  17  18
HETATM   18  C5  UNL     1     -13.849  11.165  42.835  1.00  0.00     0.000 C
BRANCH  18  19
HETATM   19  C4  UNL     1     -14.324  11.226  44.227  1.00  0.00     0.000 C
BRANCH  19  20
HETATM   20  C3  UNL     1     -13.493  10.715  45.326  1.00  0.00     0.007 C
BRANCH  20  21
HETATM   21  C2  UNL     1     -12.792  11.633  46.227  1.00  0.00     0.075 C
BRANCH  21  22
HETATM   22  C1  UNL     1     -11.503  11.307  46.799  1.00  0.00     0.113 C
HETATM   23  N1  UNL     1     -10.406  10.799  46.039  1.00  0.00    -0.086 NA
HETATM   24  N6  UNL     1     -11.298  11.444  48.081  1.00  0.00    -0.260 N
ATOM     25  H6  UNL     1     -12.046  11.802  48.675  1.00  0.00     0.195 HD
BRANCH  24  26
HETATM   26  O4  UNL     1     -10.109  11.118  48.626  1.00  0.00    -0.289 OA
ATOM     27  H4  UNL     1     -10.049  10.438  49.286  1.00  0.00     0.244 HD
ENDBRANCH  24  26
ENDBRANCH  21  22
ENDBRANCH  20  21
ENDBRANCH  19  20
ENDBRANCH  18  19
ENDBRANCH  17  18
ENDBRANCH  16  17
ENDBRANCH  15  16
ENDBRANCH  14  15
ENDBRANCH  13  14
ENDBRANCH   1  13
BRANCH   4  28
HETATM   28  N2  UNL     1     -15.005   6.688  44.610  1.00  0.00    -0.265 N
ATOM     29  H2  UNL     1     -15.487   6.742  43.712  1.00  0.00     0.180 HD
BRANCH  28  30
HETATM   30  S1  UNL     1     -15.919   6.115  45.913  1.00  0.00     0.266 S
HETATM   31  O2  UNL     1     -15.189   4.979  46.581  1.00  0.00    -0.200 OA
HETATM   32  O3  UNL     1     -17.208   5.523  45.360  1.00  0.00    -0.200 OA
BRANCH  30  33
HETATM   33  C14 UNL     1     -16.372   7.342  47.050  1.00  0.00     0.101 A
HETATM   34  C15 UNL     1     -15.973   8.648  46.950  1.00  0.00     0.029 A
HETATM   35  C16 UNL     1     -16.351   9.615  47.878  1.00  0.00     0.025 A
HETATM   36  C17 UNL     1     -17.159   9.262  48.945  1.00  0.00     0.035 A
HETATM   37 CL1  UNL     1     -17.667  10.433  50.144  1.00  0.00    -0.084 Cl
HETATM   38  C18 UNL     1     -17.558   7.934  49.037  1.00  0.00     0.049 A
HETATM   39  C19 UNL     1     -17.176   6.986  48.109  1.00  0.00     0.059 A
HETATM   40 CL2  UNL     1     -17.727   5.318  48.296  1.00  0.00    -0.083 Cl
ENDBRANCH  30  33
ENDBRANCH  28  30
ENDBRANCH   4  28
TORSDOF 14
ENDMDL