MODEL 4
REMARK VINA RESULT: -5.899103575      3.297      5.150
REMARK  16 active torsions:
REMARK  status: ('A' for Active; 'I' for Inactive)
REMARK    1  A    between atoms: C2_2  and  C3_3
REMARK    2  A    between atoms: C3_3  and  C4_4
REMARK    3  A    between atoms: C4_4  and  O1_5
REMARK    4  A    between atoms: O1_5  and  C5_6
REMARK    5  A    between atoms: C8_9  and  C9_10
REMARK    6  A    between atoms: C10_11  and  O2_12
REMARK    7  A    between atoms: C11_14  and  O3_15
REMARK    8  A    between atoms: C12_17  and  O4_18
REMARK    9  A    between atoms: N1_21  and  C14_22
REMARK   10  A    between atoms: C14_22  and  C15_23
REMARK   11  A    between atoms: C15_23  and  C16_24
REMARK   12  A    between atoms: C16_24  and  C17_25
REMARK   13  A    between atoms: C17_25  and  C18_26
REMARK   14  A    between atoms: C21_29  and  C22_30
REMARK   15  A    between atoms: C21_29  and  C24_32
REMARK   16  A    between atoms: C24_32  and  O5_33
ROOT
HETATM    1  C9  UNL     1     -12.680   8.743  45.178  1.00  0.00     0.287 C
HETATM    2  C10 UNL     1     -12.846  10.087  45.764  1.00  0.00     0.187 C
HETATM    3  C11 UNL     1     -14.043  10.794  45.201  1.00  0.00     0.179 C
HETATM    4  C12 UNL     1     -13.826  10.949  43.729  1.00  0.00     0.177 C
HETATM    5  C13 UNL     1     -12.774  10.023  43.188  1.00  0.00     0.307 C
HETATM    6  N1  UNL     1     -12.851   8.664  43.711  1.00  0.00     0.102 N
ENDROOT
BRANCH   1   7
HETATM    7  C8  UNL     1     -11.454   8.018  45.621  1.00  0.00    -0.022 A
HETATM    8  C7  UNL     1     -10.275   8.071  44.914  1.00  0.00     0.012 A
HETATM    9  C6  UNL     1      -9.137   7.388  45.331  1.00  0.00     0.037 A
HETATM   10  C5  UNL     1      -9.124   6.623  46.471  1.00  0.00     0.070 A
HETATM   11  C26 UNL     1     -10.321   6.568  47.192  1.00  0.00     0.037 A
HETATM   12  C25 UNL     1     -11.436   7.248  46.766  1.00  0.00     0.012 A
BRANCH  10  13
HETATM   13  O1  UNL     1      -8.023   5.920  46.939  1.00  0.00    -0.334 OA
BRANCH  13  14
HETATM   14  C4  UNL     1      -7.729   4.578  46.710  1.00  0.00     0.139 A
HETATM   15  C27 UNL     1      -6.253   4.370  46.305  1.00  0.00     0.127 A
HETATM   16  C28 UNL     1      -7.359   4.084  45.356  1.00  0.00     0.278 A
HETATM   17  F1  UNL     1      -7.556   2.733  45.078  1.00  0.00    -0.203 F
HETATM   18  F2  UNL     1      -7.395   4.860  44.239  1.00  0.00    -0.203 F
BRANCH  14  19
HETATM   19  C3  UNL     1      -8.194   3.496  47.663  1.00  0.00     0.045 C
BRANCH  19  20
HETATM   20  C2  UNL     1      -8.264   3.936  49.090  1.00  0.00    -0.001 C
HETATM   21  C1  UNL     1      -9.698   3.932  49.609  1.00  0.00     0.005 C
ENDBRANCH  19  20
ENDBRANCH  14  19
ENDBRANCH  13  14
ENDBRANCH  10  13
ENDBRANCH   1   7
BRANCH   2  22
HETATM   22  O2  UNL     1     -11.731  10.907  45.753  1.00  0.00    -0.390 OA
ATOM     23  H2  UNL     1     -11.641  11.490  45.008  1.00  0.00     0.210 HD
ENDBRANCH   2  22
BRANCH   6  24
HETATM   24  C14 UNL     1     -14.155   8.141  43.430  1.00  0.00     0.273 C
BRANCH  24  25
HETATM   25  C15 UNL     1     -14.297   6.878  42.671  1.00  0.00     0.030 C
BRANCH  25  26
HETATM   26  C16 UNL     1     -15.149   5.802  43.207  1.00  0.00     0.002 C
BRANCH  26  27
HETATM   27  C17 UNL     1     -15.983   6.073  44.414  1.00  0.00     0.005 C
BRANCH  27  28
HETATM   28  C18 UNL     1     -15.668   5.385  45.667  1.00  0.00    -0.004 C
HETATM   29  C19 UNL     1     -14.238   5.218  46.047  1.00  0.00     0.006 C
HETATM   30  C20 UNL     1     -14.635   5.540  47.498  1.00  0.00     0.012 C
HETATM   31  C21 UNL     1     -15.841   6.217  46.944  1.00  0.00    -0.016 C
BRANCH  31  32
HETATM   32  C22 UNL     1     -17.131   5.807  47.624  1.00  0.00     0.007 C
HETATM   33  C23 UNL     1     -18.237   6.792  47.427  1.00  0.00     0.006 C
ENDBRANCH  31  32
BRANCH  31  34
HETATM   34  C24 UNL     1     -15.724   7.672  46.650  1.00  0.00     0.173 C
BRANCH  34  35
HETATM   35  O5  UNL     1     -15.354   8.421  47.773  1.00  0.00    -0.400 OA
ATOM     36  H5  UNL     1     -15.216   7.882  48.544  1.00  0.00     0.209 HD
ENDBRANCH  34  35
ENDBRANCH  31  34
ENDBRANCH  27  28
ENDBRANCH  26  27
ENDBRANCH  25  26
ENDBRANCH  24  25
ENDBRANCH   6  24
BRANCH   3  37
HETATM   37  O3  UNL     1     -14.103  12.051  45.841  1.00  0.00    -0.390 OA
ATOM     38  H3  UNL     1     -14.675  12.595  45.313  1.00  0.00     0.210 HD
ENDBRANCH   3  37
BRANCH   4  39
HETATM   39  O4  UNL     1     -13.359  12.276  43.527  1.00  0.00    -0.391 OA
ATOM     40  H4  UNL     1     -12.458  12.294  43.828  1.00  0.00     0.210 HD
ENDBRANCH   4  39
TORSDOF 16
ENDMDL