MODEL 4
REMARK VINA RESULT: -7.876908851      1.364      1.556
REMARK  12 active torsions:
REMARK  status: ('A' for Active; 'I' for Inactive)
REMARK    1  A    between atoms: C2_2  and  C4_4
REMARK    2  A    between atoms: C11_12  and  O2_13
REMARK    3  A    between atoms: C13_16  and  C14_17
REMARK    4  A    between atoms: C13_16  and  C24_29
REMARK    5  A    between atoms: C14_17  and  C15_18
REMARK    6  A    between atoms: C15_18  and  C16_19
REMARK    7  A    between atoms: C16_19  and  C18_21
REMARK    8  A    between atoms: C20_23  and  C22_25
REMARK    9  A    between atoms: C22_25  and  O3_27
REMARK   10  A    between atoms: C24_29  and  O4_30
REMARK   11  A    between atoms: C24_29  and  C25_32
REMARK   12  A    between atoms: C25_32  and  N1_33
ROOT
HETATM    1  C4  UNL     1      18.736   9.692  51.609  1.00  0.00     0.024 C
HETATM    2  C5  UNL     1      17.944   8.370  51.431  1.00  0.00     0.022 C
HETATM    3  C6  UNL     1      18.669   7.683  50.376  1.00  0.00    -0.006 C
HETATM    4  C7  UNL     1      19.777   6.849  51.015  1.00  0.00     0.019 C
HETATM    5  C8  UNL     1      19.383   8.766  49.554  1.00  0.00     0.140 C
HETATM    6  O1  UNL     1      18.816   8.704  48.292  1.00  0.00    -0.370 OA
HETATM    7  C9  UNL     1      18.710   7.302  48.100  1.00  0.00     0.096 C
HETATM    8  C10 UNL     1      20.031   6.753  47.829  1.00  0.00     0.050 C
HETATM    9  C11 UNL     1      17.700   7.008  46.963  1.00  0.00     0.182 C
HETATM   10  C12 UNL     1      16.508   7.633  47.530  1.00  0.00    -0.039 C
HETATM   11  C13 UNL     1      15.222   7.720  46.870  1.00  0.00    -0.022 C
HETATM   12  C27 UNL     1      16.557   7.302  49.001  1.00  0.00     0.050 C
HETATM   13  C28 UNL     1      17.969   6.914  49.322  1.00  0.00     0.003 C
HETATM   14  C29 UNL     1      17.966   5.411  49.593  1.00  0.00     0.019 C
HETATM   15  C30 UNL     1      19.143  10.074  50.274  1.00  0.00    -0.013 C
HETATM   16  C31 UNL     1      17.952  10.819  49.617  1.00  0.00     0.018 C
HETATM   17  C32 UNL     1      20.307  10.957  50.044  1.00  0.00     0.018 C
ENDROOT
BRANCH   9  18
HETATM   18  O2  UNL     1      18.308   7.579  45.872  1.00  0.00    -0.388 OA
ATOM     19  H2  UNL     1      17.568   7.873  45.355  1.00  0.00     0.210 HD
ENDBRANCH   9  18
BRANCH  11  20
HETATM   20  C14 UNL     1      14.522   6.511  46.355  1.00  0.00     0.042 C
BRANCH  20  21
HETATM   21  C15 UNL     1      13.730   6.702  45.080  1.00  0.00     0.013 C
BRANCH  21  22
HETATM   22  C16 UNL     1      13.286   5.467  44.431  1.00  0.00     0.011 C
HETATM   23  C17 UNL     1      11.857   5.066  44.788  1.00  0.00     0.015 C
BRANCH  22  24
HETATM   24  C18 UNL     1      13.500   5.396  42.964  1.00  0.00    -0.075 C
HETATM   25  C19 UNL     1      13.058   6.719  42.378  1.00  0.00     0.044 C
HETATM   26  C20 UNL     1      13.245   4.205  42.213  1.00  0.00    -0.053 C
HETATM   27  C21 UNL     1      14.083   2.983  42.480  1.00  0.00     0.046 C
BRANCH  26  28
HETATM   28  C22 UNL     1      13.041   4.258  40.725  1.00  0.00     0.143 C
HETATM   29  C23 UNL     1      13.930   3.396  39.905  1.00  0.00     0.044 C
BRANCH  28  30
HETATM   30  O3  UNL     1      11.683   4.116  40.383  1.00  0.00    -0.392 OA
ATOM     31  H3  UNL     1      11.508   4.433  39.505  1.00  0.00     0.210 HD
ENDBRANCH  28  30
ENDBRANCH  26  28
ENDBRANCH  22  24
ENDBRANCH  21  22
ENDBRANCH  20  21
ENDBRANCH  11  20
BRANCH  11  32
HETATM   32  C24 UNL     1      14.973   8.928  46.031  1.00  0.00     0.075 C
BRANCH  32  33
HETATM   33  O4  UNL     1      13.925   9.717  46.436  1.00  0.00    -0.363 OA
ATOM     34  H4  UNL     1      13.077   9.288  46.452  1.00  0.00     0.217 HD
ENDBRANCH  32  33
BRANCH  32  35
HETATM   35  C25 UNL     1      16.164   9.657  45.488  1.00  0.00     0.296 C
BRANCH  35  36
HETATM   36  N1  UNL     1      16.353   9.284  44.056  1.00  0.00    -0.073 N
HETATM   37  C26 UNL     1      15.159   9.616  43.319  1.00  0.00     0.267 C
ATOM     38  H12 UNL     1      17.188   9.709  43.653  1.00  0.00     0.277 HD
ATOM     39  H11 UNL     1      16.620   8.306  43.942  1.00  0.00     0.277 HD
ENDBRANCH  35  36
ENDBRANCH  32  35
ENDBRANCH  11  32
BRANCH   1  40
HETATM   40  C2  UNL     1      19.661   9.565  52.718  1.00  0.00    -0.088 C
HETATM   41  C1  UNL     1      20.901   9.913  52.865  1.00  0.00     0.014 C
HETATM   42  C3  UNL     1      19.036   8.904  53.954  1.00  0.00     0.043 C
ENDBRANCH   1  40
TORSDOF 12
ENDMDL