MODEL 3
REMARK VINA RESULT: -7.924245416      2.034      5.490
REMARK  15 active torsions:
REMARK  status: ('A' for Active; 'I' for Inactive)
REMARK    1  A    between atoms: C2_2  and  C3_3
REMARK    2  A    between atoms: C3_3  and  C4_4
REMARK    3  A    between atoms: C4_4  and  C6_6
REMARK    4  A    between atoms: C4_4  and  C7_9
REMARK    5  A    between atoms: C6_6  and  O1_7
REMARK    6  A    between atoms: C7_9  and  C8_10
REMARK    7  A    between atoms: C8_10  and  C9_11
REMARK    8  A    between atoms: C9_11  and  C10_13
REMARK    9  A    between atoms: C10_13  and  C11_14
REMARK   10  A    between atoms: C11_14  and  C12_15
REMARK   11  A    between atoms: C12_15  and  C13_16
REMARK   12  A    between atoms: C13_16  and  C14_17
REMARK   13  A    between atoms: C17_20  and  O3_22
REMARK   14  A    between atoms: C23_28  and  O4_29
REMARK   15  A    between atoms: C27_34  and  O5_35
ROOT
HETATM    1  C14 UNL     1      16.709   8.355  48.180  1.00  0.00    -0.005 C
HETATM    2  C15 UNL     1      18.241   8.437  48.505  1.00  0.00    -0.003 C
HETATM    3  C16 UNL     1      18.586   9.876  48.913  1.00  0.00     0.043 C
HETATM    4  C17 UNL     1      19.991   9.865  49.433  1.00  0.00     0.054 C
HETATM    5  C18 UNL     1      20.934   9.160  48.519  1.00  0.00     0.045 C
HETATM    6  C19 UNL     1      19.996   9.154  50.773  1.00  0.00     0.038 C
HETATM    7  C20 UNL     1      18.774   8.286  50.943  1.00  0.00     0.008 C
HETATM    8  C21 UNL     1      18.434   7.541  49.658  1.00  0.00    -0.003 C
HETATM    9  C22 UNL     1      17.068   6.920  49.874  1.00  0.00     0.024 C
HETATM   10  C23 UNL     1      17.208   5.581  50.485  1.00  0.00     0.123 C
HETATM   11  C24 UNL     1      17.702   4.641  49.384  1.00  0.00     0.037 C
HETATM   12  C25 UNL     1      16.536   4.557  48.471  1.00  0.00    -0.001 C
HETATM   13  C26 UNL     1      16.590   3.349  47.606  1.00  0.00     0.037 C
HETATM   14  C27 UNL     1      15.692   3.341  46.432  1.00  0.00     0.118 C
HETATM   15  C28 UNL     1      14.661   4.396  46.364  1.00  0.00     0.032 C
HETATM   16  C29 UNL     1      14.749   5.505  47.349  1.00  0.00     0.012 C
HETATM   17  C30 UNL     1      16.217   5.852  47.723  1.00  0.00    -0.036 C
HETATM   18  C31 UNL     1      17.084   5.828  46.499  1.00  0.00     0.016 C
HETATM   19  C32 UNL     1      16.288   7.023  48.573  1.00  0.00     0.005 C
ENDROOT
BRANCH   1  20
HETATM   20  C13 UNL     1      16.475   9.138  47.012  1.00  0.00     0.005 C
BRANCH  20  21
HETATM   21  C12 UNL     1      15.127   9.132  46.358  1.00  0.00     0.001 C
BRANCH  21  22
HETATM   22  C11 UNL     1      15.115   9.838  45.008  1.00  0.00     0.007 C
BRANCH  22  23
HETATM   23  C10 UNL     1      15.934   9.091  43.992  1.00  0.00     0.078 C
BRANCH  23  24
HETATM   24  C9  UNL     1      15.002   8.145  43.262  1.00  0.00     0.127 C
HETATM   25  O2  UNL     1      14.676   8.381  42.135  1.00  0.00    -0.298 OA
BRANCH  24  26
HETATM   26  C8  UNL     1      14.494   6.931  43.940  1.00  0.00     0.079 C
BRANCH  26  27
HETATM   27  C7  UNL     1      12.992   7.004  44.035  1.00  0.00     0.019 C
BRANCH  27  28
HETATM   28  C4  UNL     1      12.305   5.972  43.199  1.00  0.00    -0.019 C
HETATM   29  C5  UNL     1      11.579   5.024  44.138  1.00  0.00     0.018 C
BRANCH  28  30
HETATM   30  C3  UNL     1      13.263   5.142  42.383  1.00  0.00     0.037 C
BRANCH  30  31
HETATM   31  C2  UNL     1      13.278   3.776  42.944  1.00  0.00    -0.036 C
HETATM   32  C1  UNL     1      14.254   2.913  42.742  1.00  0.00     0.007 C
ENDBRANCH  30  31
ENDBRANCH  28  30
BRANCH  28  33
HETATM   33  C6  UNL     1      11.260   6.612  42.321  1.00  0.00     0.173 C
BRANCH  33  34
HETATM   34  O1  UNL     1      11.747   7.827  41.850  1.00  0.00    -0.400 OA
ATOM     35  H1  UNL     1      11.727   8.463  42.555  1.00  0.00     0.209 HD
ENDBRANCH  33  34
ENDBRANCH  28  33
ENDBRANCH  27  28
ENDBRANCH  26  27
ENDBRANCH  24  26
ENDBRANCH  23  24
ENDBRANCH  22  23
ENDBRANCH  21  22
ENDBRANCH  20  21
ENDBRANCH   1  20
BRANCH   4  36
HETATM   36  O3  UNL     1      20.392  11.195  49.566  1.00  0.00    -0.390 OA
ATOM     37  H3  UNL     1      21.060  11.355  48.908  1.00  0.00     0.210 HD
ENDBRANCH   4  36
BRANCH  10  38
HETATM   38  O4  UNL     1      16.061   5.072  51.028  1.00  0.00    -0.395 OA
ATOM     39  H4  UNL     1      15.997   5.148  51.973  1.00  0.00     0.210 HD
ENDBRANCH  10  38
BRANCH  14  40
HETATM   40  O5  UNL     1      15.042   2.090  46.382  1.00  0.00    -0.396 OA
ATOM     41  H5  UNL     1      15.436   1.578  45.686  1.00  0.00     0.210 HD
ENDBRANCH  14  40
TORSDOF 15
ENDMDL