MODEL 2
REMARK VINA RESULT: -7.651011127      1.683      4.056
REMARK  14 active torsions:
REMARK  status: ('A' for Active; 'I' for Inactive)
REMARK    1  A    between atoms: N1_2  and  C2_5
REMARK    2  A    between atoms: C2_5  and  C3_6
REMARK    3  A    between atoms: C3_6  and  C4_7
REMARK    4  A    between atoms: C4_7  and  O1_8
REMARK    5  A    between atoms: C9_14  and  C10_15
REMARK    6  A    between atoms: C11_16  and  C12_17
REMARK    7  A    between atoms: C12_17  and  C13_18
REMARK    8  A    between atoms: C18_24  and  C19_25
REMARK    9  A    between atoms: C19_25  and  C21_27
REMARK   10  A    between atoms: C21_27  and  C22_28
REMARK   11  A    between atoms: C22_28  and  C23_29
REMARK   12  A    between atoms: C23_29  and  C24_30
REMARK   13  A    between atoms: C24_30  and  O3_33
REMARK   14  A    between atoms: C27_35  and  O4_36
ROOT
HETATM    1  C12 UNL     1      14.665   7.262  45.793  1.00  0.00    -0.122 C
ENDROOT
BRANCH   1   2
HETATM    2  C11 UNL     1      15.395   7.953  46.834  1.00  0.00     0.050 C
HETATM    3  C10 UNL     1      16.647   7.637  47.113  1.00  0.00    -0.013 C
BRANCH   3   4
HETATM    4  C9  UNL     1      17.462   8.258  48.125  1.00  0.00     0.017 C
HETATM    5  C7  UNL     1      18.690   7.612  48.538  1.00  0.00    -0.029 C
HETATM    6  C6  UNL     1      19.962   7.680  47.849  1.00  0.00     0.011 C
HETATM    7  C8  UNL     1      18.411   6.214  48.989  1.00  0.00     0.016 C
HETATM    8  C31 UNL     1      19.026   8.530  49.758  1.00  0.00    -0.025 C
HETATM    9  C5  UNL     1      20.831   7.243  49.048  1.00  0.00     0.015 C
HETATM   10  C3  UNL     1      20.368   8.226  50.172  1.00  0.00     0.013 C
HETATM   11  C30 UNL     1      17.822   8.193  50.551  1.00  0.00     0.011 C
HETATM   12  C32 UNL     1      18.855   9.987  49.374  1.00  0.00     0.017 C
HETATM   13  C29 UNL     1      16.734   8.178  49.495  1.00  0.00     0.010 C
BRANCH  10  14
HETATM   14  C2  UNL     1      21.441   9.304  50.036  1.00  0.00     0.244 C
BRANCH  14  15
HETATM   15  N1  UNL     1      22.234   9.573  51.171  1.00  0.00    -0.078 N
HETATM   16  C1  UNL     1      22.243  11.038  51.337  1.00  0.00     0.267 C
ATOM     17  H12 UNL     1      23.168   9.166  51.118  1.00  0.00     0.276 HD
ATOM     18  H11 UNL     1      21.926   9.074  52.006  1.00  0.00     0.276 HD
ENDBRANCH  14  15
ENDBRANCH  10  14
BRANCH  10  19
HETATM   19  C4  UNL     1      20.611   7.489  51.457  1.00  0.00     0.176 C
BRANCH  19  20
HETATM   20  O1  UNL     1      21.683   6.588  51.270  1.00  0.00    -0.400 OA
ATOM     21  H1  UNL     1      21.514   5.801  51.776  1.00  0.00     0.209 HD
ENDBRANCH  19  20
ENDBRANCH  10  19
ENDBRANCH   3   4
ENDBRANCH   1   2
BRANCH   1  22
HETATM   22  C13 UNL     1      14.046   6.673  44.911  1.00  0.00     0.222 C
HETATM   23  O2  UNL     1      14.300   5.340  44.414  1.00  0.00    -0.365 OA
HETATM   24  C14 UNL     1      13.175   4.782  43.835  1.00  0.00     0.135 C
HETATM   25  C15 UNL     1      13.311   4.563  42.343  1.00  0.00     0.033 C
HETATM   26  C18 UNL     1      12.063   5.781  44.030  1.00  0.00     0.019 C
HETATM   27  C16 UNL     1      12.122   5.194  41.688  1.00  0.00     0.004 C
HETATM   28  C17 UNL     1      11.253   5.783  42.781  1.00  0.00     0.015 C
HETATM   29  C27 UNL     1      12.877   7.085  44.068  1.00  0.00     0.172 C
BRANCH  26  30
HETATM   30  C19 UNL     1      11.355   5.559  45.306  1.00  0.00    -0.005 C
HETATM   31  C20 UNL     1       9.903   6.001  45.273  1.00  0.00     0.011 C
BRANCH  30  32
HETATM   32  C21 UNL     1      11.559   4.242  45.927  1.00  0.00     0.005 C
BRANCH  32  33
HETATM   33  C22 UNL     1      12.475   4.142  47.095  1.00  0.00     0.003 C
BRANCH  33  34
HETATM   34  C23 UNL     1      13.325   2.861  47.041  1.00  0.00     0.037 C
BRANCH  34  35
HETATM   35  C24 UNL     1      14.751   3.235  47.438  1.00  0.00     0.051 C
HETATM   36  C25 UNL     1      14.792   4.618  48.005  1.00  0.00     0.045 C
HETATM   37  C26 UNL     1      15.722   3.111  46.293  1.00  0.00     0.045 C
BRANCH  35  38
HETATM   38  O3  UNL     1      15.158   2.361  48.476  1.00  0.00    -0.391 OA
ATOM     39  H3  UNL     1      15.868   1.824  48.145  1.00  0.00     0.210 HD
ENDBRANCH  35  38
ENDBRANCH  34  35
ENDBRANCH  33  34
ENDBRANCH  32  33
ENDBRANCH  30  32
ENDBRANCH  26  30
BRANCH  29  40
HETATM   40  O4  UNL     1      13.187   7.449  42.816  1.00  0.00    -0.386 OA
HETATM   41  C28 UNL     1      14.377   8.093  42.611  1.00  0.00     0.202 C
ENDBRANCH  29  40
ENDBRANCH   1  22
TORSDOF 14
ENDMDL