MODEL 4
REMARK VINA RESULT: -8.357928265      1.430      2.484
REMARK  13 active torsions:
REMARK  status: ('A' for Active; 'I' for Inactive)
REMARK    1  A    between atoms: C2_2  and  C3_3
REMARK    2  A    between atoms: C2_2  and  C26_36
REMARK    3  A    between atoms: C3_3  and  C4_4
REMARK    4  A    between atoms: C4_4  and  C5_5
REMARK    5  A    between atoms: C5_5  and  C6_6
REMARK    6  A    between atoms: C12_14  and  C13_15
REMARK    7  A    between atoms: C13_15  and  C14_16
REMARK    8  A    between atoms: C14_16  and  C15_17
REMARK    9  A    between atoms: C15_17  and  C16_18
REMARK   10  A    between atoms: C16_18  and  C17_19
REMARK       I    between atoms: C17_19  and  N1_21
REMARK       I    between atoms: C18_23  and  N2_24
REMARK       I    between atoms: C18_23  and  N3_27
REMARK   11  A    between atoms: N3_27  and  C19_29
REMARK   12  A    between atoms: C28_38  and  C29_39
REMARK   13  A    between atoms: C29_39  and  O4_41
ROOT
HETATM    1  C6  UNL     1      14.810   6.704  46.055  1.00  0.00     0.065 C
HETATM    2  C7  UNL     1      14.711   8.192  45.800  1.00  0.00     0.147 C
HETATM    3  O1  UNL     1      13.939   8.921  46.276  1.00  0.00    -0.296 OA
HETATM    4  C8  UNL     1      15.740   8.704  44.833  1.00  0.00     0.074 C
HETATM    5  C9  UNL     1      15.825  10.194  44.811  1.00  0.00     0.031 C
HETATM    6  C10 UNL     1      15.494   8.091  43.503  1.00  0.00     0.031 C
HETATM    7  C11 UNL     1      16.983   8.046  45.413  1.00  0.00     0.147 C
HETATM    8  O2  UNL     1      17.948   7.830  44.788  1.00  0.00    -0.296 OA
HETATM    9  C12 UNL     1      16.844   7.704  46.861  1.00  0.00     0.065 C
HETATM   10  C23 UNL     1      15.899   6.567  47.089  1.00  0.00    -0.027 C
HETATM   11  C24 UNL     1      15.436   6.642  48.517  1.00  0.00     0.016 C
HETATM   12  C25 UNL     1      16.576   5.228  46.856  1.00  0.00     0.016 C
ENDROOT
BRANCH   9  13
HETATM   13  C13 UNL     1      18.200   7.721  47.500  1.00  0.00     0.013 C
BRANCH  13  14
HETATM   14  C14 UNL     1      18.210   8.882  48.463  1.00  0.00     0.001 C
BRANCH  14  15
HETATM   15  C15 UNL     1      19.474   9.456  48.925  1.00  0.00     0.009 C
BRANCH  15  16
HETATM   16  C16 UNL     1      20.657   8.525  48.951  1.00  0.00     0.103 C
BRANCH  16  17
HETATM   17  C17 UNL     1      21.847   9.833  49.603  1.00  0.00     0.235 C
HETATM   18  O3  UNL     1      21.739  10.347  48.709  1.00  0.00    -0.273 OA
HETATM   19  N1  UNL     1      21.975   9.105  50.825  1.00  0.00    -0.160 N
HETATM   20  C18 UNL     1      21.501   8.078  51.519  1.00  0.00     0.674 C
ATOM     21  H1  UNL     1      22.715   9.542  51.375  1.00  0.00     0.187 HD
HETATM   22  N2  UNL     1      22.160   7.838  52.692  1.00  0.00    -0.235 N
HETATM   23  N3  UNL     1      20.411   7.206  51.353  1.00  0.00    -0.218 N
ATOM     24  H22 UNL     1      22.951   8.470  52.812  1.00  0.00     0.174 HD
ATOM     25  H21 UNL     1      21.795   7.049  53.225  1.00  0.00     0.174 HD
ATOM     26  H3  UNL     1      20.509   6.494  50.629  1.00  0.00     0.178 HD
BRANCH  23  27
HETATM   27  C19 UNL     1      19.185   7.203  52.080  1.00  0.00     0.036 C
HETATM   28  C20 UNL     1      19.317   6.444  53.395  1.00  0.00     0.038 C
HETATM   29  C21 UNL     1      18.653   8.560  52.424  1.00  0.00     0.038 C
HETATM   30  C22 UNL     1      18.106   6.426  51.308  1.00  0.00     0.038 C
ENDBRANCH  23  27
ENDBRANCH  16  17
ENDBRANCH  15  16
ENDBRANCH  14  15
ENDBRANCH  13  14
ENDBRANCH   9  13
BRANCH   1  31
HETATM   31  C5  UNL     1      13.491   6.095  46.209  1.00  0.00     0.013 C
BRANCH  31  32
HETATM   32  C4  UNL     1      13.074   4.941  45.393  1.00  0.00     0.005 C
BRANCH  32  33
HETATM   33  C3  UNL     1      13.202   5.254  43.873  1.00  0.00     0.038 C
BRANCH  33  34
HETATM   34  C2  UNL     1      13.627   3.953  43.231  1.00  0.00    -0.062 C
HETATM   35  C1  UNL     1      14.042   2.978  43.998  1.00  0.00     0.019 C
BRANCH  34  36
HETATM   36  C26 UNL     1      13.743   3.814  41.773  1.00  0.00    -0.058 C
HETATM   37  C27 UNL     1      14.567   2.574  41.330  1.00  0.00     0.048 C
HETATM   38  C28 UNL     1      13.301   4.522  40.830  1.00  0.00     0.011 C
BRANCH  38  39
HETATM   39  C29 UNL     1      12.520   5.721  40.666  1.00  0.00     0.137 C
HETATM   40  C30 UNL     1      12.167   5.830  39.166  1.00  0.00     0.043 C
BRANCH  39  41
HETATM   41  O4  UNL     1      13.316   6.867  40.974  1.00  0.00    -0.392 OA
ATOM     42  H4  UNL     1      12.756   7.598  41.206  1.00  0.00     0.210 HD
ENDBRANCH  39  41
ENDBRANCH  38  39
ENDBRANCH  34  36
ENDBRANCH  33  34
ENDBRANCH  32  33
ENDBRANCH  31  32
ENDBRANCH   1  31
TORSDOF 13
ENDMDL