MODEL 3
REMARK VINA RESULT: -7.663218956      3.508      5.955
REMARK  13 active torsions:
REMARK  status: ('A' for Active; 'I' for Inactive)
REMARK    1  A    between atoms: C4_4  and  C5_5
REMARK    2  A    between atoms: C5_5  and  C6_6
REMARK    3  A    between atoms: C9_9  and  C10_10
REMARK    4  A    between atoms: C10_10  and  C11_11
REMARK    5  A    between atoms: C11_11  and  C12_12
REMARK    6  A    between atoms: C11_11  and  C18_20
REMARK    7  A    between atoms: C12_12  and  C13_13
REMARK    8  A    between atoms: C14_14  and  C15_15
REMARK    9  A    between atoms: C16_16  and  C17_17
REMARK   10  A    between atoms: C18_20  and  C19_21
REMARK   11  A    between atoms: C20_22  and  C21_23
REMARK   12  A    between atoms: C21_23  and  O2_26
REMARK   13  A    between atoms: C31_37  and  O5_38
ROOT
HETATM    1  C6  UNL     1      19.316   6.964  51.431  1.00  0.00     0.018 C
HETATM    2  C7  UNL     1      19.141   5.931  50.340  1.00  0.00     0.011 C
HETATM    3  C8  UNL     1      17.738   5.983  49.834  1.00  0.00     0.035 C
HETATM    4  C9  UNL     1      17.451   7.004  48.790  1.00  0.00    -0.070 C
HETATM    5  C24 UNL     1      18.419   7.309  47.738  1.00  0.00     0.110 C
HETATM    6  C25 UNL     1      17.732   8.222  46.704  1.00  0.00     0.025 C
HETATM    7  C26 UNL     1      19.568   8.230  48.143  1.00  0.00     0.267 C
HETATM    8  O3  UNL     1      20.539   7.998  47.337  1.00  0.00    -0.264 OA
HETATM    9  O4  UNL     1      19.431   9.047  49.150  1.00  0.00    -0.310 OA
HETATM   10  C27 UNL     1      19.946   9.710  50.199  1.00  0.00     0.066 C
HETATM   11  C28 UNL     1      20.779  10.911  49.683  1.00  0.00     0.046 C
HETATM   12  C29 UNL     1      18.812  10.409  50.972  1.00  0.00     0.046 C
HETATM   13  C30 UNL     1      20.805   9.002  51.170  1.00  0.00     0.070 C
HETATM   14  C31 UNL     1      20.661   7.554  51.353  1.00  0.00     0.125 C
ENDROOT
BRANCH   4  15
HETATM   15  C10 UNL     1      16.023   7.064  48.453  1.00  0.00    -0.018 C
BRANCH  15  16
HETATM   16  C11 UNL     1      15.193   6.082  47.831  1.00  0.00     0.015 C
BRANCH  16  17
HETATM   17  C12 UNL     1      14.227   6.905  46.903  1.00  0.00     0.036 C
BRANCH  17  18
HETATM   18  C13 UNL     1      14.686   6.939  45.535  1.00  0.00    -0.026 C
HETATM   19  C14 UNL     1      14.043   7.621  44.554  1.00  0.00    -0.004 C
BRANCH  19  20
HETATM   20  C15 UNL     1      14.534   7.626  43.216  1.00  0.00     0.005 C
HETATM   21  C16 UNL     1      13.868   7.299  42.157  1.00  0.00     0.071 C
BRANCH  21  22
HETATM   22  C17 UNL     1      12.518   6.867  42.063  1.00  0.00     0.254 C
HETATM   23  N1  UNL     1      11.934   5.646  42.436  1.00  0.00    -0.058 NA
HETATM   24  O1  UNL     1      11.682   7.717  41.556  1.00  0.00    -0.272 OA
ENDBRANCH  21  22
ENDBRANCH  19  20
ENDBRANCH  17  18
ENDBRANCH  16  17
BRANCH  16  25
HETATM   25  C18 UNL     1      15.541   4.939  47.004  1.00  0.00     0.035 C
BRANCH  25  26
HETATM   26  C19 UNL     1      15.363   3.560  47.493  1.00  0.00    -0.027 C
HETATM   27  C20 UNL     1      14.382   2.736  47.294  1.00  0.00     0.006 C
BRANCH  27  28
HETATM   28  C21 UNL     1      13.189   3.043  46.492  1.00  0.00     0.068 C
HETATM   29  C22 UNL     1      13.579   3.528  45.088  1.00  0.00     0.050 C
HETATM   30  C23 UNL     1      12.307   4.120  47.062  1.00  0.00     0.050 C
BRANCH  28  31
HETATM   31  O2  UNL     1      12.475   1.841  46.316  1.00  0.00    -0.387 OA
ATOM     32  H2  UNL     1      12.354   1.450  47.174  1.00  0.00     0.211 HD
ENDBRANCH  28  31
ENDBRANCH  27  28
ENDBRANCH  25  26
ENDBRANCH  16  25
ENDBRANCH  15  16
ENDBRANCH   4  15
BRANCH   1  33
HETATM   33  C5  UNL     1      18.903   6.406  52.754  1.00  0.00     0.034 C
BRANCH  33  34
HETATM   34  C4  UNL     1      19.854   6.457  53.848  1.00  0.00    -0.024 C
HETATM   35  C2  UNL     1      19.764   7.383  54.787  1.00  0.00    -0.091 C
HETATM   36  C1  UNL     1      18.700   8.427  54.794  1.00  0.00     0.042 C
HETATM   37  C3  UNL     1      20.737   7.459  55.935  1.00  0.00     0.042 C
ENDBRANCH  33  34
ENDBRANCH   1  33
BRANCH  14  38
HETATM   38  O5  UNL     1      21.502   6.909  50.409  1.00  0.00    -0.395 OA
ATOM     39  H5  UNL     1      22.426   6.993  50.611  1.00  0.00     0.210 HD
ENDBRANCH  14  38
TORSDOF 13
ENDMDL