MODEL 2
REMARK VINA RESULT: -8.195070741      1.418      1.604
REMARK  13 active torsions:
REMARK  status: ('A' for Active; 'I' for Inactive)
REMARK    1  A    between atoms: S1_2  and  C2_3
REMARK    2  A    between atoms: C8_9  and  O1_10
REMARK    3  A    between atoms: O1_10  and  C9_11
REMARK    4  A    between atoms: C12_14  and  O2_15
REMARK    5  A    between atoms: C15_19  and  C16_20
REMARK    6  A    between atoms: C16_20  and  C17_21
REMARK    7  A    between atoms: C17_21  and  C18_22
REMARK    8  A    between atoms: C22_26  and  C23_27
REMARK    9  A    between atoms: C23_27  and  C24_28
REMARK   10  A    between atoms: C24_28  and  O3_29
REMARK   11  A    between atoms: C25_31  and  N1_32
REMARK       I    between atoms: N1_32  and  C26_34
REMARK   12  A    between atoms: C26_34  and  C27_36
REMARK   13  A    between atoms: C27_36  and  N2_37
ROOT
HETATM    1  C9  UNL     1      17.406   8.101  49.554  1.00  0.00     0.132 C
HETATM    2  C10 UNL     1      17.684   6.887  50.362  1.00  0.00     0.040 C
HETATM    3  C11 UNL     1      18.901   6.122  50.117  1.00  0.00     0.015 C
HETATM    4  C12 UNL     1      16.441   6.025  50.328  1.00  0.00     0.128 C
HETATM    5  C13 UNL     1      15.940   5.740  48.944  1.00  0.00     0.015 C
HETATM    6  C14 UNL     1      16.621   4.529  48.380  1.00  0.00     0.013 C
HETATM    7  C15 UNL     1      15.874   6.930  48.051  1.00  0.00    -0.002 C
HETATM    8  C28 UNL     1      16.992   7.909  48.140  1.00  0.00     0.015 C
HETATM    9  C29 UNL     1      18.063   7.662  47.145  1.00  0.00     0.013 C
ENDROOT
BRANCH   7  10
HETATM   10  C16 UNL     1      15.635   6.545  46.607  1.00  0.00     0.006 C
BRANCH  10  11
HETATM   11  C17 UNL     1      14.180   6.292  46.379  1.00  0.00     0.007 C
BRANCH  11  12
HETATM   12  C18 UNL     1      13.848   4.913  45.909  1.00  0.00     0.009 C
HETATM   13  C19 UNL     1      13.238   4.034  46.959  1.00  0.00     0.007 C
HETATM   14  C20 UNL     1      11.768   4.337  47.171  1.00  0.00     0.001 C
HETATM   15  C21 UNL     1      11.088   4.003  45.859  1.00  0.00     0.007 C
HETATM   16  C22 UNL     1      11.591   4.864  44.760  1.00  0.00     0.011 C
HETATM   17  C25 UNL     1      13.089   4.934  44.625  1.00  0.00     0.092 C
BRANCH  16  18
HETATM   18  C23 UNL     1      10.923   6.204  44.723  1.00  0.00     0.032 C
BRANCH  18  19
HETATM   19  C24 UNL     1       9.450   6.141  45.041  1.00  0.00     0.164 C
BRANCH  19  20
HETATM   20  O3  UNL     1       8.840   7.351  44.697  1.00  0.00    -0.401 OA
ATOM     21  H3  UNL     1       9.275   8.069  45.141  1.00  0.00     0.209 HD
ENDBRANCH  19  20
ENDBRANCH  18  19
ENDBRANCH  16  18
BRANCH  17  22
HETATM   22  N1  UNL     1      13.583   3.856  43.755  1.00  0.00    -0.354 N
HETATM   23  C26 UNL     1      13.651   3.922  42.365  1.00  0.00     0.243 C
HETATM   24  O4  UNL     1      13.274   4.959  41.761  1.00  0.00    -0.272 OA
ATOM     25  H1  UNL     1      13.900   2.995  44.204  1.00  0.00     0.162 HD
BRANCH  23  26
HETATM   26  C27 UNL     1      14.166   2.775  41.588  1.00  0.00     0.332 C
BRANCH  26  27
HETATM   27  N2  UNL     1      14.092   2.965  40.173  1.00  0.00    -0.071 N
ATOM     28  H23 UNL     1      13.335   3.607  39.934  1.00  0.00     0.274 HD
ATOM     29  H22 UNL     1      14.887   3.510  39.841  1.00  0.00     0.274 HD
ATOM     30  H21 UNL     1      14.006   2.094  39.649  1.00  0.00     0.274 HD
ENDBRANCH  26  27
ENDBRANCH  23  26
ENDBRANCH  17  22
ENDBRANCH  11  12
ENDBRANCH  10  11
ENDBRANCH   7  10
BRANCH   4  31
HETATM   31  O2  UNL     1      16.618   4.807  50.982  1.00  0.00    -0.395 OA
ATOM     32  H2  UNL     1      17.521   4.659  51.236  1.00  0.00     0.210 HD
ENDBRANCH   4  31
BRANCH   1  33
HETATM   33  O1  UNL     1      18.169   9.203  49.805  1.00  0.00    -0.379 OA
BRANCH  33  34
HETATM   34  C8  UNL     1      18.323   9.701  51.018  1.00  0.00     0.136 C
HETATM   35  C2  UNL     1      19.808   9.625  51.360  1.00  0.00     0.076 C
HETATM   36  C3  UNL     1      20.290  10.605  52.350  1.00  0.00     0.018 C
HETATM   37  C4  UNL     1      19.647  11.939  52.364  1.00  0.00     0.005 C
HETATM   38  C5  UNL     1      18.148  11.726  52.348  1.00  0.00    -0.016 C
HETATM   39  C6  UNL     1      17.392  12.995  52.629  1.00  0.00     0.010 C
HETATM   40  C7  UNL     1      17.832  11.158  50.983  1.00  0.00     0.037 C
BRANCH  35  41
HETATM   41  S1  UNL     1      20.822   9.521  49.867  1.00  0.00    -0.166 SA
HETATM   42  C1  UNL     1      21.872  10.934  49.586  1.00  0.00     0.090 C
ENDBRANCH  35  41
ENDBRANCH  33  34
ENDBRANCH   1  33
TORSDOF 13
ENDMDL