MODEL 1
REMARK VINA RESULT: -9.074966171      0.000      0.000
REMARK  15 active torsions:
REMARK  status: ('A' for Active; 'I' for Inactive)
REMARK    1  A    between atoms: C4_4  and  C5_5
REMARK    2  A    between atoms: C5_5  and  C6_6
REMARK    3  A    between atoms: C9_9  and  O1_10
REMARK    4  A    between atoms: C11_13  and  O2_14
REMARK    5  A    between atoms: C21_25  and  C22_26
REMARK    6  A    between atoms: C22_26  and  O3_28
REMARK    7  A    between atoms: C22_26  and  C24_30
REMARK    8  A    between atoms: C24_30  and  C25_31
REMARK    9  A    between atoms: C25_31  and  C26_32
REMARK   10  A    between atoms: C26_32  and  C27_33
REMARK   11  A    between atoms: C26_32  and  C28_36
REMARK   12  A    between atoms: C27_33  and  O4_34
REMARK   13  A    between atoms: C28_36  and  C29_37
REMARK   14  A    between atoms: C29_37  and  C30_38
REMARK   15  A    between atoms: C30_38  and  O5_39
ROOT
HETATM    1  C1  UNL     1      15.035   7.601  47.179  1.00  0.00     0.015 C
HETATM    2  C2  UNL     1      14.756   6.417  46.646  1.00  0.00    -0.079 C
HETATM    3  C3  UNL     1      14.501   5.278  47.566  1.00  0.00     0.027 C
HETATM    4  C4  UNL     1      15.629   4.727  48.323  1.00  0.00    -0.002 C
HETATM    5  C13 UNL     1      16.591   4.331  47.233  1.00  0.00     0.006 C
HETATM    6  C14 UNL     1      15.613   3.563  46.332  1.00  0.00     0.011 C
HETATM    7  C15 UNL     1      14.244   4.123  46.626  1.00  0.00    -0.028 C
HETATM    8  C16 UNL     1      13.352   3.078  47.228  1.00  0.00     0.016 C
HETATM    9  C17 UNL     1      13.667   4.807  45.458  1.00  0.00    -0.028 C
HETATM   10  C18 UNL     1      13.584   3.928  44.226  1.00  0.00     0.016 C
HETATM   11  C19 UNL     1      12.388   5.544  45.711  1.00  0.00     0.011 C
HETATM   12  C20 UNL     1      12.558   6.977  45.180  1.00  0.00     0.009 C
HETATM   13  C21 UNL     1      13.758   6.759  44.325  1.00  0.00     0.028 C
HETATM   14  C32 UNL     1      14.634   6.001  45.219  1.00  0.00     0.030 C
ENDROOT
BRANCH  13  15
HETATM   15  C22 UNL     1      14.179   7.741  43.354  1.00  0.00     0.058 C
HETATM   16  C23 UNL     1      15.491   8.344  43.909  1.00  0.00     0.046 C
BRANCH  15  17
HETATM   17  O3  UNL     1      13.270   8.830  43.444  1.00  0.00    -0.390 OA
ATOM     18  H3  UNL     1      13.268   9.261  42.597  1.00  0.00     0.210 HD
ENDBRANCH  15  17
BRANCH  15  19
HETATM   19  C24 UNL     1      14.411   7.482  41.943  1.00  0.00     0.038 C
BRANCH  19  20
HETATM   20  C25 UNL     1      13.609   6.261  41.520  1.00  0.00     0.010 C
BRANCH  20  21
HETATM   21  C26 UNL     1      12.358   6.542  40.797  1.00  0.00     0.009 C
BRANCH  21  22
HETATM   22  C27 UNL     1      11.142   6.252  41.712  1.00  0.00     0.168 C
BRANCH  22  23
HETATM   23  O4  UNL     1      10.748   7.532  42.161  1.00  0.00    -0.400 OA
ATOM     24  H4  UNL     1      11.541   7.892  42.540  1.00  0.00     0.209 HD
ENDBRANCH  22  23
ENDBRANCH  21  22
BRANCH  21  25
HETATM   25  C28 UNL     1      12.109   6.016  39.450  1.00  0.00     0.009 C
BRANCH  25  26
HETATM   26  C29 UNL     1      12.849   4.871  38.893  1.00  0.00     0.027 C
BRANCH  26  27
HETATM   27  C30 UNL     1      12.402   3.489  39.133  1.00  0.00     0.167 C
BRANCH  27  28
HETATM   28  O5  UNL     1      13.509   2.589  39.143  1.00  0.00    -0.396 OA
HETATM   29  C31 UNL     1      14.206   2.904  40.321  1.00  0.00     0.201 C
ENDBRANCH  27  28
ENDBRANCH  26  27
ENDBRANCH  25  26
ENDBRANCH  21  25
ENDBRANCH  20  21
ENDBRANCH  19  20
ENDBRANCH  15  19
ENDBRANCH  13  15
BRANCH   4  30
HETATM   30  C5  UNL     1      16.198   5.424  49.467  1.00  0.00     0.032 C
BRANCH  30  31
HETATM   31  C6  UNL     1      17.686   5.617  49.301  1.00  0.00    -0.023 C
HETATM   32  C7  UNL     1      18.279   6.767  49.490  1.00  0.00    -0.079 C
HETATM   33  C8  UNL     1      19.734   6.912  49.317  1.00  0.00     0.065 C
HETATM   34  C12 UNL     1      17.483   7.946  49.882  1.00  0.00     0.065 C
HETATM   35  C9  UNL     1      20.148   8.183  48.654  1.00  0.00     0.124 C
HETATM   36  C10 UNL     1      19.174   9.308  48.780  1.00  0.00     0.064 C
HETATM   37  C11 UNL     1      18.335   9.191  50.006  1.00  0.00     0.124 C
BRANCH  35  38
HETATM   38  O1  UNL     1      20.479   7.940  47.320  1.00  0.00    -0.395 OA
ATOM     39  H1  UNL     1      19.695   7.955  46.784  1.00  0.00     0.210 HD
ENDBRANCH  35  38
BRANCH  37  40
HETATM   40  O2  UNL     1      19.108   9.219  51.138  1.00  0.00    -0.395 OA
ATOM     41  H2  UNL     1      18.584   9.415  51.906  1.00  0.00     0.210 HD
ENDBRANCH  37  40
ENDBRANCH  30  31
ENDBRANCH   4  30
TORSDOF 15
ENDMDL