MODEL 4
REMARK VINA RESULT: -7.580171206      1.349      1.883
REMARK  13 active torsions:
REMARK  status: ('A' for Active; 'I' for Inactive)
REMARK    1  A    between atoms: C2_2  and  C3_3
REMARK    2  A    between atoms: C3_3  and  C4_4
REMARK    3  A    between atoms: C4_4  and  C5_5
REMARK    4  A    between atoms: C5_5  and  O1_6
REMARK    5  A    between atoms: O1_6  and  C6_7
REMARK    6  A    between atoms: C8_12  and  C9_13
REMARK    7  A    between atoms: C9_13  and  C10_14
REMARK    8  A    between atoms: C10_14  and  C11_15
REMARK    9  A    between atoms: C11_15  and  C12_16
REMARK   10  A    between atoms: C14_18  and  C15_19
REMARK   11  A    between atoms: C22_26  and  O2_27
REMARK   12  A    between atoms: C29_35  and  O3_36
REMARK   13  A    between atoms: C31_39  and  O4_40
ROOT
HETATM    1  C15 UNL     1      15.975   6.550  47.389  1.00  0.00     0.001 C
HETATM    2  C16 UNL     1      17.128   6.378  46.459  1.00  0.00     0.006 C
HETATM    3  C17 UNL     1      17.983   7.574  46.779  1.00  0.00     0.010 C
HETATM    4  C18 UNL     1      17.829   7.817  48.299  1.00  0.00    -0.032 C
HETATM    5  C19 UNL     1      18.071   9.268  48.530  1.00  0.00     0.010 C
HETATM    6  C20 UNL     1      19.343   9.661  49.178  1.00  0.00     0.009 C
HETATM    7  C21 UNL     1      19.686   9.295  50.515  1.00  0.00     0.023 C
HETATM    8  C22 UNL     1      20.274  10.513  51.274  1.00  0.00     0.123 C
HETATM    9  C23 UNL     1      20.604   9.884  52.585  1.00  0.00     0.033 C
HETATM   10  C24 UNL     1      19.716   8.665  52.716  1.00  0.00     0.012 C
HETATM   11  C25 UNL     1      18.748   8.798  51.514  1.00  0.00    -0.032 C
HETATM   12  C26 UNL     1      17.771   9.853  52.044  1.00  0.00     0.016 C
HETATM   13  C27 UNL     1      18.023   7.507  51.249  1.00  0.00     0.025 C
HETATM   14  C28 UNL     1      16.566   7.648  51.015  1.00  0.00     0.040 C
HETATM   15  C29 UNL     1      15.958   7.005  49.818  1.00  0.00     0.123 C
HETATM   16  C30 UNL     1      16.380   7.493  48.488  1.00  0.00     0.028 C
HETATM   17  C31 UNL     1      18.722   6.569  50.324  1.00  0.00     0.123 C
HETATM   18  C32 UNL     1      18.793   6.890  48.915  1.00  0.00     0.042 C
ENDROOT
BRANCH   1  19
HETATM   19  C14 UNL     1      14.657   6.751  46.780  1.00  0.00     0.051 C
HETATM   20  C6  UNL     1      14.335   5.567  45.826  1.00  0.00     0.153 C
HETATM   21  C7  UNL     1      13.013   6.074  45.304  1.00  0.00     0.265 C
HETATM   22  N1  UNL     1      13.102   7.491  45.283  1.00  0.00    -0.068 N
HETATM   23  C8  UNL     1      14.455   7.840  45.784  1.00  0.00     0.193 C
ATOM     24  H12 UNL     1      12.895   7.894  44.369  1.00  0.00     0.277 HD
ATOM     25  H11 UNL     1      12.351   7.950  45.799  1.00  0.00     0.277 HD
BRANCH  20  26
HETATM   26  O1  UNL     1      14.147   4.405  46.506  1.00  0.00    -0.384 OA
BRANCH  26  27
HETATM   27  C5  UNL     1      12.996   4.290  47.238  1.00  0.00     0.168 C
BRANCH  27  28
HETATM   28  C4  UNL     1      12.230   3.024  47.098  1.00  0.00     0.026 C
BRANCH  28  29
HETATM   29  C3  UNL     1      10.773   3.205  47.448  1.00  0.00     0.002 C
BRANCH  29  30
HETATM   30  C2  UNL     1      10.475   4.707  47.404  1.00  0.00    -0.004 C
HETATM   31  C1  UNL     1       9.380   4.936  46.394  1.00  0.00     0.005 C
ENDBRANCH  29  30
ENDBRANCH  28  29
ENDBRANCH  27  28
ENDBRANCH  26  27
ENDBRANCH  20  26
BRANCH  23  32
HETATM   32  C9  UNL     1      14.323   9.225  46.280  1.00  0.00     0.033 C
BRANCH  32  33
HETATM   33  C10 UNL     1      13.925  10.104  45.079  1.00  0.00     0.002 C
BRANCH  33  34
HETATM   34  C11 UNL     1      14.742   9.700  43.859  1.00  0.00    -0.000 C
BRANCH  34  35
HETATM   35  C12 UNL     1      16.179  10.107  44.171  1.00  0.00    -0.005 C
HETATM   36  C13 UNL     1      17.080   8.979  43.736  1.00  0.00     0.005 C
ENDBRANCH  34  35
ENDBRANCH  33  34
ENDBRANCH  32  33
ENDBRANCH  23  32
ENDBRANCH   1  19
BRANCH  15  37
HETATM   37  O3  UNL     1      15.867   5.596  49.924  1.00  0.00    -0.395 OA
ATOM     38  H3  UNL     1      15.705   5.166  49.092  1.00  0.00     0.210 HD
ENDBRANCH  15  37
BRANCH  17  39
HETATM   39  O4  UNL     1      20.024   6.256  50.791  1.00  0.00    -0.395 OA
ATOM     40  H4  UNL     1      20.053   5.391  51.183  1.00  0.00     0.210 HD
ENDBRANCH  17  39
BRANCH   8  41
HETATM   41  O2  UNL     1      21.478  10.817  50.632  1.00  0.00    -0.395 OA
ATOM     42  H2  UNL     1      22.051  11.162  51.306  1.00  0.00     0.210 HD
ENDBRANCH   8  41
TORSDOF 13
ENDMDL