MODEL 1
REMARK VINA RESULT: -8.473373581      0.000      0.000
REMARK  14 active torsions:
REMARK  status: ('A' for Active; 'I' for Inactive)
REMARK    1  A    between atoms: C2_2  and  C3_3
REMARK    2  A    between atoms: C3_3  and  C4_4
REMARK    3  A    between atoms: C4_4  and  C5_5
REMARK    4  A    between atoms: C5_5  and  C6_6
REMARK    5  A    between atoms: C6_6  and  C7_7
REMARK    6  A    between atoms: C7_7  and  C8_8
REMARK    7  A    between atoms: C8_8  and  O1_9
REMARK    8  A    between atoms: C8_8  and  C9_11
REMARK    9  A    between atoms: C9_11  and  C11_13
REMARK   10  A    between atoms: C20_22  and  O2_23
REMARK   11  A    between atoms: C22_27  and  O3_28
REMARK   12  A    between atoms: O3_28  and  C23_29
REMARK   13  A    between atoms: C23_29  and  C24_30
REMARK   14  A    between atoms: C24_30  and  N2_31
ROOT
HETATM    1  C11 UNL     1      14.861   7.299  46.114  1.00  0.00     0.000 C
HETATM    2  C12 UNL     1      15.827   8.427  45.714  1.00  0.00     0.006 C
HETATM    3  C13 UNL     1      17.136   7.805  45.535  1.00  0.00     0.006 C
HETATM    4  C14 UNL     1      17.218   6.908  46.721  1.00  0.00    -0.002 C
HETATM    5  C15 UNL     1      17.928   7.388  47.904  1.00  0.00    -0.005 C
HETATM    6  C16 UNL     1      17.765   8.786  48.352  1.00  0.00     0.006 C
HETATM    7  C17 UNL     1      18.927   9.060  49.331  1.00  0.00     0.006 C
HETATM    8  C18 UNL     1      18.545   8.259  50.576  1.00  0.00    -0.002 C
HETATM    9  C19 UNL     1      19.389   8.579  51.753  1.00  0.00     0.061 C
HETATM   10  C20 UNL     1      20.800   8.125  51.669  1.00  0.00     0.172 C
HETATM   11  C21 UNL     1      21.642   9.006  50.843  1.00  0.00     0.100 C
HETATM   12  N1  UNL     1      22.317   9.705  50.208  1.00  0.00    -0.194 NA
HETATM   13  C22 UNL     1      20.887   6.685  51.232  1.00  0.00     0.171 C
HETATM   14  C25 UNL     1      19.976   6.344  50.088  1.00  0.00     0.046 C
HETATM   15  C26 UNL     1      18.551   6.779  50.278  1.00  0.00    -0.034 C
HETATM   16  C27 UNL     1      17.939   6.068  51.462  1.00  0.00     0.016 C
HETATM   17  C28 UNL     1      17.762   6.425  49.063  1.00  0.00    -0.001 C
HETATM   18  C29 UNL     1      16.340   6.087  49.341  1.00  0.00     0.006 C
HETATM   19  C30 UNL     1      15.352   6.582  48.362  1.00  0.00     0.010 C
HETATM   20  C31 UNL     1      15.792   6.421  46.891  1.00  0.00    -0.036 C
HETATM   21  C32 UNL     1      15.785   4.950  46.666  1.00  0.00     0.016 C
ENDROOT
BRANCH  10  22
HETATM   22  O2  UNL     1      21.335   8.179  52.979  1.00  0.00    -0.373 OA
ATOM     23  H2  UNL     1      20.757   7.671  53.538  1.00  0.00     0.212 HD
ENDBRANCH  10  22
BRANCH  13  24
HETATM   24  O3  UNL     1      22.181   6.363  50.827  1.00  0.00    -0.380 OA
BRANCH  24  25
HETATM   25  C23 UNL     1      22.222   5.152  50.138  1.00  0.00     0.195 C
BRANCH  25  26
HETATM   26  C24 UNL     1      23.425   4.335  50.467  1.00  0.00     0.255 C
BRANCH  26  27
HETATM   27  N2  UNL     1      23.826   3.519  49.322  1.00  0.00    -0.077 N
ATOM     28  H23 UNL     1      23.494   2.558  49.408  1.00  0.00     0.274 HD
ATOM     29  H22 UNL     1      23.322   3.781  48.476  1.00  0.00     0.274 HD
ATOM     30  H21 UNL     1      24.837   3.558  49.186  1.00  0.00     0.274 HD
ENDBRANCH  26  27
ENDBRANCH  25  26
ENDBRANCH  24  25
ENDBRANCH  13  24
BRANCH   1  31
HETATM   31  C9  UNL     1      14.145   6.796  44.953  1.00  0.00     0.015 C
HETATM   32  C10 UNL     1      14.315   7.510  43.634  1.00  0.00     0.013 C
BRANCH  31  33
HETATM   33  C8  UNL     1      12.763   6.235  45.027  1.00  0.00     0.122 C
BRANCH  33  34
HETATM   34  C7  UNL     1      12.645   5.037  44.044  1.00  0.00     0.032 C
BRANCH  34  35
HETATM   35  C6  UNL     1      13.358   3.879  44.653  1.00  0.00     0.002 C
BRANCH  35  36
HETATM   36  C5  UNL     1      14.105   3.047  43.650  1.00  0.00     0.000 C
BRANCH  36  37
HETATM   37  C4  UNL     1      13.842   3.555  42.269  1.00  0.00     0.000 C
BRANCH  37  38
HETATM   38  C3  UNL     1      14.522   2.658  41.260  1.00  0.00    -0.000 C
BRANCH  38  39
HETATM   39  C2  UNL     1      14.034   3.151  39.888  1.00  0.00    -0.005 C
HETATM   40  C1  UNL     1      13.224   4.393  40.080  1.00  0.00     0.005 C
ENDBRANCH  38  39
ENDBRANCH  37  38
ENDBRANCH  36  37
ENDBRANCH  35  36
ENDBRANCH  34  35
ENDBRANCH  33  34
BRANCH  33  41
HETATM   41  O1  UNL     1      11.729   7.034  44.555  1.00  0.00    -0.395 OA
ATOM     42  H1  UNL     1      10.985   6.496  44.796  1.00  0.00     0.210 HD
ENDBRANCH  33  41
ENDBRANCH  31  33
ENDBRANCH   1  31
TORSDOF 14
ENDMDL