MODEL 2
REMARK VINA RESULT: -6.891490140      1.862      5.804
REMARK  12 active torsions:
REMARK  status: ('A' for Active; 'I' for Inactive)
REMARK    1  A    between atoms: C2_2  and  N1_3
REMARK    2  A    between atoms: C2_2  and  C9_19
REMARK    3  A    between atoms: N1_3  and  C3_6
REMARK    4  A    between atoms: C3_6  and  C4_7
REMARK    5  A    between atoms: C4_7  and  N2_8
REMARK    6  A    between atoms: N2_8  and  C5_11
REMARK    7  A    between atoms: C5_11  and  C6_12
REMARK    8  A    between atoms: C6_12  and  C7_13
REMARK    9  A    between atoms: C7_13  and  C8_14
REMARK   10  A    between atoms: C8_14  and  N3_15
REMARK   11  A    between atoms: C17_27  and  C18_28
REMARK   12  A    between atoms: C18_28  and  O1_31
ROOT
HETATM    1  C9  UNL     1      22.737  11.815  52.314  1.00  0.00     0.022 C
HETATM    2  C10 UNL     1      24.131  11.911  51.765  1.00  0.00     0.012 C
HETATM    3  C11 UNL     1      24.844  13.053  52.481  1.00  0.00    -0.004 C
HETATM    4  C12 UNL     1      26.316  12.998  52.232  1.00  0.00     0.001 C
HETATM    5  C13 UNL     1      26.514  13.176  50.754  1.00  0.00    -0.010 C
HETATM    6  C14 UNL     1      27.947  13.186  50.305  1.00  0.00     0.005 C
HETATM    7  C15 UNL     1      28.869  13.090  51.478  1.00  0.00     0.001 C
HETATM    8  C16 UNL     1      28.464  14.226  52.408  1.00  0.00     0.008 C
HETATM    9  C17 UNL     1      27.146  13.851  53.102  1.00  0.00     0.024 C
HETATM   10  C21 UNL     1      25.841  14.365  50.155  1.00  0.00     0.005 C
HETATM   11  C22 UNL     1      24.376  14.497  50.467  1.00  0.00     0.006 C
HETATM   12  C23 UNL     1      24.179  14.294  51.935  1.00  0.00    -0.002 C
HETATM   13  C24 UNL     1      22.795  14.352  52.450  1.00  0.00    -0.035 C
HETATM   14  C25 UNL     1      22.066  15.390  51.571  1.00  0.00     0.016 C
HETATM   15  C26 UNL     1      22.906  15.071  53.810  1.00  0.00     0.017 C
HETATM   16  C27 UNL     1      21.563  15.540  54.278  1.00  0.00     0.080 C
HETATM   17  C28 UNL     1      20.713  14.319  54.304  1.00  0.00     0.135 C
HETATM   18  O2  UNL     1      19.633  14.444  54.855  1.00  0.00    -0.297 OA
HETATM   19  C29 UNL     1      21.072  13.017  53.735  1.00  0.00     0.018 C
HETATM   20  C30 UNL     1      21.649  12.176  54.844  1.00  0.00     0.023 C
HETATM   21  C31 UNL     1      19.745  12.341  53.353  1.00  0.00     0.023 C
HETATM   22  C32 UNL     1      22.009  13.091  52.522  1.00  0.00     0.015 C
ENDROOT
BRANCH   1  23
HETATM   23  C2  UNL     1      22.004  10.840  51.369  1.00  0.00     0.186 C
HETATM   24  C1  UNL     1      21.929  11.359  49.963  1.00  0.00     0.040 C
BRANCH  23  25
HETATM   25  N1  UNL     1      22.697   9.576  51.307  1.00  0.00    -0.069 N
ATOM     26  H12 UNL     1      23.139   9.423  50.401  1.00  0.00     0.277 HD
ATOM     27  H11 UNL     1      23.538   9.569  51.884  1.00  0.00     0.277 HD
BRANCH  25  28
HETATM   28  C3  UNL     1      21.793   8.514  51.655  1.00  0.00     0.260 C
BRANCH  28  29
HETATM   29  C4  UNL     1      21.241   7.738  50.500  1.00  0.00     0.259 C
BRANCH  29  30
HETATM   30  N2  UNL     1      19.816   7.544  50.778  1.00  0.00    -0.074 N
ATOM     31  H22 UNL     1      19.448   6.715  50.309  1.00  0.00     0.277 HD
ATOM     32  H21 UNL     1      19.655   7.258  51.743  1.00  0.00     0.277 HD
BRANCH  30  33
HETATM   33  C5  UNL     1      19.060   8.732  50.438  1.00  0.00     0.232 C
BRANCH  33  34
HETATM   34  C6  UNL     1      19.135   9.036  48.978  1.00  0.00     0.029 C
BRANCH  34  35
HETATM   35  C7  UNL     1      18.067   8.325  48.160  1.00  0.00     0.029 C
BRANCH  35  36
HETATM   36  C8  UNL     1      18.749   7.400  47.155  1.00  0.00     0.229 C
BRANCH  36  37
HETATM   37  N3  UNL     1      20.166   7.714  47.057  1.00  0.00    -0.079 N
ATOM     38  H33 UNL     1      20.437   8.456  47.703  1.00  0.00     0.274 HD
ATOM     39  H32 UNL     1      20.749   6.966  47.434  1.00  0.00     0.274 HD
ATOM     40  H31 UNL     1      20.413   7.941  46.094  1.00  0.00     0.274 HD
ENDBRANCH  36  37
ENDBRANCH  35  36
ENDBRANCH  34  35
ENDBRANCH  33  34
ENDBRANCH  30  33
ENDBRANCH  29  30
ENDBRANCH  28  29
ENDBRANCH  25  28
ENDBRANCH  23  25
ENDBRANCH   1  23
BRANCH   9  41
HETATM   41  C18 UNL     1      27.551  13.288  54.427  1.00  0.00     0.054 C
HETATM   42  C19 UNL     1      26.574  13.866  55.463  1.00  0.00     0.045 C
HETATM   43  C20 UNL     1      27.471  11.804  54.559  1.00  0.00     0.045 C
BRANCH  41  44
HETATM   44  O1  UNL     1      28.820  13.678  54.846  1.00  0.00    -0.390 OA
ATOM     45  H1  UNL     1      28.896  13.807  55.784  1.00  0.00     0.210 HD
ENDBRANCH  41  44
ENDBRANCH   9  41
TORSDOF 12
ENDMDL