MODEL 3
REMARK VINA RESULT: -7.892362587      2.787      4.412
REMARK  14 active torsions:
REMARK  status: ('A' for Active; 'I' for Inactive)
REMARK    1  A    between atoms: C2_2  and  O1_3
REMARK    2  A    between atoms: C2_2  and  C3_6
REMARK    3  A    between atoms: C3_6  and  C4_7
REMARK    4  A    between atoms: C4_7  and  C5_8
REMARK    5  A    between atoms: C5_8  and  C6_9
REMARK    6  A    between atoms: C6_9  and  C7_10
REMARK    7  A    between atoms: C6_9  and  C33_40
REMARK    8  A    between atoms: C8_11  and  C9_13
REMARK    9  A    between atoms: C9_13  and  C10_14
REMARK   10  A    between atoms: C10_14  and  C11_15
REMARK   11  A    between atoms: C14_18  and  C15_19
REMARK   12  A    between atoms: C15_19  and  O2_20
REMARK   13  A    between atoms: C33_40  and  C34_41
REMARK   14  A    between atoms: C34_41  and  O4_42
ROOT
HETATM    1  C11 UNL     1      -5.255 -18.869   9.644  1.00  0.00    -0.023 C
HETATM    2  C12 UNL     1      -6.299 -18.459   8.978  1.00  0.00    -0.074 C
HETATM    3  C13 UNL     1      -7.653 -18.353   9.608  1.00  0.00     0.042 C
HETATM    4  C14 UNL     1      -8.599 -17.887   8.489  1.00  0.00     0.023 C
HETATM    5  C16 UNL     1      -7.671 -17.129   7.646  1.00  0.00    -0.023 C
HETATM    6  C17 UNL     1      -7.284 -15.877   8.366  1.00  0.00     0.017 C
HETATM    7  C18 UNL     1      -8.026 -16.945   6.196  1.00  0.00     0.004 C
HETATM    8  C19 UNL     1      -9.431 -16.531   5.959  1.00  0.00     0.033 C
HETATM    9  C20 UNL     1      -9.642 -16.283   4.512  1.00  0.00    -0.022 C
HETATM   10  C21 UNL     1      -8.652 -15.998   3.696  1.00  0.00    -0.068 C
HETATM   11  C22 UNL     1      -8.962 -15.765   2.260  1.00  0.00     0.113 C
HETATM   12  C23 UNL     1      -7.863 -16.330   1.431  1.00  0.00     0.130 C
HETATM   13  O3  UNL     1      -7.751 -15.955   0.271  1.00  0.00    -0.298 OA
HETATM   14  C24 UNL     1      -6.973 -17.315   2.058  1.00  0.00     0.079 C
HETATM   15  C25 UNL     1      -6.350 -16.826   3.352  1.00  0.00     0.021 C
HETATM   16  C26 UNL     1      -7.239 -15.890   4.124  1.00  0.00    -0.016 C
HETATM   17  C27 UNL     1      -6.820 -14.465   3.680  1.00  0.00     0.020 C
HETATM   18  C28 UNL     1      -7.061 -15.975   5.625  1.00  0.00     0.003 C
HETATM   19  C29 UNL     1      -5.639 -16.199   6.016  1.00  0.00     0.007 C
HETATM   20  C30 UNL     1      -5.340 -17.296   6.956  1.00  0.00     0.015 C
HETATM   21  C31 UNL     1      -6.434 -18.047   7.593  1.00  0.00    -0.013 C
HETATM   22  C32 UNL     1      -6.696 -19.304   6.790  1.00  0.00     0.021 C
ENDROOT
BRANCH   1  23
HETATM   23  C10 UNL     1      -3.866 -19.047   9.228  1.00  0.00     0.033 C
BRANCH  23  24
HETATM   24  C9  UNL     1      -2.905 -18.250  10.120  1.00  0.00     0.054 C
BRANCH  24  25
HETATM   25  C8  UNL     1      -3.074 -16.788   9.741  1.00  0.00     0.008 C
HETATM   26  C7  UNL     1      -2.351 -16.266   8.812  1.00  0.00    -0.003 C
HETATM   27 CL1  UNL     1      -4.280 -15.926  10.640  1.00  0.00    -0.089 Cl
BRANCH  26  28
HETATM   28  C6  UNL     1      -2.298 -14.919   8.253  1.00  0.00     0.011 C
BRANCH  28  29
HETATM   29  C5  UNL     1      -1.123 -14.135   8.856  1.00  0.00     0.009 C
BRANCH  29  30
HETATM   30  C4  UNL     1      -1.481 -13.682  10.229  1.00  0.00     0.006 C
BRANCH  30  31
HETATM   31  C3  UNL     1      -0.874 -12.305  10.537  1.00  0.00     0.073 C
BRANCH  31  32
HETATM   32  C2  UNL     1      -1.953 -11.510  11.243  1.00  0.00     0.199 C
HETATM   33  C1  UNL     1      -3.276 -12.227  11.067  1.00  0.00     0.084 C
HETATM   34  F1  UNL     1      -1.669 -11.458  12.583  1.00  0.00    -0.212 F
BRANCH  32  35
HETATM   35  O1  UNL     1      -2.002 -10.215  10.750  1.00  0.00    -0.362 OA
ATOM     36  H1  UNL     1      -2.894  -9.892  10.697  1.00  0.00     0.213 HD
ENDBRANCH  32  35
ENDBRANCH  31  32
ENDBRANCH  30  31
ENDBRANCH  29  30
ENDBRANCH  28  29
BRANCH  28  37
HETATM   37  C33 UNL     1      -2.237 -14.852   6.748  1.00  0.00     0.034 C
BRANCH  37  38
HETATM   38  C34 UNL     1      -1.894 -16.226   6.180  1.00  0.00     0.164 C
BRANCH  38  39
HETATM   39  O4  UNL     1      -0.578 -16.332   5.782  1.00  0.00    -0.401 OA
ATOM     40  H4  UNL     1      -0.038 -16.805   6.404  1.00  0.00     0.209 HD
ENDBRANCH  38  39
ENDBRANCH  37  38
ENDBRANCH  28  37
ENDBRANCH  26  28
ENDBRANCH  24  25
ENDBRANCH  23  24
ENDBRANCH   1  23
BRANCH   4  41
HETATM   41  C15 UNL     1      -9.764 -17.155   9.097  1.00  0.00     0.169 C
BRANCH  41  42
HETATM   42  O2  UNL     1     -10.091 -17.716  10.356  1.00  0.00    -0.400 OA
ATOM     43  H2  UNL     1     -10.972 -17.466  10.608  1.00  0.00     0.209 HD
ENDBRANCH  41  42
ENDBRANCH   4  41
TORSDOF 14
ENDMDL