MODEL 1
REMARK VINA RESULT: -6.872003879      0.000      0.000
REMARK  14 active torsions:
REMARK  status: ('A' for Active; 'I' for Inactive)
REMARK    1  A    between atoms: C2_2  and  C3_3
REMARK    2  A    between atoms: C3_3  and  C4_4
REMARK    3  A    between atoms: C4_4  and  O1_5
REMARK    4  A    between atoms: O1_5  and  C5_6
REMARK    5  A    between atoms: C5_6  and  C6_7
REMARK    6  A    between atoms: C6_7  and  C7_8
REMARK    7  A    between atoms: C7_8  and  C8_9
REMARK    8  A    between atoms: C8_9  and  N1_10
REMARK       I    between atoms: N1_10  and  C9_11
REMARK    9  A    between atoms: C9_11  and  O3_13
REMARK   10  A    between atoms: O3_13  and  C10_14
REMARK   11  A    between atoms: C13_17  and  N2_18
REMARK       I    between atoms: N2_18  and  C14_20
REMARK       I    between atoms: C14_20  and  N4_22
REMARK   12  A    between atoms: N4_22  and  C15_23
REMARK   13  A    between atoms: C15_23  and  C16_24
REMARK   14  A    between atoms: N5_31  and  C21_33
ROOT
HETATM    1  N1  UNL     1      -2.552 -12.847  11.168  1.00  0.00    -0.362 NA
HETATM    2  C9  UNL     1      -3.938 -12.665  11.085  1.00  0.00     0.444 C
HETATM    3  O2  UNL     1      -4.543 -11.726  10.561  1.00  0.00    -0.221 OA
ENDROOT
BRANCH   2   4
HETATM    4  O3  UNL     1      -4.778 -13.665  11.665  1.00  0.00    -0.250 OA
BRANCH   4   5
HETATM    5  C10 UNL     1      -5.633 -14.447  10.935  1.00  0.00     0.083 A
HETATM    6  C11 UNL     1      -5.527 -14.497   9.555  1.00  0.00     0.040 A
HETATM    7  C12 UNL     1      -6.366 -15.261   8.765  1.00  0.00     0.034 A
HETATM    8  C13 UNL     1      -7.367 -16.020   9.391  1.00  0.00     0.053 A
HETATM    9  C19 UNL     1      -7.506 -16.004  10.757  1.00  0.00     0.040 A
HETATM   10 BR1  UNL     1      -8.872 -17.038  11.643  1.00  0.00    -0.049 Br
HETATM   11  C20 UNL     1      -6.631 -15.215  11.492  1.00  0.00     0.058 A
BRANCH   8  12
HETATM   12  N2  UNL     1      -8.284 -16.795   8.589  1.00  0.00    -0.318 N
HETATM   13  C14 UNL     1      -7.737 -17.502   7.486  1.00  0.00     0.262 C
HETATM   14  N3  UNL     1      -7.054 -18.733   7.808  1.00  0.00    -0.049 NA
HETATM   15  N4  UNL     1      -7.808 -17.144   6.342  1.00  0.00    -0.415 NA
ATOM     16  H2  UNL     1      -9.280 -16.833   8.805  1.00  0.00     0.169 HD
BRANCH  15  17
HETATM   17  C15 UNL     1      -8.086 -16.438   5.237  1.00  0.00     0.264 C
BRANCH  17  18
HETATM   18  C16 UNL     1      -6.955 -16.453   4.200  1.00  0.00     0.123 C
HETATM   19  C17 UNL     1      -7.598 -16.737   2.849  1.00  0.00     0.054 C
HETATM   20  C18 UNL     1      -6.225 -15.162   4.111  1.00  0.00     0.054 C
HETATM   21  F1  UNL     1      -6.067 -17.468   4.522  1.00  0.00    -0.241 F
ENDBRANCH  17  18
ENDBRANCH  15  17
ENDBRANCH   8  12
ENDBRANCH   4   5
ENDBRANCH   2   4
BRANCH   1  22
HETATM   22  C8  UNL     1      -1.231 -13.019  11.246  1.00  0.00     0.162 C
BRANCH  22  23
HETATM   23  C7  UNL     1      -0.501 -13.500  10.023  1.00  0.00     0.067 C
BRANCH  23  24
HETATM   24  C6  UNL     1      -1.472 -13.968   8.980  1.00  0.00     0.090 C
BRANCH  24  25
HETATM   25  C5  UNL     1      -1.293 -15.443   8.788  1.00  0.00     0.114 C
HETATM   26  N5  UNL     1      -1.510 -16.096   7.729  1.00  0.00    -0.370 N
ATOM     27  H5  UNL     1      -1.334 -17.098   7.789  1.00  0.00     0.161 HD
BRANCH  25  28
HETATM   28  O1  UNL     1      -0.846 -16.188   9.871  1.00  0.00    -0.339 OA
BRANCH  28  29
HETATM   29  C4  UNL     1      -1.530 -17.215  10.505  1.00  0.00     0.177 C
BRANCH  29  30
HETATM   30  C3  UNL     1      -2.914 -16.801  10.898  1.00  0.00     0.026 C
BRANCH  30  31
HETATM   31  C2  UNL     1      -3.973 -17.805  10.509  1.00  0.00    -0.002 C
HETATM   32  C1  UNL     1      -4.622 -18.403  11.757  1.00  0.00     0.005 C
ENDBRANCH  30  31
ENDBRANCH  29  30
ENDBRANCH  28  29
ENDBRANCH  25  28
BRANCH  26  33
HETATM   33  C21 UNL     1      -1.968 -15.631   6.457  1.00  0.00     0.083 C
HETATM   34  C22 UNL     1      -1.417 -16.498   5.325  1.00  0.00     0.025 C
HETATM   35  C23 UNL     1      -2.390 -17.573   4.936  1.00  0.00     0.002 C
HETATM   36  C24 UNL     1      -3.166 -18.155   6.084  1.00  0.00     0.000 C
HETATM   37  C25 UNL     1      -3.857 -17.100   6.920  1.00  0.00     0.002 C
HETATM   38  C26 UNL     1      -3.495 -15.706   6.438  1.00  0.00     0.025 C
ENDBRANCH  26  33
ENDBRANCH  24  25
ENDBRANCH  23  24
ENDBRANCH  22  23
ENDBRANCH   1  22
TORSDOF 14
ENDMDL