MODEL 4
REMARK VINA RESULT: -7.136216705      4.104      8.001
REMARK  15 active torsions:
REMARK  status: ('A' for Active; 'I' for Inactive)
REMARK    1  A    between atoms: C4_4  and  N1_5
REMARK    2  A    between atoms: N1_5  and  C5_7
REMARK    3  A    between atoms: C5_7  and  C6_11
REMARK    4  A    between atoms: C6_11  and  C7_12
REMARK    5  A    between atoms: C14_21  and  N3_22
REMARK    6  A    between atoms: N3_22  and  C15_24
REMARK    7  A    between atoms: C22_32  and  O1_33
REMARK    8  A    between atoms: O1_33  and  C23_34
REMARK    9  A    between atoms: C23_34  and  C24_35
REMARK   10  A    between atoms: C24_35  and  C25_36
REMARK   11  A    between atoms: C25_36  and  C26_37
REMARK   12  A    between atoms: C26_37  and  C27_38
REMARK   13  A    between atoms: C27_38  and  C28_39
REMARK   14  A    between atoms: C28_39  and  C29_40
REMARK   15  A    between atoms: C29_40  and  N5_41
ROOT
HETATM    1  C1  UNL     1      -6.893 -15.762  11.768  1.00  0.00     0.068 C
HETATM    2  C2  UNL     1      -6.716 -16.154  10.322  1.00  0.00     0.007 A
HETATM    3  C3  UNL     1      -5.556 -16.709   9.864  1.00  0.00     0.055 A
HETATM    4  C4  UNL     1      -5.431 -17.058   8.518  1.00  0.00     0.050 A
HETATM    5  C13 UNL     1      -6.476 -16.850   7.631  1.00  0.00     0.045 A
HETATM    6  C14 UNL     1      -6.385 -17.143   6.283  1.00  0.00     0.067 A
HETATM    7  C20 UNL     1      -7.464 -16.851   5.463  1.00  0.00     0.105 A
HETATM    8  C21 UNL     1      -7.373 -17.097   4.054  1.00  0.00     0.104 C
HETATM    9  N4  UNL     1      -7.321 -17.268   2.895  1.00  0.00    -0.191 NA
HETATM   10  C22 UNL     1      -8.612 -16.285   5.965  1.00  0.00     0.093 A
HETATM   11  C30 UNL     1      -8.686 -16.008   7.303  1.00  0.00     0.069 A
HETATM   12  C31 UNL     1      -7.631 -16.280   8.154  1.00  0.00     0.050 A
HETATM   13  N6  UNL     1      -7.721 -15.952   9.465  1.00  0.00    -0.359 N
ATOM     14  H6  UNL     1      -8.587 -15.538   9.810  1.00  0.00     0.166 HD
ENDROOT
BRANCH   6  15
HETATM   15  N3  UNL     1      -5.258 -17.831   5.753  1.00  0.00    -0.383 N
ATOM     16  H3  UNL     1      -5.087 -18.800   6.019  1.00  0.00     0.160 HD
BRANCH  15  17
HETATM   17  C15 UNL     1      -4.363 -17.177   4.848  1.00  0.00     0.081 C
HETATM   18  C16 UNL     1      -2.941 -17.603   4.819  1.00  0.00     0.025 C
HETATM   19  C17 UNL     1      -2.149 -16.381   4.344  1.00  0.00     0.002 C
HETATM   20  C18 UNL     1      -3.069 -15.205   4.379  1.00  0.00     0.002 C
HETATM   21  C19 UNL     1      -4.291 -15.668   5.137  1.00  0.00     0.025 C
ENDBRANCH  15  17
ENDBRANCH   6  15
BRANCH  10  22
HETATM   22  O1  UNL     1      -9.696 -16.000   5.109  1.00  0.00    -0.349 OA
BRANCH  22  23
HETATM   23  C23 UNL     1     -11.007 -16.157   5.586  1.00  0.00     0.175 C
BRANCH  23  24
HETATM   24  C24 UNL     1     -12.017 -16.323   4.513  1.00  0.00     0.027 C
BRANCH  24  25
HETATM   25  C25 UNL     1     -11.905 -15.328   3.419  1.00  0.00     0.002 C
BRANCH  25  26
HETATM   26  C26 UNL     1     -11.602 -15.843   2.052  1.00  0.00     0.000 C
BRANCH  26  27
HETATM   27  C27 UNL     1     -10.193 -15.309   1.688  1.00  0.00     0.002 C
BRANCH  27  28
HETATM   28  C28 UNL     1      -9.805 -16.011   0.427  1.00  0.00     0.027 C
BRANCH  28  29
HETATM   29  C29 UNL     1      -8.434 -15.580  -0.062  1.00  0.00     0.229 C
BRANCH  29  30
HETATM   30  N5  UNL     1      -7.760 -14.743   0.892  1.00  0.00    -0.079 N
ATOM     31  H53 UNL     1      -8.065 -14.948   1.844  1.00  0.00     0.274 HD
ATOM     32  H52 UNL     1      -6.777 -14.999   0.979  1.00  0.00     0.274 HD
ATOM     33  H51 UNL     1      -7.867 -13.753   0.674  1.00  0.00     0.274 HD
ENDBRANCH  29  30
ENDBRANCH  28  29
ENDBRANCH  27  28
ENDBRANCH  26  27
ENDBRANCH  25  26
ENDBRANCH  24  25
ENDBRANCH  23  24
ENDBRANCH  22  23
ENDBRANCH  10  22
BRANCH   4  34
HETATM   34  N1  UNL     1      -4.330 -17.515   8.065  1.00  0.00    -0.345 N
ATOM     35  H1  UNL     1      -4.351 -18.231   7.338  1.00  0.00     0.167 HD
BRANCH  34  36
HETATM   36  C5  UNL     1      -3.084 -17.054   8.542  1.00  0.00     0.079 C
HETATM   37  N2  UNL     1      -2.539 -17.719   9.553  1.00  0.00    -0.389 N
ATOM     38  H22 UNL     1      -3.072 -18.520   9.892  1.00  0.00     0.157 HD
ATOM     39  H21 UNL     1      -1.639 -17.386   9.897  1.00  0.00     0.157 HD
BRANCH  36  40
HETATM   40  C6  UNL     1      -2.322 -15.906   8.057  1.00  0.00     0.114 C
BRANCH  40  41
HETATM   41  C7  UNL     1      -2.283 -14.723   8.917  1.00  0.00    -0.048 A
HETATM   42  C8  UNL     1      -1.075 -14.183   9.303  1.00  0.00     0.031 A
HETATM   43  C9  UNL     1      -0.951 -13.088  10.111  1.00  0.00     0.036 A
HETATM   44 CL1  UNL     1       0.621 -12.438  10.575  1.00  0.00    -0.084 Cl
HETATM   45  C10 UNL     1      -2.106 -12.471  10.577  1.00  0.00     0.047 A
HETATM   46  C11 UNL     1      -3.330 -12.974  10.219  1.00  0.00     0.036 A
HETATM   47 CL2  UNL     1      -4.764 -12.173  10.822  1.00  0.00    -0.084 Cl
HETATM   48  C12 UNL     1      -3.409 -14.099   9.390  1.00  0.00     0.031 A
ENDBRANCH  40  41
ENDBRANCH  36  40
ENDBRANCH  34  36
ENDBRANCH   4  34
TORSDOF 15
ENDMDL