MODEL 2
REMARK VINA RESULT: -7.375447496      4.268      6.620
REMARK  14 active torsions:
REMARK  status: ('A' for Active; 'I' for Inactive)
REMARK    1  A    between atoms: S1_2  and  C2_3
REMARK    2  A    between atoms: C2_3  and  C3_4
REMARK    3  A    between atoms: C3_4  and  C4_5
REMARK    4  A    between atoms: C4_5  and  O1_7
REMARK    5  A    between atoms: C4_5  and  N1_9
REMARK       I    between atoms: N1_9  and  C6_11
REMARK    6  A    between atoms: C6_11  and  C7_13
REMARK    7  A    between atoms: C7_13  and  C8_14
REMARK    8  A    between atoms: C8_14  and  C9_15
REMARK    9  A    between atoms: C9_15  and  C10_16
REMARK   10  A    between atoms: C10_16  and  C11_17
REMARK   11  A    between atoms: C11_17  and  C12_18
REMARK   12  A    between atoms: C12_18  and  C13_19
REMARK   13  A    between atoms: C13_19  and  C14_20
REMARK   14  A    between atoms: C15_21  and  O3_22
ROOT
HETATM    1  C14 UNL     1      -6.400 -16.868  10.606  1.00  0.00    -0.047 C
HETATM    2  C15 UNL     1      -5.405 -15.800  10.441  1.00  0.00     0.147 C
HETATM    3  C16 UNL     1      -5.568 -14.996   9.116  1.00  0.00     0.037 C
HETATM    4  C17 UNL     1      -6.935 -14.429   9.258  1.00  0.00     0.017 C
HETATM    5  C18 UNL     1      -7.992 -15.521   9.106  1.00  0.00    -0.009 C
HETATM    6  C19 UNL     1      -9.302 -14.802   9.408  1.00  0.00     0.021 C
HETATM    7  C20 UNL     1      -8.117 -15.910   7.675  1.00  0.00    -0.040 A
HETATM    8  C21 UNL     1      -7.499 -15.221   6.648  1.00  0.00     0.052 A
HETATM    9  C22 UNL     1      -7.675 -15.612   5.338  1.00  0.00     0.134 A
HETATM   10  F1  UNL     1      -7.068 -14.936   4.320  1.00  0.00    -0.205 F
HETATM   11  C23 UNL     1      -8.477 -16.698   5.077  1.00  0.00     0.050 A
HETATM   12 BR1  UNL     1      -8.732 -17.254   3.263  1.00  0.00    -0.048 Br
HETATM   13  C24 UNL     1      -9.093 -17.383   6.112  1.00  0.00     0.030 A
HETATM   14  C25 UNL     1      -8.920 -17.000   7.404  1.00  0.00    -0.050 A
HETATM   15  C26 UNL     1      -9.525 -17.714   8.538  1.00  0.00     0.040 C
HETATM   16  C27 UNL     1      -8.318 -17.956   9.467  1.00  0.00     0.015 C
HETATM   17  C28 UNL     1      -7.765 -16.662  10.008  1.00  0.00     0.030 C
ENDROOT
BRANCH   1  18
HETATM   18  C13 UNL     1      -5.880 -18.239  10.461  1.00  0.00     0.002 C
BRANCH  18  19
HETATM   19  C12 UNL     1      -4.646 -18.543   9.715  1.00  0.00    -0.026 C
BRANCH  19  20
HETATM   20  C11 UNL     1      -4.632 -19.111   8.363  1.00  0.00     0.027 C
BRANCH  20  21
HETATM   21  C10 UNL     1      -5.525 -18.405   7.361  1.00  0.00     0.004 C
BRANCH  21  22
HETATM   22  C9  UNL     1      -4.747 -18.125   6.106  1.00  0.00     0.001 C
BRANCH  22  23
HETATM   23  C8  UNL     1      -4.312 -16.699   6.058  1.00  0.00     0.009 C
BRANCH  23  24
HETATM   24  C7  UNL     1      -2.849 -16.632   5.626  1.00  0.00     0.103 C
BRANCH  24  25
HETATM   25  C6  UNL     1      -2.049 -16.029   6.698  1.00  0.00     0.219 C
HETATM   26  N1  UNL     1      -2.252 -16.358   8.075  1.00  0.00    -0.330 N
ATOM     27  H1  UNL     1      -2.974 -17.033   8.328  1.00  0.00     0.165 HD
HETATM   28  O2  UNL     1      -1.156 -15.197   6.410  1.00  0.00    -0.274 OA
BRANCH  26  29
HETATM   29  C4  UNL     1      -1.453 -15.752   9.115  1.00  0.00     0.130 C
HETATM   30  C5  UNL     1      -1.739 -16.376  10.470  1.00  0.00     0.070 C
BRANCH  29  31
HETATM   31  C3  UNL     1      -1.764 -14.293   9.218  1.00  0.00     0.071 C
BRANCH  31  32
HETATM   32  C2  UNL     1      -0.608 -13.471   9.739  1.00  0.00     0.078 C
BRANCH  32  33
HETATM   33  S1  UNL     1      -1.268 -12.374  11.026  1.00  0.00    -0.173 SA
HETATM   34  C1  UNL     1      -3.068 -12.285  10.983  1.00  0.00     0.089 C
ENDBRANCH  32  33
ENDBRANCH  31  32
ENDBRANCH  29  31
BRANCH  29  35
HETATM   35  O1  UNL     1      -0.100 -15.881   8.810  1.00  0.00    -0.371 OA
ATOM     36  H1  UNL     1       0.332 -16.271   9.561  1.00  0.00     0.212 HD
ENDBRANCH  29  35
ENDBRANCH  26  29
ENDBRANCH  24  25
ENDBRANCH  23  24
ENDBRANCH  22  23
ENDBRANCH  21  22
ENDBRANCH  20  21
ENDBRANCH  19  20
ENDBRANCH  18  19
ENDBRANCH   1  18
BRANCH   2  37
HETATM   37  O3  UNL     1      -5.522 -14.800  11.444  1.00  0.00    -0.391 OA
ATOM     38  H3  UNL     1      -6.240 -14.204  11.272  1.00  0.00     0.210 HD
ENDBRANCH   2  37
TORSDOF 14
ENDMDL