MODEL 3
REMARK VINA RESULT: -7.305320797      3.189      6.153
REMARK  13 active torsions:
REMARK  status: ('A' for Active; 'I' for Inactive)
REMARK    1  A    between atoms: C2_2  and  C4_4
REMARK    2  A    between atoms: C4_4  and  C5_6
REMARK    3  A    between atoms: C8_11  and  C9_12
REMARK    4  A    between atoms: C9_12  and  O2_13
REMARK    5  A    between atoms: C9_12  and  C10_15
REMARK    6  A    between atoms: C10_15  and  C11_16
REMARK    7  A    between atoms: C14_21  and  C15_22
REMARK    8  A    between atoms: C14_21  and  C27_34
REMARK    9  A    between atoms: C16_23  and  C17_24
REMARK   10  A    between atoms: C17_24  and  C18_25
REMARK   11  A    between atoms: C18_25  and  C19_26
REMARK   12  A    between atoms: C19_26  and  C20_27
REMARK   13  A    between atoms: C30_41  and  O3_42
ROOT
HETATM    1  C5  UNL     1      -5.881 -17.381   7.086  1.00  0.00    -0.016 C
HETATM    2  C6  UNL     1      -5.048 -16.875   8.150  1.00  0.00     0.062 C
HETATM    3  C7  UNL     1      -5.539 -17.864   9.254  1.00  0.00     0.116 C
HETATM    4  N1  UNL     1      -4.849 -17.721  10.487  1.00  0.00    -0.407 N
ATOM      5  H1  UNL     1      -5.340 -17.533  11.361  1.00  0.00     0.154 HD
HETATM    6  C8  UNL     1      -3.452 -17.853  10.437  1.00  0.00     0.107 C
HETATM    7  C13 UNL     1      -2.841 -17.641   9.085  1.00  0.00     0.048 C
HETATM    8  C14 UNL     1      -3.597 -16.644   8.217  1.00  0.00     0.032 C
HETATM    9  C30 UNL     1      -5.623 -19.191   8.626  1.00  0.00     0.153 C
HETATM   10  C31 UNL     1      -6.061 -18.872   7.212  1.00  0.00     0.008 C
HETATM   11  C32 UNL     1      -7.553 -19.292   7.156  1.00  0.00     0.022 C
HETATM   12  C33 UNL     1      -5.427 -19.759   6.223  1.00  0.00     0.022 C
ENDROOT
BRANCH   8  13
HETATM   13  C15 UNL     1      -3.400 -15.235   8.793  1.00  0.00    -0.014 C
HETATM   14  C16 UNL     1      -4.416 -14.493   9.466  1.00  0.00    -0.029 C
BRANCH  14  15
HETATM   15  C17 UNL     1      -5.092 -14.928  10.723  1.00  0.00     0.027 C
BRANCH  15  16
HETATM   16  C18 UNL     1      -6.525 -14.346  10.580  1.00  0.00     0.004 C
BRANCH  16  17
HETATM   17  C19 UNL     1      -7.565 -15.398  10.579  1.00  0.00     0.005 C
BRANCH  17  18
HETATM   18  C20 UNL     1      -8.270 -15.629   9.268  1.00  0.00    -0.011 C
HETATM   19  C21 UNL     1      -8.215 -14.319   8.504  1.00  0.00     0.005 C
HETATM   20  C22 UNL     1      -9.433 -14.032   7.697  1.00  0.00     0.000 C
HETATM   21  C23 UNL     1     -10.711 -14.077   8.481  1.00  0.00     0.000 C
HETATM   22  C24 UNL     1     -10.645 -15.004   9.659  1.00  0.00     0.004 C
HETATM   23  C25 UNL     1      -9.668 -16.149   9.395  1.00  0.00    -0.015 C
HETATM   24  C26 UNL     1     -10.111 -16.958   8.184  1.00  0.00     0.010 C
ENDBRANCH  17  18
ENDBRANCH  16  17
ENDBRANCH  15  16
ENDBRANCH  14  15
ENDBRANCH   8  13
BRANCH   8  25
HETATM   25  C27 UNL     1      -2.879 -16.663   6.907  1.00  0.00     0.039 A
HETATM   26  C28 UNL     1      -2.381 -15.610   6.166  1.00  0.00     0.115 A
HETATM   27  N2  UNL     1      -1.784 -16.027   5.042  1.00  0.00    -0.360 N
HETATM   28  C29 UNL     1      -1.880 -17.356   5.029  1.00  0.00     0.180 A
ATOM     29  H2  UNL     1      -1.341 -15.441   4.334  1.00  0.00     0.166 HD
HETATM   30  N3  UNL     1      -2.526 -17.721   6.132  1.00  0.00    -0.354 N
ATOM     31  H3  UNL     1      -2.734 -18.690   6.370  1.00  0.00     0.166 HD
ENDBRANCH   8  25
BRANCH   1  32
HETATM   32  C4  UNL     1      -5.993 -16.819   5.766  1.00  0.00     0.156 C
HETATM   33  O1  UNL     1      -5.289 -17.129   4.787  1.00  0.00    -0.293 OA
BRANCH  32  34
HETATM   34  C2  UNL     1      -7.024 -15.768   5.453  1.00  0.00     0.052 C
HETATM   35  C1  UNL     1      -6.634 -14.878   4.316  1.00  0.00     0.018 C
HETATM   36  C3  UNL     1      -8.341 -16.436   5.064  1.00  0.00     0.018 C
ENDBRANCH  32  34
ENDBRANCH   1  32
BRANCH   6  37
HETATM   37  C9  UNL     1      -2.971 -19.126  11.038  1.00  0.00     0.146 C
BRANCH  37  38
HETATM   38  O2  UNL     1      -4.062 -19.689  11.826  1.00  0.00    -0.393 OA
ATOM     39  H2  UNL     1      -3.774 -19.736  12.730  1.00  0.00     0.210 HD
ENDBRANCH  37  38
BRANCH  37  40
HETATM   40  C10 UNL     1      -2.606 -20.262  10.170  1.00  0.00     0.112 C
BRANCH  40  41
HETATM   41  C11 UNL     1      -1.534 -21.207  10.539  1.00  0.00     0.242 C
HETATM   42  C12 UNL     1      -0.898 -21.926   9.368  1.00  0.00     0.090 C
HETATM   43  F1  UNL     1      -1.868 -21.994  11.584  1.00  0.00    -0.207 F
HETATM   44  F2  UNL     1      -0.455 -20.361  11.016  1.00  0.00    -0.207 F
ENDBRANCH  40  41
ENDBRANCH  37  40
ENDBRANCH   6  37
BRANCH   9  45
HETATM   45  O3  UNL     1      -6.634 -19.906   9.315  1.00  0.00    -0.392 OA
ATOM     46  H3  UNL     1      -7.260 -20.194   8.661  1.00  0.00     0.210 HD
ENDBRANCH   9  45
TORSDOF 13
ENDMDL