MODEL 3
REMARK VINA RESULT: -7.854842500      2.348      5.358
REMARK  13 active torsions:
REMARK  status: ('A' for Active; 'I' for Inactive)
REMARK    1  A    between atoms: N1_1  and  C1_5
REMARK    2  A    between atoms: C1_5  and  C2_6
REMARK    3  A    between atoms: C2_6  and  C3_7
REMARK    4  A    between atoms: C3_7  and  C4_8
REMARK    5  A    between atoms: C4_8  and  C5_9
REMARK    6  A    between atoms: C5_9  and  C6_10
REMARK    7  A    between atoms: C6_10  and  N2_11
REMARK       I    between atoms: N2_11  and  C7_13
REMARK       I    between atoms: C7_13  and  N6_41
REMARK       I    between atoms: N3_14  and  C8_16
REMARK    8  A    between atoms: C8_16  and  C9_18
REMARK    9  A    between atoms: C9_18  and  S1_19
REMARK   10  A    between atoms: S1_19  and  C10_20
REMARK   11  A    between atoms: C18_32  and  N5_33
REMARK   12  A    between atoms: N5_33  and  C19_35
REMARK   13  A    between atoms: N6_41  and  C25_43
ROOT
HETATM    1  N2  UNL     1      -4.109 -18.022   7.278  1.00  0.00    -0.226 N
ATOM      2  H2  UNL     1      -3.621 -17.364   7.885  1.00  0.00     0.177 HD
HETATM    3  C7  UNL     1      -5.480 -18.251   7.555  1.00  0.00     0.676 C
HETATM    4  N3  UNL     1      -5.790 -19.294   8.232  1.00  0.00    -0.159 N
ATOM      5  H3  UNL     1      -5.022 -19.896   8.529  1.00  0.00     0.187 HD
HETATM    6  C8  UNL     1      -7.082 -19.685   8.603  1.00  0.00     0.245 C
HETATM    7  O1  UNL     1      -7.594 -20.664   7.960  1.00  0.00    -0.272 OA
HETATM    8  N6  UNL     1      -6.425 -17.320   7.075  1.00  0.00    -0.222 N
ATOM      9  H6  UNL     1      -6.982 -16.810   7.761  1.00  0.00     0.178 HD
ENDROOT
BRANCH   6  10
HETATM   10  C9  UNL     1      -7.897 -19.076   9.658  1.00  0.00     0.184 C
BRANCH  10  11
HETATM   11  S1  UNL     1      -6.992 -18.732  11.175  1.00  0.00    -0.101 SA
BRANCH  11  12
HETATM   12  C10 UNL     1      -5.998 -17.263  10.997  1.00  0.00     0.098 A
HETATM   13  N4  UNL     1      -4.657 -17.277  11.144  1.00  0.00    -0.348 N
HETATM   14  C11 UNL     1      -4.153 -16.046  10.968  1.00  0.00     0.045 A
ATOM     15  H4  UNL     1      -4.104 -18.107  11.358  1.00  0.00     0.166 HD
HETATM   16  C12 UNL     1      -2.822 -15.703  11.047  1.00  0.00     0.033 C
HETATM   17  C17 UNL     1      -5.309 -15.207  10.688  1.00  0.00     0.023 A
HETATM   18  C13 UNL     1      -2.249 -14.452  10.952  1.00  0.00     0.048 C
HETATM   19  C14 UNL     1      -2.869 -13.256  10.575  1.00  0.00     0.154 C
HETATM   20  F1  UNL     1      -2.052 -12.196  10.409  1.00  0.00    -0.203 F
HETATM   21  C15 UNL     1      -4.214 -13.022  10.351  1.00  0.00     0.155 C
HETATM   22  F2  UNL     1      -4.509 -11.748   9.983  1.00  0.00    -0.203 F
HETATM   23  C16 UNL     1      -5.318 -13.864  10.438  1.00  0.00     0.061 C
HETATM   24  C18 UNL     1      -6.466 -16.004  10.713  1.00  0.00     0.075 A
BRANCH  24  25
HETATM   25  N5  UNL     1      -7.793 -15.559  10.482  1.00  0.00    -0.382 N
ATOM     26  H5  UNL     1      -8.321 -15.132  11.242  1.00  0.00     0.160 HD
BRANCH  25  27
HETATM   27  C19 UNL     1      -8.401 -15.705   9.186  1.00  0.00     0.082 C
HETATM   28  C20 UNL     1      -8.147 -14.532   8.272  1.00  0.00     0.025 C
HETATM   29  C21 UNL     1      -9.422 -13.850   7.853  1.00  0.00     0.002 C
HETATM   30  C22 UNL     1     -10.472 -14.731   7.291  1.00  0.00     0.000 C
HETATM   31  C23 UNL     1     -10.357 -16.129   7.839  1.00  0.00     0.002 C
HETATM   32  C24 UNL     1      -9.886 -15.991   9.295  1.00  0.00     0.025 C
ENDBRANCH  25  27
ENDBRANCH  24  25
ENDBRANCH  11  12
ENDBRANCH  10  11
ENDBRANCH   6  10
BRANCH   1  33
HETATM   33  C6  UNL     1      -3.345 -18.621   6.233  1.00  0.00     0.138 C
BRANCH  33  34
HETATM   34  C5  UNL     1      -3.151 -17.845   5.002  1.00  0.00     0.020 C
BRANCH  34  35
HETATM   35  C4  UNL     1      -1.843 -17.228   4.737  1.00  0.00     0.002 C
BRANCH  35  36
HETATM   36  C3  UNL     1      -1.417 -15.977   5.386  1.00  0.00     0.002 C
BRANCH  36  37
HETATM   37  C2  UNL     1      -2.457 -15.043   5.900  1.00  0.00     0.027 C
BRANCH  37  38
HETATM   38  C1  UNL     1      -2.158 -14.837   7.405  1.00  0.00     0.229 C
BRANCH  38  39
HETATM   39  N1  UNL     1      -1.355 -15.962   7.846  1.00  0.00    -0.079 N
ATOM     40  H13 UNL     1      -1.673 -16.853   7.465  1.00  0.00     0.274 HD
ATOM     41  H12 UNL     1      -0.421 -15.969   7.437  1.00  0.00     0.274 HD
ATOM     42  H11 UNL     1      -1.342 -15.947   8.866  1.00  0.00     0.274 HD
ENDBRANCH  38  39
ENDBRANCH  37  38
ENDBRANCH  36  37
ENDBRANCH  35  36
ENDBRANCH  34  35
ENDBRANCH  33  34
ENDBRANCH   1  33
BRANCH   8  43
HETATM   43  C25 UNL     1      -6.657 -17.039   5.677  1.00  0.00     0.099 C
HETATM   44  C26 UNL     1      -8.066 -17.294   5.238  1.00  0.00     0.026 C
HETATM   45  C27 UNL     1      -8.626 -16.233   4.338  1.00  0.00     0.002 C
HETATM   46  C28 UNL     1      -7.553 -15.916   3.308  1.00  0.00     0.000 C
HETATM   47  C29 UNL     1      -6.487 -15.137   4.035  1.00  0.00     0.002 C
HETATM   48  C30 UNL     1      -6.129 -15.696   5.360  1.00  0.00     0.026 C
ENDBRANCH   8  43
TORSDOF 13
ENDMDL