MODEL 2
REMARK VINA RESULT: -7.833079706      1.676      2.993
REMARK  16 active torsions:
REMARK  status: ('A' for Active; 'I' for Inactive)
REMARK    1  A    between atoms: C2_2  and  C3_3
REMARK    2  A    between atoms: C3_3  and  C4_4
REMARK    3  A    between atoms: C4_4  and  O1_5
REMARK    4  A    between atoms: O1_5  and  C5_6
REMARK    5  A    between atoms: C5_6  and  C6_7
REMARK    6  A    between atoms: C7_8  and  C8_9
REMARK    7  A    between atoms: C8_9  and  C9_10
REMARK    8  A    between atoms: C10_11  and  O2_12
REMARK    9  A    between atoms: C12_15  and  O3_16
REMARK   10  A    between atoms: C13_18  and  C14_19
REMARK   11  A    between atoms: C15_20  and  C16_21
REMARK   12  A    between atoms: C16_21  and  O4_23
REMARK   13  A    between atoms: C16_21  and  C18_25
REMARK   14  A    between atoms: C21_28  and  C22_29
REMARK   15  A    between atoms: C23_30  and  C24_31
REMARK   16  A    between atoms: C32_41  and  O5_42
ROOT
HETATM    1  C16 UNL     1      -6.719 -15.883   5.319  1.00  0.00     0.102 C
HETATM    2  C17 UNL     1      -6.716 -15.238   3.967  1.00  0.00     0.056 C
ENDROOT
BRANCH   1   3
HETATM    3  C15 UNL     1      -5.440 -15.537   5.998  1.00  0.00     0.012 C
HETATM    4  C14 UNL     1      -4.684 -16.451   6.589  1.00  0.00    -0.020 C
BRANCH   4   5
HETATM    5  C13 UNL     1      -3.418 -16.190   7.275  1.00  0.00     0.043 C
HETATM    6  C9  UNL     1      -3.602 -15.841   8.759  1.00  0.00     0.028 C
HETATM    7  C10 UNL     1      -2.179 -15.527   9.119  1.00  0.00     0.125 C
HETATM    8  C11 UNL     1      -1.654 -14.745   7.901  1.00  0.00     0.064 C
HETATM    9  C12 UNL     1      -2.634 -15.025   6.775  1.00  0.00     0.128 C
BRANCH   6  10
HETATM   10  C8  UNL     1      -4.466 -14.629   8.955  1.00  0.00     0.035 C
BRANCH  10  11
HETATM   11  C7  UNL     1      -4.188 -14.006  10.250  1.00  0.00    -0.028 C
HETATM   12  C6  UNL     1      -4.998 -14.006  11.259  1.00  0.00    -0.005 C
BRANCH  12  13
HETATM   13  C5  UNL     1      -6.324 -14.640  11.246  1.00  0.00     0.194 C
BRANCH  13  14
HETATM   14  O1  UNL     1      -6.382 -15.766  12.072  1.00  0.00    -0.387 OA
BRANCH  14  15
HETATM   15  C4  UNL     1      -6.306 -16.955  11.389  1.00  0.00     0.168 C
BRANCH  15  16
HETATM   16  C3  UNL     1      -7.314 -17.055  10.289  1.00  0.00     0.026 C
BRANCH  16  17
HETATM   17  C2  UNL     1      -6.775 -17.890   9.141  1.00  0.00    -0.002 C
HETATM   18  C1  UNL     1      -7.973 -18.405   8.347  1.00  0.00     0.005 C
ENDBRANCH  16  17
ENDBRANCH  15  16
ENDBRANCH  14  15
ENDBRANCH  13  14
ENDBRANCH  12  13
ENDBRANCH  10  11
ENDBRANCH   6  10
BRANCH   7  19
HETATM   19  O2  UNL     1      -1.451 -16.727   9.239  1.00  0.00    -0.395 OA
ATOM     20  H2  UNL     1      -1.024 -16.753  10.087  1.00  0.00     0.210 HD
ENDBRANCH   7  19
BRANCH   9  21
HETATM   21  O3  UNL     1      -1.956 -15.305   5.583  1.00  0.00    -0.395 OA
ATOM     22  H3  UNL     1      -2.524 -15.177   4.832  1.00  0.00     0.210 HD
ENDBRANCH   9  21
ENDBRANCH   4   5
ENDBRANCH   1   3
BRANCH   1  23
HETATM   23  O4  UNL     1      -6.754 -17.276   5.110  1.00  0.00    -0.381 OA
ATOM     24  H4  UNL     1      -7.421 -17.651   5.673  1.00  0.00     0.211 HD
ENDBRANCH   1  23
BRANCH   1  25
HETATM   25  C18 UNL     1      -7.859 -15.523   6.160  1.00  0.00     0.013 A
HETATM   26  C19 UNL     1      -7.668 -14.778   7.293  1.00  0.00     0.014 A
HETATM   27  C20 UNL     1      -8.729 -14.409   8.130  1.00  0.00     0.013 A
HETATM   28  C21 UNL     1     -10.015 -14.790   7.833  1.00  0.00    -0.028 A
HETATM   29  C30 UNL     1     -10.228 -15.549   6.682  1.00  0.00    -0.018 A
HETATM   30  C31 UNL     1     -11.624 -15.942   6.383  1.00  0.00     0.052 C
HETATM   31  C32 UNL     1      -9.164 -15.910   5.859  1.00  0.00     0.082 A
BRANCH  28  32
HETATM   32  C22 UNL     1     -11.179 -14.442   8.667  1.00  0.00     0.013 C
HETATM   33  C23 UNL     1     -11.087 -13.853   9.812  1.00  0.00     0.012 C
BRANCH  33  34
HETATM   34  C24 UNL     1     -12.248 -13.517  10.622  1.00  0.00    -0.035 A
HETATM   35  C25 UNL     1     -13.176 -14.426  11.078  1.00  0.00     0.013 A
HETATM   36  C26 UNL     1     -14.276 -14.059  11.851  1.00  0.00     0.026 A
HETATM   37  C27 UNL     1     -14.477 -12.748  12.195  1.00  0.00     0.055 A
HETATM   38 CL1  UNL     1     -15.859 -12.246  13.173  1.00  0.00    -0.083 Cl
HETATM   39  C28 UNL     1     -13.561 -11.827  11.748  1.00  0.00     0.056 A
HETATM   40 CL2  UNL     1     -13.823 -10.128  12.194  1.00  0.00    -0.083 Cl
HETATM   41  C29 UNL     1     -12.480 -12.181  10.989  1.00  0.00     0.037 A
ENDBRANCH  33  34
ENDBRANCH  28  32
BRANCH  31  42
HETATM   42  O5  UNL     1      -9.324 -16.647   4.731  1.00  0.00    -0.359 OA
ATOM     43  H5  UNL     1      -9.927 -16.297   4.085  1.00  0.00     0.217 HD
ENDBRANCH  31  42
ENDBRANCH   1  25
TORSDOF 16
ENDMDL