MODEL 4
REMARK VINA RESULT: -8.135123179      5.106      7.676
REMARK  12 active torsions:
REMARK  status: ('A' for Active; 'I' for Inactive)
REMARK       I    between atoms: C1_2  and  N1_3
REMARK       I    between atoms: C1_2  and  N6_39
REMARK    1  A    between atoms: N1_3  and  C2_5
REMARK    2  A    between atoms: C2_5  and  C3_6
REMARK    3  A    between atoms: C3_6  and  C4_7
REMARK    4  A    between atoms: C4_7  and  N2_8
REMARK    5  A    between atoms: N2_8  and  C5_9
REMARK    6  A    between atoms: N2_8  and  C18_25
REMARK    7  A    between atoms: C5_9  and  C6_10
REMARK    8  A    between atoms: C6_10  and  C7_11
REMARK    9  A    between atoms: C7_11  and  N3_12
REMARK   10  A    between atoms: N3_12  and  C8_15
REMARK   11  A    between atoms: C18_25  and  C19_26
REMARK   12  A    between atoms: N6_39  and  C26_41
ROOT
HETATM    1  N2  UNL     1      -7.005 -18.074   9.561  1.00  0.00    -0.347 N
ENDROOT
BRANCH   1   2
HETATM    2  C4  UNL     1      -7.008 -17.187  10.642  1.00  0.00     0.070 C
BRANCH   2   3
HETATM    3  C3  UNL     1      -7.030 -15.721  10.271  1.00  0.00     0.065 C
BRANCH   3   4
HETATM    4  C2  UNL     1      -6.392 -14.981  11.426  1.00  0.00     0.129 C
BRANCH   4   5
HETATM    5  N1  UNL     1      -5.548 -13.899  10.930  1.00  0.00    -0.343 N
HETATM    6  C1  UNL     1      -4.132 -13.987  10.941  1.00  0.00     0.322 C
HETATM    7  O1  UNL     1      -3.632 -15.053  11.398  1.00  0.00    -0.247 OA
HETATM    8  N6  UNL     1      -3.371 -12.902  10.449  1.00  0.00    -0.289 N
ATOM      9  H6  UNL     1      -3.874 -12.087  10.100  1.00  0.00     0.172 HD
ATOM     10  H1  UNL     1      -5.989 -13.054  10.566  1.00  0.00     0.164 HD
BRANCH   8  11
HETATM   11  C26 UNL     1      -1.954 -12.874  10.411  1.00  0.00     0.150 A
HETATM   12  C27 UNL     1      -1.071 -12.115  11.127  1.00  0.00     0.058 A
HETATM   13  C28 UNL     1       0.195 -12.483  10.701  1.00  0.00     0.029 A
HETATM   14  C29 UNL     1       0.027 -13.441   9.754  1.00  0.00     0.144 A
HETATM   15  O2  UNL     1      -1.237 -13.641   9.614  1.00  0.00    -0.306 OA
ENDBRANCH   8  11
ENDBRANCH   4   5
ENDBRANCH   3   4
ENDBRANCH   2   3
ENDBRANCH   1   2
BRANCH   1  16
HETATM   16  C5  UNL     1      -5.873 -18.816   9.238  1.00  0.00     0.070 C
BRANCH  16  17
HETATM   17  C6  UNL     1      -4.650 -18.414  10.009  1.00  0.00     0.072 C
BRANCH  17  18
HETATM   18  C7  UNL     1      -3.565 -17.848   9.123  1.00  0.00     0.238 C
BRANCH  18  19
HETATM   19  N3  UNL     1      -3.855 -16.584   8.571  1.00  0.00    -0.066 N
ATOM     20  H32 UNL     1      -4.833 -16.330   8.716  1.00  0.00     0.278 HD
ATOM     21  H31 UNL     1      -3.415 -15.835   9.105  1.00  0.00     0.278 HD
BRANCH  19  22
HETATM   22  C8  UNL     1      -3.495 -16.517   7.173  1.00  0.00     0.127 C
HETATM   23  C9  UNL     1      -2.348 -15.593   6.932  1.00  0.00     0.043 C
HETATM   24  C10 UNL     1      -2.009 -15.542   5.456  1.00  0.00    -0.012 C
HETATM   25  C11 UNL     1      -1.707 -16.943   4.975  1.00  0.00     0.009 C
HETATM   26  C15 UNL     1      -3.147 -14.908   4.723  1.00  0.00     0.009 C
HETATM   27  C12 UNL     1      -2.968 -17.748   5.114  1.00  0.00    -0.012 C
HETATM   28  C13 UNL     1      -4.074 -17.119   4.310  1.00  0.00     0.009 C
HETATM   29  C17 UNL     1      -3.303 -17.891   6.569  1.00  0.00     0.043 C
HETATM   30  C14 UNL     1      -4.374 -15.783   4.965  1.00  0.00    -0.012 C
HETATM   31  C16 UNL     1      -4.691 -15.906   6.420  1.00  0.00     0.043 C
ENDBRANCH  19  22
ENDBRANCH  18  19
ENDBRANCH  17  18
ENDBRANCH  16  17
ENDBRANCH   1  16
BRANCH   1  32
HETATM   32  C18 UNL     1      -8.235 -18.264   8.932  1.00  0.00     0.143 C
BRANCH  32  33
HETATM   33  C19 UNL     1      -8.124 -17.825   7.503  1.00  0.00     0.122 A
HETATM   34  N4  UNL     1      -8.287 -16.597   6.981  1.00  0.00    -0.339 N
HETATM   35  C20 UNL     1      -8.092 -16.636   5.647  1.00  0.00     0.062 A
ATOM     36  H4  UNL     1      -8.524 -15.760   7.514  1.00  0.00     0.167 HD
HETATM   37  C21 UNL     1      -8.126 -15.703   4.632  1.00  0.00     0.057 A
HETATM   38  C25 UNL     1      -7.795 -17.939   5.311  1.00  0.00     0.062 A
HETATM   39  C22 UNL     1      -7.870 -16.051   3.301  1.00  0.00     0.058 A
HETATM   40 CL1  UNL     1      -7.917 -14.848   2.029  1.00  0.00    -0.082 Cl
HETATM   41  C23 UNL     1      -7.574 -17.355   2.975  1.00  0.00     0.058 A
HETATM   42 CL2  UNL     1      -7.258 -17.762   1.302  1.00  0.00    -0.082 Cl
HETATM   43  C24 UNL     1      -7.538 -18.291   3.983  1.00  0.00     0.057 A
HETATM   44  N5  UNL     1      -7.823 -18.636   6.461  1.00  0.00    -0.339 N
ATOM     45  H5  UNL     1      -7.642 -19.637   6.538  1.00  0.00     0.167 HD
ENDBRANCH  32  33
ENDBRANCH   1  32
TORSDOF 12
ENDMDL