MODEL 3
REMARK VINA RESULT: -6.584187597      1.390      1.838
REMARK  13 active torsions:
REMARK  status: ('A' for Active; 'I' for Inactive)
REMARK    1  A    between atoms: O1_2  and  C2_3
REMARK    2  A    between atoms: C12_13  and  C13_14
REMARK    3  A    between atoms: C13_14  and  C14_15
REMARK       I    between atoms: C14_15  and  N1_17
REMARK    4  A    between atoms: N1_17  and  C15_19
REMARK    5  A    between atoms: C15_19  and  C16_20
REMARK    6  A    between atoms: C16_20  and  N2_21
REMARK    7  A    between atoms: N2_21  and  C17_23
REMARK    8  A    between atoms: C17_23  and  C18_24
REMARK    9  A    between atoms: C18_24  and  N3_25
REMARK   10  A    between atoms: N3_25  and  C19_27
REMARK   11  A    between atoms: C19_27  and  C20_28
REMARK   12  A    between atoms: C20_28  and  C21_29
REMARK   13  A    between atoms: C21_29  and  N4_30
ROOT
HETATM    1  C2  UNL     1      -1.667 -16.112  10.318  1.00  0.00     0.069 A
HETATM    2  C3  UNL     1      -1.945 -16.530   9.047  1.00  0.00     0.044 A
HETATM    3  C4  UNL     1      -2.950 -15.955   8.232  1.00  0.00    -0.055 A
HETATM    4  C5  UNL     1      -3.705 -14.914   8.718  1.00  0.00     0.014 A
HETATM    5  C6  UNL     1      -3.463 -14.461   9.988  1.00  0.00    -0.055 A
HETATM    6  C7  UNL     1      -2.445 -15.076  10.754  1.00  0.00     0.044 A
HETATM    7  C8  UNL     1      -4.109 -13.369  10.753  1.00  0.00     0.038 C
HETATM    8  C9  UNL     1      -5.562 -13.477  11.061  1.00  0.00     0.005 C
HETATM    9  C10 UNL     1      -6.051 -14.866  11.367  1.00  0.00     0.001 C
HETATM   10  C11 UNL     1      -6.791 -15.518  10.253  1.00  0.00     0.005 C
HETATM   11  C12 UNL     1      -8.268 -15.751  10.539  1.00  0.00    -0.006 C
HETATM   12  C22 UNL     1      -8.845 -16.340   9.254  1.00  0.00     0.005 C
HETATM   13  C23 UNL     1      -9.626 -15.295   8.504  1.00  0.00     0.000 C
HETATM   14  C24 UNL     1      -9.039 -15.013   7.138  1.00  0.00     0.000 C
HETATM   15  C25 UNL     1      -9.132 -16.224   6.233  1.00  0.00     0.000 C
HETATM   16  C26 UNL     1      -8.383 -15.899   4.959  1.00  0.00     0.000 C
HETATM   17  C27 UNL     1      -6.935 -15.726   5.320  1.00  0.00     0.000 C
HETATM   18  C28 UNL     1      -6.008 -16.265   4.263  1.00  0.00     0.004 C
HETATM   19  C29 UNL     1      -4.691 -15.493   4.349  1.00  0.00     0.027 C
HETATM   20  C30 UNL     1      -3.581 -16.289   3.820  1.00  0.00    -0.031 C
HETATM   21  C31 UNL     1      -2.462 -16.447   4.494  1.00  0.00    -0.030 C
HETATM   22  C32 UNL     1      -2.298 -15.816   5.817  1.00  0.00     0.031 C
HETATM   23  C33 UNL     1      -2.994 -16.645   6.909  1.00  0.00     0.042 C
ENDROOT
BRANCH  11  24
HETATM   24  C13 UNL     1      -8.481 -16.649  11.706  1.00  0.00     0.107 C
BRANCH  24  25
HETATM   25  C14 UNL     1      -8.215 -18.073  11.298  1.00  0.00     0.221 C
HETATM   26  O2  UNL     1      -7.058 -18.524  11.421  1.00  0.00    -0.273 OA
HETATM   27  N1  UNL     1      -9.248 -18.894  10.786  1.00  0.00    -0.336 N
ATOM     28  H1  UNL     1     -10.164 -18.448  10.738  1.00  0.00     0.168 HD
BRANCH  27  29
HETATM   29  C15 UNL     1      -9.215 -20.219  10.336  1.00  0.00     0.107 C
BRANCH  29  30
HETATM   30  C16 UNL     1      -8.710 -20.569   8.977  1.00  0.00     0.100 C
BRANCH  30  31
HETATM   31  N2  UNL     1      -7.319 -20.481   8.786  1.00  0.00    -0.393 N
ATOM     32  H2  UNL     1      -6.704 -21.222   9.123  1.00  0.00     0.159 HD
BRANCH  31  33
HETATM   33  C17 UNL     1      -6.778 -19.345   8.117  1.00  0.00     0.163 C
BRANCH  33  34
HETATM   34  C18 UNL     1      -5.429 -18.873   8.468  1.00  0.00     0.074 C
BRANCH  34  35
HETATM   35  N3  UNL     1      -4.695 -19.511   9.478  1.00  0.00    -0.401 N
ATOM     36  H3  UNL     1      -5.104 -19.669  10.399  1.00  0.00     0.158 HD
BRANCH  35  37
HETATM   37  C19 UNL     1      -3.372 -19.933   9.191  1.00  0.00     0.120 C
BRANCH  37  38
HETATM   38  C20 UNL     1      -3.352 -20.379   7.723  1.00  0.00     0.039 C
BRANCH  38  39
HETATM   39  C21 UNL     1      -3.372 -21.890   7.728  1.00  0.00     0.166 C
BRANCH  39  40
HETATM   40  N4  UNL     1      -4.768 -22.336   7.723  1.00  0.00     0.017 NA
HETATM   41  F1  UNL     1      -5.349 -21.897   6.570  1.00  0.00    -0.101 F
HETATM   42  F2  UNL     1      -4.818 -23.690   7.672  1.00  0.00    -0.101 F
ENDBRANCH  39  40
ENDBRANCH  38  39
ENDBRANCH  37  38
ENDBRANCH  35  37
ENDBRANCH  34  35
ENDBRANCH  33  34
ENDBRANCH  31  33
ENDBRANCH  30  31
ENDBRANCH  29  30
ENDBRANCH  27  29
ENDBRANCH  24  25
ENDBRANCH  11  24
BRANCH   1  43
HETATM   43  O1  UNL     1      -0.677 -16.692  11.098  1.00  0.00    -0.356 OA
HETATM   44  C1  UNL     1      -0.592 -18.105  11.098  1.00  0.00     0.210 C
ENDBRANCH   1  43
TORSDOF 13
ENDMDL