MODEL 3
REMARK VINA RESULT: -7.544400932      2.553      4.119
REMARK  16 active torsions:
REMARK  status: ('A' for Active; 'I' for Inactive)
REMARK    1  A    between atoms: C2_2  and  C3_3
REMARK    2  A    between atoms: C2_2  and  C18_19
REMARK    3  A    between atoms: C3_3  and  C4_4
REMARK    4  A    between atoms: C4_4  and  C5_5
REMARK    5  A    between atoms: C18_19  and  C19_20
REMARK    6  A    between atoms: C19_20  and  O2_21
REMARK    7  A    between atoms: C19_20  and  C20_23
REMARK    8  A    between atoms: C20_23  and  C21_24
REMARK    9  A    between atoms: C21_24  and  C22_25
REMARK   10  A    between atoms: C21_24  and  C30_35
REMARK   11  A    between atoms: C22_25  and  C23_26
REMARK   12  A    between atoms: C23_26  and  C24_27
REMARK   13  A    between atoms: C30_35  and  C31_36
REMARK   14  A    between atoms: C31_36  and  O3_37
REMARK   15  A    between atoms: C31_36  and  C32_39
REMARK   16  A    between atoms: C32_39  and  O4_40
ROOT
HETATM    1  C19 UNL     1      -3.905 -18.260   5.826  1.00  0.00     0.118 C
ENDROOT
BRANCH   1   2
HETATM    2  C18 UNL     1      -4.095 -16.820   5.945  1.00  0.00     0.035 C
BRANCH   2   3
HETATM    3  C2  UNL     1      -3.015 -15.890   5.557  1.00  0.00    -0.016 C
HETATM    4  C1  UNL     1      -3.257 -14.995   4.400  1.00  0.00     0.010 C
BRANCH   3   5
HETATM    5  C3  UNL     1      -2.472 -15.072   6.717  1.00  0.00     0.005 C
BRANCH   5   6
HETATM    6  C4  UNL     1      -3.464 -15.196   7.850  1.00  0.00     0.011 C
BRANCH   6   7
HETATM    7  C5  UNL     1      -2.887 -14.841   9.191  1.00  0.00    -0.028 C
HETATM    8  C6  UNL     1      -1.998 -13.665   9.218  1.00  0.00     0.027 C
HETATM    9  C7  UNL     1      -1.913 -13.037  10.602  1.00  0.00     0.018 C
HETATM   10  C8  UNL     1      -0.704 -12.150  10.753  1.00  0.00     0.023 C
HETATM   11  C9  UNL     1      -1.953 -14.138  11.613  1.00  0.00     0.022 C
HETATM   12  C14 UNL     1      -3.114 -12.137  10.711  1.00  0.00     0.135 C
HETATM   13  C10 UNL     1      -2.669 -15.368  11.176  1.00  0.00    -0.000 C
HETATM   14  C11 UNL     1      -3.861 -15.004  10.277  1.00  0.00    -0.000 C
HETATM   15  C15 UNL     1      -2.102 -15.968   9.884  1.00  0.00    -0.036 C
HETATM   16  C12 UNL     1      -4.699 -13.941  10.748  1.00  0.00     0.013 C
HETATM   17  C13 UNL     1      -4.481 -12.549  10.267  1.00  0.00     0.079 C
HETATM   18  C16 UNL     1      -0.633 -15.907   9.737  1.00  0.00     0.016 C
HETATM   19  C17 UNL     1      -2.647 -17.343   9.706  1.00  0.00     0.016 C
HETATM   20  O1  UNL     1      -2.968 -11.030  11.177  1.00  0.00    -0.297 OA
ENDBRANCH   6   7
ENDBRANCH   5   6
ENDBRANCH   3   5
ENDBRANCH   2   3
ENDBRANCH   1   2
BRANCH   1  21
HETATM   21  O2  UNL     1      -2.641 -18.743   6.184  1.00  0.00    -0.396 OA
ATOM     22  H2  UNL     1      -2.621 -19.368   6.900  1.00  0.00     0.210 HD
ENDBRANCH   1  21
BRANCH   1  23
HETATM   23  C20 UNL     1      -4.942 -19.201   6.337  1.00  0.00     0.036 C
BRANCH  23  24
HETATM   24  C21 UNL     1      -4.759 -19.693   7.704  1.00  0.00    -0.010 C
BRANCH  24  25
HETATM   25  C22 UNL     1      -5.874 -19.285   8.681  1.00  0.00     0.005 C
BRANCH  25  26
HETATM   26  C23 UNL     1      -5.805 -17.897   9.068  1.00  0.00     0.013 C
BRANCH  26  27
HETATM   27  C24 UNL     1      -7.014 -17.118   9.437  1.00  0.00     0.002 A
HETATM   28  C25 UNL     1      -6.983 -16.900  10.980  1.00  0.00     0.019 C
HETATM   29  C26 UNL     1      -7.527 -15.930   8.745  1.00  0.00    -0.001 A
HETATM   30  C27 UNL     1      -7.149 -15.536   7.350  1.00  0.00     0.019 C
HETATM   31  C28 UNL     1      -8.090 -14.738   9.537  1.00  0.00     0.019 C
HETATM   32  C29 UNL     1      -8.356 -17.232   8.907  1.00  0.00     0.129 A
HETATM   33 CL1  UNL     1      -9.766 -17.110  10.031  1.00  0.00    -0.100 Cl
HETATM   34 CL2  UNL     1      -8.819 -18.068   7.425  1.00  0.00    -0.100 Cl
ENDBRANCH  26  27
ENDBRANCH  25  26
ENDBRANCH  24  25
BRANCH  24  35
HETATM   35  C30 UNL     1      -4.606 -21.168   7.831  1.00  0.00     0.038 C
BRANCH  35  36
HETATM   36  C31 UNL     1      -3.229 -21.723   8.029  1.00  0.00     0.142 C
BRANCH  36  37
HETATM   37  O3  UNL     1      -2.408 -21.796   6.956  1.00  0.00    -0.393 OA
ATOM     38  H3  UNL     1      -2.673 -22.338   6.223  1.00  0.00     0.210 HD
ENDBRANCH  36  37
BRANCH  36  39
HETATM   39  C32 UNL     1      -2.633 -20.974   9.232  1.00  0.00     0.195 C
BRANCH  39  40
HETATM   40  O4  UNL     1      -1.263 -21.130   9.170  1.00  0.00    -0.398 OA
ATOM     41  H4  UNL     1      -1.095 -21.984   8.790  1.00  0.00     0.209 HD
ENDBRANCH  39  40
ENDBRANCH  36  39
ENDBRANCH  35  36
ENDBRANCH  24  35
ENDBRANCH  23  24
ENDBRANCH   1  23
TORSDOF 16
ENDMDL