MODEL 1
REMARK VINA RESULT: -7.733005270      0.000      0.000
REMARK  16 active torsions:
REMARK  status: ('A' for Active; 'I' for Inactive)
REMARK    1  A    between atoms: C2_2  and  C22_34
REMARK    2  A    between atoms: C3_3  and  C4_4
REMARK    3  A    between atoms: C15_18  and  N2_19
REMARK       I    between atoms: N2_19  and  C16_21
REMARK    4  A    between atoms: C16_21  and  C17_23
REMARK    5  A    between atoms: C17_23  and  O3_24
REMARK    6  A    between atoms: C17_23  and  C18_26
REMARK    7  A    between atoms: C21_30  and  O4_31
REMARK    8  A    between atoms: C22_34  and  O6_35
REMARK    9  A    between atoms: C22_34  and  C23_37
REMARK   10  A    between atoms: C24_38  and  C25_39
REMARK   11  A    between atoms: C25_39  and  C26_40
REMARK   12  A    between atoms: C27_41  and  C28_42
REMARK   13  A    between atoms: C28_42  and  C29_43
REMARK   14  A    between atoms: C30_44  and  C31_45
REMARK   15  A    between atoms: C31_45  and  C32_46
REMARK   16  A    between atoms: C33_47  and  C34_48
ROOT
HETATM    1  C18 UNL     1      12.140  25.593  11.069  1.00  0.00     0.126 C
HETATM    2  C19 UNL     1      11.871  26.238   9.744  1.00  0.00     0.028 C
HETATM    3  C20 UNL     1      12.192  24.122  10.949  1.00  0.00     0.066 C
HETATM    4  N3  UNL     1      12.215  22.970  10.868  1.00  0.00    -0.197 NA
ENDROOT
BRANCH   1   5
HETATM    5  C17 UNL     1      13.446  26.117  11.605  1.00  0.00     0.227 C
BRANCH   5   6
HETATM    6  C16 UNL     1      13.765  25.493  12.894  1.00  0.00     0.248 C
HETATM    7  N2  UNL     1      14.994  24.832  13.105  1.00  0.00    -0.349 N
ATOM      8  H2  UNL     1      15.655  24.784  12.329  1.00  0.00     0.163 HD
HETATM    9  O2  UNL     1      12.929  25.555  13.824  1.00  0.00    -0.271 OA
BRANCH   7  10
HETATM   10  C15 UNL     1      15.367  24.219  14.356  1.00  0.00     0.141 C
HETATM   11  C14 UNL     1      16.307  23.098  14.342  1.00  0.00     0.060 C
HETATM   12  C11 UNL     1      16.305  22.131  13.215  1.00  0.00     0.027 C
HETATM   13  N1  UNL     1      16.761  22.594  11.952  1.00  0.00    -0.353 N
HETATM   14  C12 UNL     1      17.186  20.954  13.703  1.00  0.00     0.038 C
HETATM   15  C13 UNL     1      14.897  21.539  13.137  1.00  0.00     0.038 C
HETATM   16  C10 UNL     1      18.064  22.671  11.430  1.00  0.00     0.218 C
ATOM     17  H1  UNL     1      16.027  22.922  11.325  1.00  0.00     0.163 HD
HETATM   18  C9  UNL     1      19.259  23.272  12.068  1.00  0.00     0.103 C
HETATM   19  O1  UNL     1      18.308  22.178  10.266  1.00  0.00    -0.274 OA
HETATM   20  C8  UNL     1      19.795  24.441  11.268  1.00  0.00     0.009 C
HETATM   21  C7  UNL     1      20.019  25.681  12.138  1.00  0.00     0.001 C
HETATM   22  C6  UNL     1      18.976  25.707  13.229  1.00  0.00     0.003 C
HETATM   23  C5  UNL     1      18.496  27.111  13.492  1.00  0.00     0.036 C
HETATM   24  C4  UNL     1      17.466  27.145  14.611  1.00  0.00     0.147 C
HETATM   25  O5  UNL     1      16.372  26.388  14.376  1.00  0.00    -0.350 OA
HETATM   26  C21 UNL     1      16.047  25.353  15.179  1.00  0.00     0.280 C
BRANCH  24  27
HETATM   27  C3  UNL     1      18.197  26.898  15.857  1.00  0.00     0.010 C
HETATM   28  C2  UNL     1      18.231  27.817  16.796  1.00  0.00    -0.053 C
HETATM   29  C1  UNL     1      17.522  29.102  16.588  1.00  0.00     0.046 C
BRANCH  28  30
HETATM   30  C22 UNL     1      18.976  27.645  18.100  1.00  0.00     0.169 C
BRANCH  30  31
HETATM   31  O6  UNL     1      19.519  28.871  18.492  1.00  0.00    -0.387 OA
ATOM     32  H6  UNL     1      20.126  28.735  19.210  1.00  0.00     0.210 HD
ENDBRANCH  30  31
BRANCH  30  33
HETATM   33  C23 UNL     1      18.055  27.118  19.142  1.00  0.00     0.005 C
HETATM   34  C24 UNL     1      18.022  25.869  19.566  1.00  0.00    -0.024 C
BRANCH  34  35
HETATM   35  C25 UNL     1      18.882  24.764  19.092  1.00  0.00     0.053 C
BRANCH  35  36
HETATM   36  C26 UNL     1      18.086  23.696  18.419  1.00  0.00    -0.027 C
HETATM   37  C27 UNL     1      16.773  23.679  18.489  1.00  0.00    -0.027 C
BRANCH  37  38
HETATM   38  C28 UNL     1      15.964  22.630  17.832  1.00  0.00     0.053 C
BRANCH  38  39
HETATM   39  C29 UNL     1      16.869  21.482  17.493  1.00  0.00    -0.027 C
HETATM   40  C30 UNL     1      16.385  20.309  17.124  1.00  0.00    -0.027 C
BRANCH  40  41
HETATM   41  C31 UNL     1      17.315  19.198  16.797  1.00  0.00     0.053 C
BRANCH  41  42
HETATM   42  C32 UNL     1      16.604  18.198  15.977  1.00  0.00    -0.026 C
HETATM   43  C33 UNL     1      15.570  18.537  15.217  1.00  0.00    -0.016 C
BRANCH  43  44
HETATM   44  C34 UNL     1      14.844  17.537  14.385  1.00  0.00     0.141 C
HETATM   45 CL1  UNL     1      15.201  17.892  12.670  1.00  0.00    -0.126 Cl
ENDBRANCH  43  44
ENDBRANCH  41  42
ENDBRANCH  40  41
ENDBRANCH  38  39
ENDBRANCH  37  38
ENDBRANCH  35  36
ENDBRANCH  34  35
ENDBRANCH  30  33
ENDBRANCH  28  30
ENDBRANCH  24  27
BRANCH  26  46
HETATM   46  O4  UNL     1      15.130  25.666  16.180  1.00  0.00    -0.369 OA
ATOM     47  H4  UNL     1      15.089  26.614  16.185  1.00  0.00     0.212 HD
ENDBRANCH  26  46
ENDBRANCH   7  10
ENDBRANCH   5   6
BRANCH   5  48
HETATM   48  O3  UNL     1      13.394  27.526  11.729  1.00  0.00    -0.385 OA
ATOM     49  H3  UNL     1      13.327  27.937  10.875  1.00  0.00     0.210 HD
ENDBRANCH   5  48
ENDBRANCH   1   5
TORSDOF 16
ENDMDL