MODEL 3
REMARK VINA RESULT: -7.121313886      1.796      3.226
REMARK  15 active torsions:
REMARK  status: ('A' for Active; 'I' for Inactive)
REMARK    1  A    between atoms: C4_4  and  C5_5
REMARK    2  A    between atoms: C5_5  and  C6_6
REMARK    3  A    between atoms: C13_15  and  C14_16
REMARK    4  A    between atoms: C15_17  and  C16_18
REMARK    5  A    between atoms: C16_18  and  O3_19
REMARK    6  A    between atoms: C16_18  and  C17_21
REMARK    7  A    between atoms: C17_21  and  C18_22
REMARK    8  A    between atoms: C18_22  and  C19_24
REMARK    9  A    between atoms: C19_24  and  N1_25
REMARK   10  A    between atoms: N1_25  and  C20_28
REMARK   11  A    between atoms: C20_28  and  C21_29
REMARK   12  A    between atoms: C21_29  and  C22_30
REMARK   13  A    between atoms: C23_31  and  C24_32
REMARK   14  A    between atoms: C24_32  and  N2_34
REMARK   15  A    between atoms: C28_41  and  O5_42
ROOT
HETATM    1  C6  UNL     1      15.197  22.784  13.602  1.00  0.00     0.146 C
HETATM    2  O1  UNL     1      15.351  23.024  14.989  1.00  0.00    -0.315 OA
HETATM    3  C7  UNL     1      15.635  24.234  15.581  1.00  0.00     0.259 C
HETATM    4  O2  UNL     1      14.926  24.796  16.462  1.00  0.00    -0.265 OA
HETATM    5  C8  UNL     1      16.867  24.957  15.168  1.00  0.00     0.111 C
HETATM    6  C9  UNL     1      17.963  24.476  16.050  1.00  0.00     0.014 C
HETATM    7  C10 UNL     1      19.298  25.145  15.872  1.00  0.00    -0.017 C
HETATM    8  C11 UNL     1      20.230  24.460  16.851  1.00  0.00     0.010 C
HETATM    9  C12 UNL     1      19.787  25.268  14.483  1.00  0.00     0.020 C
HETATM   10  C13 UNL     1      21.001  24.506  14.092  1.00  0.00     0.078 C
HETATM   11  C26 UNL     1      20.868  23.656  12.882  1.00  0.00     0.137 C
HETATM   12  O4  UNL     1      21.618  22.701  12.801  1.00  0.00    -0.297 OA
HETATM   13  C27 UNL     1      19.906  23.929  11.835  1.00  0.00     0.114 C
HETATM   14  C28 UNL     1      18.706  23.012  11.734  1.00  0.00     0.147 C
HETATM   15  C29 UNL     1      18.451  22.206  12.935  1.00  0.00     0.002 C
HETATM   16  C30 UNL     1      17.388  21.670  13.451  1.00  0.00    -0.017 C
HETATM   17  C31 UNL     1      15.963  21.618  13.081  1.00  0.00    -0.003 C
HETATM   18  C32 UNL     1      15.696  21.465  11.606  1.00  0.00     0.021 C
HETATM   19  C33 UNL     1      15.434  20.297  13.694  1.00  0.00     0.021 C
ENDROOT
BRANCH  10  20
HETATM   20  C14 UNL     1      22.173  25.443  13.892  1.00  0.00    -0.016 C
HETATM   21  C15 UNL     1      23.286  25.226  14.531  1.00  0.00     0.001 C
BRANCH  21  22
HETATM   22  C16 UNL     1      24.491  26.130  14.373  1.00  0.00     0.145 C
BRANCH  22  23
HETATM   23  O3  UNL     1      25.479  25.337  13.859  1.00  0.00    -0.391 OA
ATOM     24  H3  UNL     1      25.645  25.673  12.985  1.00  0.00     0.210 HD
ENDBRANCH  22  23
BRANCH  22  25
HETATM   25  C17 UNL     1      24.722  26.727  15.707  1.00  0.00     0.079 C
BRANCH  25  26
HETATM   26  C18 UNL     1      24.466  28.139  15.956  1.00  0.00    -0.005 C
HETATM   27 BR1  UNL     1      26.058  29.136  16.471  1.00  0.00    -0.059 Br
BRANCH  26  28
HETATM   28  C19 UNL     1      23.237  28.646  16.567  1.00  0.00     0.274 C
BRANCH  28  29
HETATM   29  N1  UNL     1      22.274  27.660  16.944  1.00  0.00    -0.071 N
ATOM     30  H12 UNL     1      21.367  27.786  16.496  1.00  0.00     0.277 HD
ATOM     31  H11 UNL     1      22.473  26.733  16.567  1.00  0.00     0.277 HD
BRANCH  29  32
HETATM   32  C20 UNL     1      22.206  27.690  18.456  1.00  0.00     0.236 C
BRANCH  32  33
HETATM   33  C21 UNL     1      23.065  26.620  18.999  1.00  0.00     0.054 C
BRANCH  33  34
HETATM   34  C22 UNL     1      24.045  26.989  20.011  1.00  0.00    -0.027 C
HETATM   35  C23 UNL     1      25.326  26.351  20.219  1.00  0.00     0.001 C
BRANCH  35  36
HETATM   36  C24 UNL     1      26.366  26.167  19.199  1.00  0.00     0.202 C
HETATM   37  C25 UNL     1      27.470  27.255  19.494  1.00  0.00     0.044 C
BRANCH  36  38
HETATM   38  N2  UNL     1      27.174  24.936  19.482  1.00  0.00    -0.072 N
ATOM     39  H23 UNL     1      26.764  24.107  19.052  1.00  0.00     0.275 HD
ATOM     40  H22 UNL     1      28.063  24.944  18.982  1.00  0.00     0.275 HD
ATOM     41  H21 UNL     1      27.306  24.815  20.487  1.00  0.00     0.275 HD
ENDBRANCH  36  38
ENDBRANCH  35  36
ENDBRANCH  33  34
ENDBRANCH  32  33
ENDBRANCH  29  32
ENDBRANCH  28  29
ENDBRANCH  26  28
ENDBRANCH  25  26
ENDBRANCH  22  25
ENDBRANCH  21  22
ENDBRANCH  10  20
BRANCH  14  42
HETATM   42  O5  UNL     1      17.673  23.759  11.238  1.00  0.00    -0.391 OA
ATOM     43  H5  UNL     1      16.979  23.738  11.887  1.00  0.00     0.210 HD
ENDBRANCH  14  42
BRANCH   1  44
HETATM   44  C5  UNL     1      13.740  22.783  13.267  1.00  0.00     0.061 C
BRANCH  44  45
HETATM   45  C4  UNL     1      13.197  23.996  12.645  1.00  0.00    -0.022 C
HETATM   46  C2  UNL     1      12.396  24.094  11.611  1.00  0.00    -0.091 C
HETATM   47  C1  UNL     1      11.892  22.932  10.872  1.00  0.00     0.042 C
HETATM   48  C3  UNL     1      11.967  25.457  11.164  1.00  0.00     0.042 C
ENDBRANCH  44  45
ENDBRANCH   1  44
TORSDOF 15
ENDMDL