MODEL 2
REMARK VINA RESULT: -7.428414324      2.272      3.425
REMARK  20 active torsions:
REMARK  status: ('A' for Active; 'I' for Inactive)
REMARK    1  A    between atoms: O1_2  and  C2_3
REMARK    2  A    between atoms: C4_5  and  N1_6
REMARK    3  A    between atoms: N1_6  and  C5_8
REMARK    4  A    between atoms: C5_8  and  N2_9
REMARK    5  A    between atoms: C5_8  and  C23_41
REMARK    6  A    between atoms: N2_9  and  O2_10
REMARK    7  A    between atoms: N2_9  and  C6_12
REMARK    8  A    between atoms: C6_12  and  O3_13
REMARK    9  A    between atoms: C6_12  and  N3_15
REMARK   10  A    between atoms: C9_18  and  O4_19
REMARK   11  A    between atoms: O4_19  and  C10_20
REMARK       I    between atoms: C10_20  and  N4_22
REMARK   12  A    between atoms: N4_22  and  C11_24
REMARK   13  A    between atoms: C11_24  and  C14_27
REMARK       I    between atoms: C14_27  and  N5_29
REMARK   14  A    between atoms: N5_29  and  C15_31
REMARK   15  A    between atoms: C15_31  and  C16_32
REMARK   16  A    between atoms: C16_32  and  C17_33
REMARK   17  A    between atoms: C17_33  and  C18_34
REMARK   18  A    between atoms: C18_34  and  C19_35
REMARK   19  A    between atoms: C19_35  and  C20_36
REMARK   20  A    between atoms: C20_36  and  C21_37
ROOT
HETATM    1  N3  UNL     1      19.166  25.150  12.977  1.00  0.00    -0.343 N
HETATM    2  C7  UNL     1      20.443  25.564  12.500  1.00  0.00     0.129 C
HETATM    3  C8  UNL     1      21.407  25.529  13.705  1.00  0.00     0.054 C
HETATM    4  C9  UNL     1      20.554  25.145  14.839  1.00  0.00     0.153 C
HETATM    5  C22 UNL     1      19.496  24.248  14.136  1.00  0.00     0.159 C
ENDROOT
BRANCH   1   6
HETATM    6  C6  UNL     1      17.879  25.410  12.521  1.00  0.00     0.243 C
BRANCH   6   7
HETATM    7  N2  UNL     1      16.733  25.803  13.177  1.00  0.00    -0.199 N
BRANCH   7   8
HETATM    8  C5  UNL     1      15.351  25.379  12.952  1.00  0.00     0.223 C
BRANCH   8   9
HETATM    9  N1  UNL     1      14.479  26.522  12.965  1.00  0.00    -0.366 N
ATOM     10  H1  UNL     1      14.031  26.731  13.858  1.00  0.00     0.162 HD
BRANCH   9  11
HETATM   11  C4  UNL     1      14.164  27.391  11.900  1.00  0.00     0.038 A
HETATM   12  C3  UNL     1      14.789  28.609  11.730  1.00  0.00     0.068 A
HETATM   13  C2  UNL     1      14.495  29.473  10.718  1.00  0.00     0.092 A
HETATM   14  C30 UNL     1      13.521  29.134   9.804  1.00  0.00     0.068 A
HETATM   15  C29 UNL     1      12.884  27.935   9.950  1.00  0.00     0.035 A
HETATM   16 CL1  UNL     1      13.073  30.177   8.466  1.00  0.00    -0.081 Cl
HETATM   17  C27 UNL     1      13.186  27.048  10.987  1.00  0.00    -0.034 A
HETATM   18  C28 UNL     1      12.397  25.784  11.024  1.00  0.00     0.050 C
BRANCH  13  19
HETATM   19  O1  UNL     1      15.132  30.723  10.537  1.00  0.00    -0.354 OA
HETATM   20  C1  UNL     1      16.283  30.929  11.370  1.00  0.00     0.210 C
ENDBRANCH  13  19
ENDBRANCH   9  11
ENDBRANCH   8   9
BRANCH   8  21
HETATM   21  C23 UNL     1      15.006  24.350  14.031  1.00  0.00    -0.011 C
HETATM   22  C24 UNL     1      13.827  23.488  13.549  1.00  0.00     0.018 C
HETATM   23  C25 UNL     1      14.463  25.025  15.281  1.00  0.00     0.018 C
HETATM   24  C26 UNL     1      16.132  23.418  14.358  1.00  0.00     0.018 C
ENDBRANCH   8  21
ENDBRANCH   7   8
BRANCH   7  25
HETATM   25  O2  UNL     1      16.872  26.753  14.182  1.00  0.00    -0.282 OA
ATOM     26  H2  UNL     1      17.588  27.361  14.039  1.00  0.00     0.245 HD
ENDBRANCH   7  25
ENDBRANCH   6   7
BRANCH   6  27
HETATM   27  O3  UNL     1      17.740  25.250  11.226  1.00  0.00    -0.331 OA
ATOM     28  H3  UNL     1      18.500  24.883  10.789  1.00  0.00     0.221 HD
ENDBRANCH   6  27
ENDBRANCH   1   6
BRANCH   4  29
HETATM   29  O4  UNL     1      19.851  26.173  15.494  1.00  0.00    -0.297 OA
BRANCH  29  30
HETATM   30  C10 UNL     1      19.130  25.946  16.691  1.00  0.00     0.362 C
HETATM   31  O5  UNL     1      18.041  26.569  16.744  1.00  0.00    -0.238 OA
HETATM   32  N4  UNL     1      19.651  25.098  17.680  1.00  0.00    -0.319 N
ATOM     33  H4  UNL     1      20.541  24.629  17.511  1.00  0.00     0.166 HD
BRANCH  32  34
HETATM   34  C11 UNL     1      18.966  24.869  18.930  1.00  0.00     0.108 C
HETATM   35  C12 UNL     1      18.747  26.179  19.621  1.00  0.00     0.049 C
HETATM   36  C13 UNL     1      19.790  23.922  19.803  1.00  0.00     0.049 C
BRANCH  34  37
HETATM   37  C14 UNL     1      17.684  24.169  18.673  1.00  0.00     0.245 C
HETATM   38  O6  UNL     1      16.626  24.681  19.117  1.00  0.00    -0.271 OA
HETATM   39  N5  UNL     1      17.606  22.963  17.948  1.00  0.00    -0.359 N
ATOM     40  H5  UNL     1      18.451  22.520  17.587  1.00  0.00     0.162 HD
BRANCH  39  41
HETATM   41  C15 UNL     1      16.260  22.342  17.716  1.00  0.00     0.122 C
BRANCH  41  42
HETATM   42  C16 UNL     1      16.406  20.902  17.481  1.00  0.00     0.020 C
BRANCH  42  43
HETATM   43  C17 UNL     1      16.806  20.355  16.190  1.00  0.00     0.002 C
BRANCH  43  44
HETATM   44  C18 UNL     1      16.435  19.004  15.806  1.00  0.00     0.001 C
BRANCH  44  45
HETATM   45  C19 UNL     1      16.034  18.707  14.418  1.00  0.00     0.009 C
BRANCH  45  46
HETATM   46  C20 UNL     1      15.279  19.970  13.848  1.00  0.00     0.099 C
BRANCH  46  47
HETATM   47  C21 UNL     1      15.789  20.261  12.512  1.00  0.00     0.231 C
HETATM   48  N6  UNL     1      14.903  20.700  11.503  1.00  0.00    -0.062 NA
HETATM   49  O7  UNL     1      17.024  20.117  12.258  1.00  0.00    -0.277 OA
ENDBRANCH  46  47
ENDBRANCH  45  46
ENDBRANCH  44  45
ENDBRANCH  43  44
ENDBRANCH  42  43
ENDBRANCH  41  42
ENDBRANCH  39  41
ENDBRANCH  34  37
ENDBRANCH  32  34
ENDBRANCH  29  30
ENDBRANCH   4  29
TORSDOF 20
ENDMDL