MODEL 3
REMARK VINA RESULT: -7.464339264      2.857      7.520
REMARK  19 active torsions:
REMARK  status: ('A' for Active; 'I' for Inactive)
REMARK    1  A    between atoms: C2_2  and  O1_3
REMARK    2  A    between atoms: C2_2  and  C3_5
REMARK    3  A    between atoms: C3_5  and  C4_7
REMARK    4  A    between atoms: C4_7  and  C5_8
REMARK    5  A    between atoms: C4_7  and  C27_39
REMARK    6  A    between atoms: C5_8  and  C6_9
REMARK    7  A    between atoms: C6_9  and  O3_10
REMARK    8  A    between atoms: C6_9  and  C7_12
REMARK    9  A    between atoms: C12_17  and  O4_18
REMARK   10  A    between atoms: C14_21  and  C15_22
REMARK   11  A    between atoms: C15_22  and  O5_23
REMARK   12  A    between atoms: C15_22  and  C16_25
REMARK   13  A    between atoms: C16_25  and  C17_26
REMARK   14  A    between atoms: C17_26  and  C18_27
REMARK   15  A    between atoms: C18_27  and  O6_29
REMARK   16  A    between atoms: O6_29  and  C20_30
REMARK   17  A    between atoms: C27_39  and  C29_41
REMARK   18  A    between atoms: C29_41  and  C30_43
REMARK   19  A    between atoms: C32_45  and  C33_47
ROOT
HETATM    1  C7  UNL     1      15.436  24.476  16.407  1.00  0.00     0.023 C
HETATM    2  C8  UNL     1      15.202  23.312  17.260  1.00  0.00     0.008 C
HETATM    3  C9  UNL     1      16.032  23.559  18.512  1.00  0.00     0.006 C
HETATM    4  C10 UNL     1      16.705  24.903  18.327  1.00  0.00     0.001 C
HETATM    5  C11 UNL     1      17.960  24.950  19.089  1.00  0.00     0.028 C
HETATM    6  C12 UNL     1      18.096  26.195  19.918  1.00  0.00     0.123 C
HETATM    7  C13 UNL     1      19.508  26.626  19.735  1.00  0.00     0.040 C
HETATM    8  C14 UNL     1      19.907  26.045  18.385  1.00  0.00     0.025 C
HETATM    9  C21 UNL     1      19.251  24.742  18.338  1.00  0.00    -0.032 C
HETATM   10  C22 UNL     1      20.060  23.689  19.071  1.00  0.00     0.016 C
HETATM   11  C23 UNL     1      19.017  24.166  16.973  1.00  0.00     0.011 C
HETATM   12  C24 UNL     1      17.944  24.800  16.157  1.00  0.00     0.011 C
HETATM   13  C25 UNL     1      16.719  25.182  16.866  1.00  0.00    -0.034 C
HETATM   14  C26 UNL     1      16.459  26.669  16.568  1.00  0.00     0.016 C
ENDROOT
BRANCH   1  15
HETATM   15  C6  UNL     1      15.305  24.376  14.941  1.00  0.00     0.123 C
BRANCH  15  16
HETATM   16  C5  UNL     1      15.077  22.987  14.444  1.00  0.00     0.045 C
BRANCH  16  17
HETATM   17  C4  UNL     1      16.194  22.050  14.295  1.00  0.00     0.076 C
BRANCH  17  18
HETATM   18  C3  UNL     1      15.828  20.703  14.902  1.00  0.00     0.186 C
HETATM   19  O2  UNL     1      14.714  20.164  14.580  1.00  0.00    -0.290 OA
BRANCH  18  20
HETATM   20  C2  UNL     1      16.659  19.988  15.825  1.00  0.00     0.102 C
HETATM   21  C1  UNL     1      17.423  20.624  16.684  1.00  0.00     0.054 C
BRANCH  20  22
HETATM   22  O1  UNL     1      16.685  18.610  15.845  1.00  0.00    -0.358 OA
ATOM     23  H1  UNL     1      16.306  18.173  16.599  1.00  0.00     0.217 HD
ENDBRANCH  20  22
ENDBRANCH  18  20
ENDBRANCH  17  18
BRANCH  17  24
HETATM   24  C27 UNL     1      16.556  21.799  12.819  1.00  0.00     0.063 C
HETATM   25  C28 UNL     1      16.230  20.414  12.382  1.00  0.00     0.018 C
BRANCH  24  26
HETATM   26  C29 UNL     1      17.942  22.226  12.620  1.00  0.00     0.137 C
HETATM   27  O8  UNL     1      18.706  21.534  11.973  1.00  0.00    -0.297 OA
BRANCH  26  28
HETATM   28  C30 UNL     1      18.492  23.502  13.181  1.00  0.00     0.081 A
HETATM   29  C31 UNL     1      18.028  24.737  12.445  1.00  0.00     0.041 A
HETATM   30  C32 UNL     1      19.438  24.264  12.343  1.00  0.00     0.051 A
HETATM   31 CL1  UNL     1      20.016  23.577  10.807  1.00  0.00    -0.118 Cl
BRANCH  30  32
HETATM   32  C33 UNL     1      20.468  25.169  13.007  1.00  0.00     0.002 C
HETATM   33  C34 UNL     1      21.182  24.375  14.091  1.00  0.00     0.011 C
HETATM   34  C35 UNL     1      19.793  26.395  13.586  1.00  0.00     0.011 C
ENDBRANCH  30  32
ENDBRANCH  26  28
ENDBRANCH  24  26
ENDBRANCH  17  24
ENDBRANCH  16  17
ENDBRANCH  15  16
BRANCH  15  35
HETATM   35  O3  UNL     1      14.091  25.048  14.553  1.00  0.00    -0.395 OA
ATOM     36  H3  UNL     1      14.226  25.925  14.891  1.00  0.00     0.210 HD
ENDBRANCH  15  35
ENDBRANCH   1  15
BRANCH   6  37
HETATM   37  O4  UNL     1      17.924  25.953  21.304  1.00  0.00    -0.395 OA
ATOM     38  H4  UNL     1      18.297  25.124  21.582  1.00  0.00     0.210 HD
ENDBRANCH   6  37
BRANCH   8  39
HETATM   39  C15 UNL     1      21.331  26.229  18.079  1.00  0.00     0.123 C
BRANCH  39  40
HETATM   40  O5  UNL     1      22.147  26.547  19.139  1.00  0.00    -0.395 OA
ATOM     41  H5  UNL     1      23.082  26.464  18.991  1.00  0.00     0.210 HD
ENDBRANCH  39  40
BRANCH  39  42
HETATM   42  C16 UNL     1      21.696  27.092  16.906  1.00  0.00     0.034 C
BRANCH  42  43
HETATM   43  C17 UNL     1      23.221  27.039  16.663  1.00  0.00     0.035 C
BRANCH  43  44
HETATM   44  C18 UNL     1      23.390  27.055  15.145  1.00  0.00     0.129 C
HETATM   45  C19 UNL     1      22.798  28.338  14.602  1.00  0.00     0.040 C
BRANCH  44  46
HETATM   46  O6  UNL     1      24.752  27.000  14.769  1.00  0.00    -0.301 OA
BRANCH  46  47
HETATM   47  C20 UNL     1      25.180  25.936  14.007  1.00  0.00     0.373 C
HETATM   48  N1  UNL     1      26.146  26.098  12.953  1.00  0.00    -0.032 NA
HETATM   49  O7  UNL     1      24.714  24.790  14.237  1.00  0.00    -0.242 OA
ENDBRANCH  46  47
ENDBRANCH  44  46
ENDBRANCH  43  44
ENDBRANCH  42  43
ENDBRANCH  39  42
ENDBRANCH   8  39
TORSDOF 19
ENDMDL