MODEL 5
REMARK VINA RESULT: -7.277196022      2.639      5.846
REMARK  14 active torsions:
REMARK  status: ('A' for Active; 'I' for Inactive)
REMARK    1  A    between atoms: C2_2  and  N1_3
REMARK    2  A    between atoms: N1_3  and  C3_4
REMARK    3  A    between atoms: N1_3  and  C9_10
REMARK    4  A    between atoms: C3_4  and  C4_5
REMARK    5  A    between atoms: C9_10  and  C10_11
REMARK    6  A    between atoms: C12_13  and  N2_14
REMARK    7  A    between atoms: N2_14  and  C13_16
REMARK    8  A    between atoms: C19_24  and  O1_25
REMARK       I    between atoms: N4_32  and  C25_33
REMARK       I    between atoms: C25_33  and  N5_35
REMARK    9  A    between atoms: N5_35  and  C26_37
REMARK   10  A    between atoms: C26_37  and  C28_39
REMARK   11  A    between atoms: C26_37  and  C31_44
REMARK   12  A    between atoms: C28_39  and  C29_40
REMARK   13  A    between atoms: C29_40  and  C30_41
REMARK   14  A    between atoms: C31_44  and  C32_45
ROOT
HETATM    1  C10 UNL     1      16.629  25.218  15.570  1.00  0.00     0.136 C
HETATM    2  C11 UNL     1      15.317  24.810  15.086  1.00  0.00     0.077 C
HETATM    3  C12 UNL     1      15.449  24.007  13.772  1.00  0.00     0.179 C
HETATM    4  N3  UNL     1      14.794  24.825  12.753  1.00  0.00    -0.368 N
ATOM      5  H3  UNL     1      14.079  24.374  12.182  1.00  0.00     0.161 HD
HETATM    6  C17 UNL     1      15.074  26.223  12.483  1.00  0.00     0.045 A
HETATM    7  C18 UNL     1      14.026  26.738  11.800  1.00  0.00     0.066 A
HETATM    8  C19 UNL     1      14.040  28.086  11.438  1.00  0.00     0.072 A
HETATM    9  C21 UNL     1      15.120  28.878  11.781  1.00  0.00     0.061 A
HETATM   10  C22 UNL     1      16.193  28.356  12.477  1.00  0.00     0.050 A
HETATM   11 CL1  UNL     1      17.539  29.385  12.892  1.00  0.00    -0.083 Cl
HETATM   12  C23 UNL     1      16.154  27.012  12.825  1.00  0.00     0.028 A
HETATM   13  C24 UNL     1      17.418  26.757  13.504  1.00  0.00     0.112 C
HETATM   14  N4  UNL     1      17.480  25.894  14.607  1.00  0.00    -0.299 N
HETATM   15  C25 UNL     1      18.868  25.540  14.933  1.00  0.00     0.323 C
HETATM   16  O2  UNL     1      19.066  24.696  15.835  1.00  0.00    -0.247 OA
HETATM   17  N5  UNL     1      19.961  26.123  14.271  1.00  0.00    -0.333 N
ATOM     18  H5  UNL     1      19.727  26.813  13.557  1.00  0.00     0.165 HD
ENDROOT
BRANCH   1  19
HETATM   19  C9  UNL     1      16.681  26.088  16.801  1.00  0.00     0.093 C
BRANCH  19  20
HETATM   20  N1  UNL     1      16.175  25.621  18.022  1.00  0.00    -0.352 N
BRANCH  20  21
HETATM   21  C2  UNL     1      15.238  26.399  18.656  1.00  0.00     0.064 C
HETATM   22  C1  UNL     1      14.478  27.501  17.999  1.00  0.00     0.055 C
ENDBRANCH  20  21
BRANCH  20  23
HETATM   23  C3  UNL     1      16.971  24.679  18.624  1.00  0.00     0.072 C
BRANCH  23  24
HETATM   24  C4  UNL     1      18.047  24.945  19.604  1.00  0.00     0.024 C
HETATM   25  C5  UNL     1      19.140  23.881  19.284  1.00  0.00     0.010 C
HETATM   26  C6  UNL     1      20.440  24.603  19.234  1.00  0.00     0.001 C
HETATM   27  C7  UNL     1      20.250  25.893  19.976  1.00  0.00     0.001 C
HETATM   28  C8  UNL     1      18.794  26.214  19.558  1.00  0.00     0.010 C
ENDBRANCH  23  24
ENDBRANCH  20  23
ENDBRANCH  19  20
ENDBRANCH   1  19
BRANCH  17  29
HETATM   29  C26 UNL     1      21.370  25.880  14.463  1.00  0.00     0.041 C
HETATM   30  C27 UNL     1      21.616  26.098  16.000  1.00  0.00     0.039 C
BRANCH  29  31
HETATM   31  C28 UNL     1      22.268  26.905  13.854  1.00  0.00     0.041 C
BRANCH  31  32
HETATM   32  C29 UNL     1      23.545  27.246  14.513  1.00  0.00     0.116 C
BRANCH  32  33
HETATM   33  C30 UNL     1      24.634  26.632  13.666  1.00  0.00     0.172 C
HETATM   34  O3  UNL     1      25.137  27.290  12.725  1.00  0.00    -0.648 OA
HETATM   35  O4  UNL     1      25.046  25.359  13.956  1.00  0.00    -0.648 OA
ENDBRANCH  32  33
ENDBRANCH  31  32
ENDBRANCH  29  31
BRANCH  29  36
HETATM   36  C31 UNL     1      21.652  24.458  14.197  1.00  0.00     0.143 C
BRANCH  36  37
HETATM   37  C32 UNL     1      21.221  23.878  12.926  1.00  0.00     0.174 C
HETATM   38  O5  UNL     1      20.549  24.481  12.086  1.00  0.00    -0.648 OA
HETATM   39  O6  UNL     1      21.593  22.568  12.653  1.00  0.00    -0.648 OA
ENDBRANCH  36  37
ENDBRANCH  29  36
ENDBRANCH  17  29
BRANCH   3  40
HETATM   40  N2  UNL     1      14.817  22.758  13.872  1.00  0.00    -0.394 N
ATOM     41  H2  UNL     1      13.912  22.673  14.333  1.00  0.00     0.156 HD
BRANCH  40  42
HETATM   42  C13 UNL     1      15.452  21.618  13.325  1.00  0.00     0.016 C
HETATM   43  C14 UNL     1      14.826  21.070  12.059  1.00  0.00     0.037 C
HETATM   44  C15 UNL     1      16.918  21.853  12.983  1.00  0.00     0.037 C
HETATM   45  C16 UNL     1      15.447  20.513  14.367  1.00  0.00     0.037 C
ENDBRANCH  40  42
ENDBRANCH   3  40
BRANCH   8  46
HETATM   46  O1  UNL     1      12.991  28.653  10.742  1.00  0.00    -0.356 OA
HETATM   47  C20 UNL     1      12.745  28.262   9.415  1.00  0.00     0.210 C
ENDBRANCH   8  46
TORSDOF 14
ENDMDL