MODEL 5
REMARK VINA RESULT: -6.797019649      2.595      6.863
REMARK  18 active torsions:
REMARK  status: ('A' for Active; 'I' for Inactive)
REMARK    1  A    between atoms: C2_2  and  O1_3
REMARK    2  A    between atoms: O1_3  and  C3_4
REMARK    3  A    between atoms: C3_4  and  C4_6
REMARK    4  A    between atoms: C4_6  and  C5_7
REMARK    5  A    between atoms: C4_6  and  N1_11
REMARK    6  A    between atoms: C5_7  and  C6_8
REMARK    7  A    between atoms: C6_8  and  S1_9
REMARK    8  A    between atoms: N1_11  and  C8_13
REMARK    9  A    between atoms: C8_13  and  O3_14
REMARK   10  A    between atoms: C9_16  and  C10_17
REMARK   11  A    between atoms: C9_16  and  N3_36
REMARK   12  A    between atoms: C10_17  and  C11_18
REMARK   13  A    between atoms: C14_22  and  O4_23
REMARK   14  A    between atoms: C15_25  and  N2_26
REMARK   15  A    between atoms: N2_26  and  C16_28
REMARK   16  A    between atoms: C16_28  and  C19_31
REMARK       I    between atoms: N3_36  and  C24_38
REMARK       I    between atoms: C24_38  and  N4_40
REMARK   17  A    between atoms: N4_40  and  C25_42
REMARK   18  A    between atoms: C25_42  and  C28_45
ROOT
HETATM    1  C8  UNL     1      12.188  24.136  10.963  1.00  0.00     0.160 C
HETATM    2  C9  UNL     1      13.069  24.141  12.105  1.00  0.00     0.068 C
ENDROOT
BRANCH   2   3
HETATM    3  C10 UNL     1      13.062  25.222  13.107  1.00  0.00     0.100 C
BRANCH   3   4
HETATM    4  C11 UNL     1      14.274  26.077  13.084  1.00  0.00    -0.049 A
HETATM    5  C12 UNL     1      14.183  27.222  12.286  1.00  0.00     0.029 A
HETATM    6  C13 UNL     1      15.239  28.084  12.082  1.00  0.00     0.046 A
HETATM    7 BR1  UNL     1      15.139  29.655  11.014  1.00  0.00    -0.048 Br
HETATM    8  C14 UNL     1      16.439  27.774  12.709  1.00  0.00     0.109 A
HETATM    9  C15 UNL     1      16.582  26.640  13.516  1.00  0.00     0.064 A
HETATM   10  C23 UNL     1      15.477  25.843  13.662  1.00  0.00     0.039 A
BRANCH   8  11
HETATM   11  O4  UNL     1      17.501  28.638  12.503  1.00  0.00    -0.357 OA
ATOM     12  H4  UNL     1      18.223  28.591  13.119  1.00  0.00     0.217 HD
ENDBRANCH   8  11
BRANCH   9  13
HETATM   13  N2  UNL     1      17.826  26.367  14.113  1.00  0.00    -0.378 N
ATOM     14  H2  UNL     1      18.138  27.020  14.831  1.00  0.00     0.160 HD
BRANCH  13  15
HETATM   15  C16 UNL     1      18.704  25.274  13.825  1.00  0.00     0.029 C
HETATM   16  C17 UNL     1      18.433  24.068  14.685  1.00  0.00     0.039 C
HETATM   17  C18 UNL     1      18.573  24.808  12.380  1.00  0.00     0.039 C
BRANCH  15  18
HETATM   18  C19 UNL     1      20.162  25.679  13.995  1.00  0.00    -0.027 C
HETATM   19  C20 UNL     1      20.820  24.871  15.071  1.00  0.00     0.017 C
HETATM   20  C21 UNL     1      20.892  25.431  12.688  1.00  0.00     0.017 C
HETATM   21  C22 UNL     1      20.298  27.126  14.335  1.00  0.00     0.017 C
ENDBRANCH  15  18
ENDBRANCH  13  15
ENDBRANCH   9  13
ENDBRANCH   3   4
ENDBRANCH   2   3
BRANCH   2  22
HETATM   22  N3  UNL     1      13.229  22.787  12.607  1.00  0.00    -0.308 N
HETATM   23  C24 UNL     1      14.357  22.084  12.953  1.00  0.00     0.321 C
HETATM   24  O5  UNL     1      15.512  22.599  12.911  1.00  0.00    -0.247 OA
HETATM   25  N4  UNL     1      14.348  20.725  13.394  1.00  0.00    -0.334 N
ATOM     26  H4  UNL     1      13.447  20.246  13.413  1.00  0.00     0.165 HD
ATOM     27  H3  UNL     1      12.356  22.272  12.722  1.00  0.00     0.170 HD
BRANCH  25  28
HETATM   28  C25 UNL     1      15.489  19.985  13.808  1.00  0.00     0.027 C
HETATM   29  C26 UNL     1      15.023  18.636  14.308  1.00  0.00     0.038 C
HETATM   30  C27 UNL     1      16.508  19.787  12.735  1.00  0.00     0.038 C
BRANCH  28  31
HETATM   31  C28 UNL     1      16.198  20.670  14.971  1.00  0.00     0.026 C
HETATM   32  C29 UNL     1      16.495  19.687  16.076  1.00  0.00     0.007 C
ENDBRANCH  28  31
ENDBRANCH  25  28
ENDBRANCH   2  22
BRANCH   1  33
HETATM   33  N1  UNL     1      11.125  24.972  10.693  1.00  0.00    -0.356 N
ATOM     34  H1  UNL     1      10.181  24.733  10.999  1.00  0.00     0.162 HD
BRANCH  33  35
HETATM   35  C4  UNL     1      11.390  26.238   9.937  1.00  0.00     0.184 C
BRANCH  35  36
HETATM   36  C3  UNL     1      10.969  25.963   8.570  1.00  0.00     0.281 C
HETATM   37  O2  UNL     1      11.661  25.312   7.774  1.00  0.00    -0.263 OA
BRANCH  36  38
HETATM   38  O1  UNL     1       9.741  26.443   8.103  1.00  0.00    -0.320 OA
BRANCH  38  39
HETATM   39  C2  UNL     1       9.193  26.014   6.869  1.00  0.00     0.174 C
HETATM   40  C1  UNL     1       7.752  25.632   6.939  1.00  0.00     0.034 C
ENDBRANCH  38  39
ENDBRANCH  36  38
ENDBRANCH  35  36
BRANCH  35  41
HETATM   41  C5  UNL     1      10.510  27.268  10.583  1.00  0.00     0.045 C
BRANCH  41  42
HETATM   42  C6  UNL     1       9.673  26.673  11.669  1.00  0.00     0.076 C
BRANCH  42  43
HETATM   43  S1  UNL     1       8.011  27.410  11.604  1.00  0.00    -0.173 SA
HETATM   44  C7  UNL     1       7.883  28.510  10.156  1.00  0.00     0.089 C
ENDBRANCH  42  43
ENDBRANCH  41  42
ENDBRANCH  35  41
ENDBRANCH  33  35
ENDBRANCH   1  33
BRANCH   1  45
HETATM   45  O3  UNL     1      12.441  23.206  10.078  1.00  0.00    -0.345 OA
ATOM     46  H3  UNL     1      11.902  22.424  10.117  1.00  0.00     0.219 HD
ENDBRANCH   1  45
TORSDOF 18
ENDMDL