MODEL 4
REMARK VINA RESULT: -6.353402924      2.448      5.029
REMARK  17 active torsions:
REMARK  status: ('A' for Active; 'I' for Inactive)
REMARK    1  A    between atoms: C2_2  and  C3_3
REMARK    2  A    between atoms: C2_2  and  C9_9
REMARK    3  A    between atoms: C4_4  and  C5_5
REMARK    4  A    between atoms: C9_9  and  C10_10
REMARK    5  A    between atoms: C10_10  and  O1_11
REMARK    6  A    between atoms: C10_10  and  C11_13
REMARK    7  A    between atoms: C11_13  and  O2_14
REMARK    8  A    between atoms: C11_13  and  C12_16
REMARK    9  A    between atoms: C12_16  and  C13_17
REMARK   10  A    between atoms: C13_17  and  C14_19
REMARK   11  A    between atoms: C14_19  and  C15_20
REMARK       I    between atoms: C15_20  and  N1_22
REMARK   12  A    between atoms: N1_22  and  C16_24
REMARK   13  A    between atoms: C16_24  and  C17_25
REMARK   14  A    between atoms: C16_24  and  C36_47
REMARK   15  A    between atoms: C17_25  and  C18_26
REMARK   16  A    between atoms: C18_26  and  C20_28
REMARK   17  A    between atoms: C21_29  and  O4_30
ROOT
HETATM    1  C16 UNL     1      16.197  21.335  13.833  1.00  0.00     0.185 C
ENDROOT
BRANCH   1   2
HETATM    2  N1  UNL     1      14.866  21.918  13.470  1.00  0.00    -0.346 N
HETATM    3  C15 UNL     1      14.285  21.686  12.212  1.00  0.00     0.221 C
HETATM    4  O3  UNL     1      14.906  20.980  11.398  1.00  0.00    -0.273 OA
ATOM      5  H1  UNL     1      14.370  22.494  14.151  1.00  0.00     0.163 HD
BRANCH   3   6
HETATM    6  C14 UNL     1      12.984  22.279  11.914  1.00  0.00     0.140 C
BRANCH   6   7
HETATM    7  C13 UNL     1      12.962  23.725  11.571  1.00  0.00     0.181 C
HETATM    8  F1  UNL     1      12.146  23.938  10.460  1.00  0.00    -0.249 F
BRANCH   7   9
HETATM    9  C12 UNL     1      12.642  24.601  12.727  1.00  0.00     0.072 C
BRANCH   9  10
HETATM   10  C11 UNL     1      13.776  25.507  13.170  1.00  0.00     0.149 C
BRANCH  10  11
HETATM   11  C10 UNL     1      14.035  25.425  14.648  1.00  0.00     0.147 C
BRANCH  11  12
HETATM   12  C9  UNL     1      15.487  25.907  14.880  1.00  0.00     0.042 C
BRANCH  12  13
HETATM   13  C2  UNL     1      15.566  26.879  16.039  1.00  0.00     0.006 C
HETATM   14  C1  UNL     1      16.694  27.881  15.874  1.00  0.00     0.014 C
BRANCH  13  15
HETATM   15  C3  UNL     1      15.816  26.123  17.281  1.00  0.00    -0.026 C
HETATM   16  C4  UNL     1      16.632  25.088  17.284  1.00  0.00    -0.022 C
BRANCH  16  17
HETATM   17  C5  UNL     1      16.880  24.323  18.561  1.00  0.00    -0.034 C
HETATM   18  C6  UNL     1      18.222  24.640  19.134  1.00  0.00     0.018 C
HETATM   19  C7  UNL     1      16.772  22.862  18.211  1.00  0.00     0.018 C
HETATM   20  C8  UNL     1      15.807  24.740  19.530  1.00  0.00     0.018 C
ENDBRANCH  16  17
ENDBRANCH  13  15
ENDBRANCH  12  13
ENDBRANCH  11  12
BRANCH  11  21
HETATM   21  O1  UNL     1      13.964  24.127  15.104  1.00  0.00    -0.393 OA
ATOM     22  H1  UNL     1      13.069  23.979  15.384  1.00  0.00     0.210 HD
ENDBRANCH  11  21
ENDBRANCH  10  11
BRANCH  10  23
HETATM   23  O2  UNL     1      14.936  25.014  12.524  1.00  0.00    -0.393 OA
ATOM     24  H2  UNL     1      14.786  25.098  11.589  1.00  0.00     0.210 HD
ENDBRANCH  10  23
ENDBRANCH   9  10
ENDBRANCH   7   9
ENDBRANCH   6   7
ENDBRANCH   3   6
ENDBRANCH   1   2
BRANCH   1  25
HETATM   25  C17 UNL     1      16.991  22.502  14.294  1.00  0.00     0.041 C
BRANCH  25  26
HETATM   26  C18 UNL     1      18.228  22.837  13.511  1.00  0.00    -0.009 C
HETATM   27  C19 UNL     1      18.052  22.392  12.107  1.00  0.00     0.010 C
BRANCH  26  28
HETATM   28  C20 UNL     1      18.514  24.258  13.750  1.00  0.00     0.027 C
HETATM   29  C21 UNL     1      18.491  25.218  12.640  1.00  0.00     0.123 C
HETATM   30  C22 UNL     1      19.074  26.470  13.313  1.00  0.00     0.038 C
HETATM   31  C23 UNL     1      19.457  26.092  14.700  1.00  0.00     0.005 C
HETATM   32  C24 UNL     1      19.752  24.600  14.542  1.00  0.00    -0.033 C
HETATM   33  C34 UNL     1      20.520  26.870  15.365  1.00  0.00    -0.031 C
HETATM   34  C25 UNL     1      19.583  23.849  15.860  1.00  0.00     0.016 C
HETATM   35  C26 UNL     1      21.036  24.322  13.894  1.00  0.00     0.010 C
HETATM   36  C27 UNL     1      22.058  25.443  14.026  1.00  0.00     0.009 C
HETATM   37  C28 UNL     1      21.890  26.251  15.262  1.00  0.00     0.028 C
HETATM   38  C29 UNL     1      23.011  27.268  15.315  1.00  0.00     0.058 C
HETATM   39  C30 UNL     1      24.308  26.527  15.062  1.00  0.00     0.046 C
HETATM   40  C31 UNL     1      23.133  27.933  16.654  1.00  0.00     0.046 C
HETATM   41  O5  UNL     1      22.784  28.125  14.268  1.00  0.00    -0.381 OA
HETATM   42  C32 UNL     1      21.711  28.946  14.510  1.00  0.00     0.169 C
HETATM   43  C33 UNL     1      20.457  28.304  14.930  1.00  0.00     0.036 C
HETATM   44  C35 UNL     1      20.197  26.858  16.872  1.00  0.00     0.016 C
BRANCH  29  45
HETATM   45  O4  UNL     1      19.136  24.904  11.485  1.00  0.00    -0.395 OA
ATOM     46  H4  UNL     1      18.876  24.123  11.010  1.00  0.00     0.210 HD
ENDBRANCH  29  45
ENDBRANCH  26  28
ENDBRANCH  25  26
ENDBRANCH   1  25
BRANCH   1  47
HETATM   47  C36 UNL     1      16.001  20.324  14.871  1.00  0.00     0.196 C
HETATM   48  O6  UNL     1      14.978  19.601  14.867  1.00  0.00    -0.646 OA
HETATM   49  O7  UNL     1      16.919  20.131  15.873  1.00  0.00    -0.646 OA
ENDBRANCH   1  47
TORSDOF 17
ENDMDL