MODEL 1
REMARK VINA RESULT: -6.718882191      0.000      0.000
REMARK  21 active torsions:
REMARK  status: ('A' for Active; 'I' for Inactive)
REMARK    1  A    between atoms: C2_2  and  C3_3
REMARK    2  A    between atoms: C3_3  and  C4_4
REMARK    3  A    between atoms: C4_4  and  O1_5
REMARK    4  A    between atoms: O1_5  and  C5_6
REMARK       I    between atoms: C5_6  and  N1_8
REMARK    5  A    between atoms: N1_8  and  C6_10
REMARK    6  A    between atoms: C6_10  and  C7_11
REMARK    7  A    between atoms: C7_11  and  C8_12
REMARK    8  A    between atoms: C8_12  and  C9_13
REMARK    9  A    between atoms: C9_13  and  C10_14
REMARK   10  A    between atoms: C10_14  and  C11_15
REMARK   11  A    between atoms: C11_15  and  C12_16
REMARK   12  A    between atoms: C12_16  and  N2_17
REMARK       I    between atoms: N2_17  and  C13_19
REMARK   13  A    between atoms: C13_19  and  C14_21
REMARK   14  A    between atoms: C19_28  and  C20_29
REMARK   15  A    between atoms: C20_29  and  O4_30
REMARK   16  A    between atoms: C20_29  and  N4_32
REMARK   17  A    between atoms: N4_32  and  N5_34
REMARK   18  A    between atoms: N5_34  and  C21_36
REMARK   19  A    between atoms: C21_36  and  N6_38
REMARK       I    between atoms: N6_38  and  C22_40
REMARK   20  A    between atoms: C22_40  and  C23_42
REMARK   21  A    between atoms: C27_46  and  C28_47
ROOT
HETATM    1  C14 UNL     1      19.696  24.596  15.012  1.00  0.00     0.042 C
HETATM    2  C15 UNL     1      20.793  24.340  14.041  1.00  0.00     0.018 C
HETATM    3  C16 UNL     1      22.176  23.973  14.483  1.00  0.00     0.069 C
HETATM    4  N3  UNL     1      20.526  24.417  12.810  1.00  0.00    -0.362 N
ATOM      5  H3  UNL     1      21.265  24.225  12.133  1.00  0.00     0.165 HD
HETATM    6  C17 UNL     1      19.240  24.759  12.337  1.00  0.00     0.017 C
HETATM    7  C18 UNL     1      19.108  24.755  10.841  1.00  0.00     0.069 C
HETATM    8  C19 UNL     1      18.227  25.068  13.115  1.00  0.00     0.027 C
HETATM    9  C27 UNL     1      18.649  25.505  14.540  1.00  0.00     0.088 C
ENDROOT
BRANCH   1  10
HETATM   10  C13 UNL     1      20.238  24.732  16.360  1.00  0.00     0.250 C
HETATM   11  N2  UNL     1      19.824  23.907  17.467  1.00  0.00    -0.357 N
ATOM     12  H2  UNL     1      19.113  23.194  17.307  1.00  0.00     0.162 HD
HETATM   13  O3  UNL     1      21.115  25.586  16.670  1.00  0.00    -0.268 OA
BRANCH  11  14
HETATM   14  C12 UNL     1      20.367  24.049  18.775  1.00  0.00     0.123 C
BRANCH  14  15
HETATM   15  C11 UNL     1      19.410  24.137  19.898  1.00  0.00     0.020 C
BRANCH  15  16
HETATM   16  C10 UNL     1      19.313  25.547  20.406  1.00  0.00     0.002 C
BRANCH  16  17
HETATM   17  C9  UNL     1      18.118  26.240  19.820  1.00  0.00     0.000 C
BRANCH  17  18
HETATM   18  C8  UNL     1      17.022  25.283  19.496  1.00  0.00     0.002 C
BRANCH  18  19
HETATM   19  C7  UNL     1      15.683  25.988  19.321  1.00  0.00     0.020 C
BRANCH  19  20
HETATM   20  C6  UNL     1      15.418  26.270  17.863  1.00  0.00     0.125 C
BRANCH  20  21
HETATM   21  N1  UNL     1      15.935  25.215  17.037  1.00  0.00    -0.337 N
HETATM   22  C5  UNL     1      15.047  24.194  16.544  1.00  0.00     0.360 C
HETATM   23  O2  UNL     1      13.827  24.267  16.853  1.00  0.00    -0.239 OA
ATOM     24  H1  UNL     1      16.927  25.189  16.801  1.00  0.00     0.164 HD
BRANCH  22  25
HETATM   25  O1  UNL     1      15.547  23.188  15.766  1.00  0.00    -0.304 OA
BRANCH  25  26
HETATM   26  C4  UNL     1      16.783  22.589  15.995  1.00  0.00     0.180 C
BRANCH  26  27
HETATM   27  C3  UNL     1      16.715  21.387  16.869  1.00  0.00     0.026 C
BRANCH  27  28
HETATM   28  C2  UNL     1      16.353  20.173  16.016  1.00  0.00    -0.002 C
HETATM   29  C1  UNL     1      17.056  18.948  16.527  1.00  0.00     0.005 C
ENDBRANCH  27  28
ENDBRANCH  26  27
ENDBRANCH  25  26
ENDBRANCH  22  25
ENDBRANCH  20  21
ENDBRANCH  19  20
ENDBRANCH  18  19
ENDBRANCH  17  18
ENDBRANCH  16  17
ENDBRANCH  15  16
ENDBRANCH  14  15
ENDBRANCH  11  14
ENDBRANCH   1  10
BRANCH   9  30
HETATM   30  C28 UNL     1      18.978  26.945  14.632  1.00  0.00     0.042 C
HETATM   31  C29 UNL     1      18.103  27.861  13.837  1.00  0.00     0.033 C
HETATM   32  C30 UNL     1      20.397  27.351  14.317  1.00  0.00     0.033 C
HETATM   33 CL1  UNL     1      18.592  27.466  16.338  1.00  0.00    -0.119 Cl
ENDBRANCH   9  30
BRANCH   8  34
HETATM   34  C20 UNL     1      16.921  25.364  12.661  1.00  0.00     0.164 C
BRANCH  34  35
HETATM   35  O4  UNL     1      16.006  24.554  13.171  1.00  0.00    -0.345 OA
ATOM     36  H4  UNL     1      15.608  24.900  13.961  1.00  0.00     0.219 HD
ENDBRANCH  34  35
BRANCH  34  37
HETATM   37  N4  UNL     1      16.322  26.279  11.820  1.00  0.00    -0.277 N
ATOM     38  H4  UNL     1      16.733  26.434  10.899  1.00  0.00     0.189 HD
BRANCH  37  39
HETATM   39  N5  UNL     1      15.159  27.018  12.176  1.00  0.00    -0.274 N
ATOM     40  H5  UNL     1      14.679  26.786  13.046  1.00  0.00     0.189 HD
BRANCH  39  41
HETATM   41  C21 UNL     1      14.647  28.053  11.378  1.00  0.00     0.193 C
HETATM   42  S1  UNL     1      15.143  29.572  11.704  1.00  0.00    -0.039 SA
BRANCH  41  43
HETATM   43  N6  UNL     1      13.736  27.853  10.319  1.00  0.00    -0.302 N
HETATM   44  C22 UNL     1      12.559  27.084  10.436  1.00  0.00     0.231 C
HETATM   45  O5  UNL     1      12.282  26.544  11.522  1.00  0.00    -0.272 OA
ATOM     46  H6  UNL     1      13.939  28.289   9.420  1.00  0.00     0.171 HD
BRANCH  44  47
HETATM   47  C23 UNL     1      11.617  26.877   9.310  1.00  0.00     0.030 C
HETATM   48  C24 UNL     1      10.237  27.369   9.679  1.00  0.00     0.025 C
HETATM   49  C25 UNL     1      12.112  27.549   8.045  1.00  0.00     0.025 C
HETATM   50  C26 UNL     1      11.486  25.404   8.984  1.00  0.00     0.025 C
ENDBRANCH  44  47
ENDBRANCH  41  43
ENDBRANCH  39  41
ENDBRANCH  37  39
ENDBRANCH  34  37
ENDBRANCH   8  34
TORSDOF 21
ENDMDL