MODEL 3
REMARK VINA RESULT: -7.643026973      1.837      2.455
REMARK  16 active torsions:
REMARK  status: ('A' for Active; 'I' for Inactive)
REMARK    1  A    between atoms: C2_2  and  C3_3
REMARK    2  A    between atoms: C3_3  and  O2_5
REMARK    3  A    between atoms: O2_5  and  C4_6
REMARK    4  A    between atoms: C6_8  and  N1_9
REMARK    5  A    between atoms: N1_9  and  C7_11
REMARK    6  A    between atoms: C7_11  and  C8_12
REMARK    7  A    between atoms: C7_11  and  C9_14
REMARK       I    between atoms: C9_14  and  N2_16
REMARK       I    between atoms: N2_16  and  C10_18
REMARK    8  A    between atoms: C10_18  and  C11_20
REMARK    9  A    between atoms: C11_20  and  N3_21
REMARK   10  A    between atoms: C11_20  and  C15_26
REMARK   11  A    between atoms: N3_21  and  C12_23
REMARK   12  A    between atoms: C18_29  and  C19_30
REMARK   13  A    between atoms: C21_32  and  C22_33
REMARK   14  A    between atoms: C22_33  and  C23_34
REMARK   15  A    between atoms: C23_34  and  C24_35
REMARK   16  A    between atoms: C32_45  and  O7_46
ROOT
HETATM    1  C4  UNL     1      16.349  22.231  13.027  1.00  0.00     0.138 C
HETATM    2  C5  UNL     1      15.830  23.170  14.131  1.00  0.00     0.058 C
HETATM    3  C6  UNL     1      16.379  24.508  13.677  1.00  0.00     0.088 C
HETATM    4  C18 UNL     1      17.763  24.114  13.117  1.00  0.00     0.050 C
HETATM    5  C33 UNL     1      17.826  22.681  13.069  1.00  0.00     0.022 C
HETATM    6  C34 UNL     1      18.391  22.097  11.772  1.00  0.00     0.013 C
ENDROOT
BRANCH   3   7
HETATM    7  N1  UNL     1      15.590  25.171  12.779  1.00  0.00    -0.403 N
ATOM      8  H1  UNL     1      14.878  24.603  12.319  1.00  0.00     0.154 HD
BRANCH   7   9
HETATM    9  C7  UNL     1      15.618  26.488  12.409  1.00  0.00     0.184 C
BRANCH   9  10
HETATM   10  C8  UNL     1      15.864  27.576  13.393  1.00  0.00     0.149 C
HETATM   11 CL1  UNL     1      17.467  28.342  13.140  1.00  0.00    -0.128 Cl
ENDBRANCH   9  10
BRANCH   9  12
HETATM   12  C9  UNL     1      14.240  26.842  11.798  1.00  0.00     0.247 C
HETATM   13  O3  UNL     1      13.926  28.049  11.708  1.00  0.00    -0.271 OA
HETATM   14  N2  UNL     1      13.445  25.769  11.390  1.00  0.00    -0.294 N
HETATM   15  C10 UNL     1      12.224  25.797  10.712  1.00  0.00     0.247 C
ATOM     16  H2  UNL     1      13.803  24.842  11.616  1.00  0.00     0.171 HD
HETATM   17  O4  UNL     1      11.553  24.728  10.492  1.00  0.00    -0.271 OA
BRANCH  15  18
HETATM   18  C11 UNL     1      11.620  27.041  10.189  1.00  0.00     0.173 C
BRANCH  18  19
HETATM   19  N3  UNL     1      10.214  26.876   9.823  1.00  0.00    -0.406 N
ATOM     20  H3  UNL     1       9.905  26.179   9.145  1.00  0.00     0.154 HD
BRANCH  19  21
HETATM   21  C12 UNL     1       9.309  27.754  10.476  1.00  0.00     0.069 C
HETATM   22  C13 UNL     1       8.042  28.002   9.668  1.00  0.00     0.031 C
HETATM   23  C14 UNL     1       8.858  27.024  11.753  1.00  0.00     0.031 C
ENDBRANCH  19  21
ENDBRANCH  18  19
BRANCH  18  24
HETATM   24  C15 UNL     1      12.300  27.236   8.808  1.00  0.00     0.009 C
HETATM   25  C16 UNL     1      11.254  26.789   7.775  1.00  0.00     0.012 C
HETATM   26  C17 UNL     1      12.623  28.669   8.534  1.00  0.00     0.012 C
ENDBRANCH  18  24
ENDBRANCH  15  18
ENDBRANCH   9  12
ENDBRANCH   7   9
ENDBRANCH   3   7
BRANCH   4  27
HETATM   27  C19 UNL     1      18.810  24.975  13.631  1.00  0.00    -0.018 A
HETATM   28  C20 UNL     1      18.671  25.448  14.921  1.00  0.00     0.018 A
HETATM   29  C21 UNL     1      19.585  26.337  15.518  1.00  0.00    -0.050 A
HETATM   30  C29 UNL     1      20.675  26.770  14.797  1.00  0.00    -0.053 A
HETATM   31  C30 UNL     1      21.683  27.758  15.301  1.00  0.00     0.049 C
HETATM   32  C31 UNL     1      20.825  26.302  13.504  1.00  0.00     0.044 A
HETATM   33  C32 UNL     1      19.899  25.418  12.940  1.00  0.00     0.072 A
BRANCH  29  34
HETATM   34  C22 UNL     1      19.430  26.763  16.906  1.00  0.00     0.059 C
BRANCH  34  35
HETATM   35  C23 UNL     1      19.814  25.782  17.964  1.00  0.00     0.052 C
HETATM   36  C25 UNL     1      20.353  24.475  17.518  1.00  0.00     0.021 C
HETATM   37  C26 UNL     1      20.159  23.558  18.738  1.00  0.00     0.001 C
HETATM   38  C27 UNL     1      19.107  24.191  19.580  1.00  0.00     0.001 C
HETATM   39  C28 UNL     1      18.564  25.313  18.743  1.00  0.00     0.021 C
BRANCH  35  40
HETATM   40  C24 UNL     1      20.683  26.442  18.972  1.00  0.00     0.182 C
HETATM   41  O5  UNL     1      20.170  27.236  19.793  1.00  0.00    -0.647 OA
HETATM   42  O6  UNL     1      22.065  26.197  19.017  1.00  0.00    -0.647 OA
ENDBRANCH  35  40
ENDBRANCH  34  35
ENDBRANCH  29  34
BRANCH  33  43
HETATM   43  O7  UNL     1      20.087  24.980  11.658  1.00  0.00    -0.360 OA
ATOM     44  H7  UNL     1      19.386  25.100  11.027  1.00  0.00     0.217 HD
ENDBRANCH  33  43
ENDBRANCH   4  27
BRANCH   1  45
HETATM   45  O2  UNL     1      16.283  20.906  13.428  1.00  0.00    -0.312 OA
BRANCH  45  46
HETATM   46  C3  UNL     1      15.648  19.947  12.597  1.00  0.00     0.282 C
HETATM   47  O1  UNL     1      15.110  20.423  11.555  1.00  0.00    -0.260 OA
BRANCH  46  48
HETATM   48  C2  UNL     1      15.623  18.541  12.920  1.00  0.00     0.072 C
HETATM   49  C1  UNL     1      15.234  18.119  14.105  1.00  0.00     0.017 C
ENDBRANCH  46  48
ENDBRANCH  45  46
ENDBRANCH   1  45
TORSDOF 16
ENDMDL