MODEL 3
REMARK VINA RESULT: -7.706836069      2.863      9.421
REMARK  17 active torsions:
REMARK  status: ('A' for Active; 'I' for Inactive)
REMARK    1  A    between atoms: C2_2  and  N1_3
REMARK       I    between atoms: N1_3  and  C3_5
REMARK    2  A    between atoms: C3_5  and  C4_7
REMARK    3  A    between atoms: C6_11  and  C7_12
REMARK    4  A    between atoms: C11_18  and  C12_19
REMARK    5  A    between atoms: C12_19  and  O2_20
REMARK    6  A    between atoms: C12_19  and  N4_22
REMARK    7  A    between atoms: N4_22  and  C13_24
REMARK    8  A    between atoms: C13_24  and  C20_33
REMARK    9  A    between atoms: C14_25  and  C15_26
REMARK   10  A    between atoms: C20_33  and  C21_34
REMARK   11  A    between atoms: C20_33  and  N5_36
REMARK   12  A    between atoms: N5_36  and  C23_38
REMARK   13  A    between atoms: C23_38  and  O3_39
REMARK   14  A    between atoms: C24_41  and  N6_42
REMARK   15  A    between atoms: C24_41  and  C27_48
REMARK       I    between atoms: N6_42  and  C25_44
REMARK   16  A    between atoms: C25_44  and  O5_46
REMARK   17  A    between atoms: C27_48  and  C29_50
ROOT
HETATM    1  C13 UNL     1      14.772  23.731  13.578  1.00  0.00     0.053 C
HETATM    2  C14 UNL     1      14.345  22.435  13.100  1.00  0.00     0.015 C
ENDROOT
BRANCH   1   3
HETATM    3  N4  UNL     1      16.144  24.189  13.388  1.00  0.00    -0.335 N
ATOM      4  H4  UNL     1      16.639  23.775  12.599  1.00  0.00     0.168 HD
BRANCH   3   5
HETATM    5  C12 UNL     1      16.863  25.103  14.127  1.00  0.00     0.152 C
BRANCH   5   6
HETATM    6  C11 UNL     1      17.992  24.813  14.984  1.00  0.00     0.030 A
HETATM    7  C9  UNL     1      17.864  24.223  16.209  1.00  0.00    -0.032 A
HETATM    8  C8  UNL     1      19.018  23.988  16.953  1.00  0.00     0.096 A
HETATM    9  C10 UNL     1      16.589  23.789  16.843  1.00  0.00     0.050 C
HETATM   10  N3  UNL     1      20.207  24.322  16.495  1.00  0.00    -0.364 N
HETATM   11  C7  UNL     1      20.420  24.916  15.280  1.00  0.00     0.057 A
ATOM     12  H3  UNL     1      21.019  24.127  17.082  1.00  0.00     0.165 HD
HETATM   13  C31 UNL     1      19.295  25.145  14.546  1.00  0.00    -0.019 A
HETATM   14  C32 UNL     1      19.487  25.674  13.162  1.00  0.00     0.052 C
BRANCH  11  15
HETATM   15  C6  UNL     1      21.790  25.283  14.939  1.00  0.00     0.049 A
HETATM   16  C5  UNL     1      22.781  24.388  14.595  1.00  0.00     0.110 A
HETATM   17  N2  UNL     1      23.945  24.869  14.321  1.00  0.00    -0.354 N
HETATM   18  C4  UNL     1      24.167  26.168  14.370  1.00  0.00     0.143 A
ATOM     19  H2  UNL     1      24.703  24.237  14.064  1.00  0.00     0.166 HD
HETATM   20  S1  UNL     1      22.636  26.753  14.834  1.00  0.00    -0.063 SA
BRANCH  18  21
HETATM   21  C3  UNL     1      25.421  26.901  14.072  1.00  0.00     0.275 C
HETATM   22  N1  UNL     1      25.916  26.927  12.738  1.00  0.00    -0.356 N
ATOM     23  H1  UNL     1      25.422  26.444  11.987  1.00  0.00     0.162 HD
HETATM   24  O1  UNL     1      25.991  27.466  15.011  1.00  0.00    -0.265 OA
BRANCH  22  25
HETATM   25  C2  UNL     1      27.138  27.656  12.472  1.00  0.00     0.118 C
HETATM   26  C1  UNL     1      26.882  28.822  11.536  1.00  0.00     0.026 C
ENDBRANCH  22  25
ENDBRANCH  18  21
ENDBRANCH  11  15
ENDBRANCH   5   6
BRANCH   5  27
HETATM   27  O2  UNL     1      16.555  26.368  14.089  1.00  0.00    -0.345 OA
ATOM     28  H2  UNL     1      16.194  26.694  14.905  1.00  0.00     0.219 HD
ENDBRANCH   5  27
ENDBRANCH   3   5
ENDBRANCH   1   3
BRANCH   1  29
HETATM   29  C20 UNL     1      13.855  24.895  13.520  1.00  0.00     0.037 C
BRANCH  29  30
HETATM   30  C21 UNL     1      12.916  25.193  14.614  1.00  0.00     0.055 C
HETATM   31  C22 UNL     1      13.349  25.229  16.013  1.00  0.00     0.011 C
ENDBRANCH  29  30
BRANCH  29  32
HETATM   32  N5  UNL     1      13.199  25.127  12.214  1.00  0.00    -0.337 N
ATOM     33  H5  UNL     1      12.478  24.476  11.903  1.00  0.00     0.168 HD
BRANCH  32  34
HETATM   34  C23 UNL     1      13.532  26.210  11.391  1.00  0.00     0.168 C
HETATM   35  C24 UNL     1      12.862  27.014  10.414  1.00  0.00     0.090 C
BRANCH  34  36
HETATM   36  O3  UNL     1      14.799  26.563  11.597  1.00  0.00    -0.344 OA
ATOM     37  H3  UNL     1      15.074  27.183  10.932  1.00  0.00     0.219 HD
ENDBRANCH  34  36
BRANCH  35  38
HETATM   38  N6  UNL     1      13.153  28.450  10.615  1.00  0.00    -0.299 N
HETATM   39  C25 UNL     1      13.390  29.390   9.633  1.00  0.00     0.364 C
HETATM   40  O4  UNL     1      13.384  29.108   8.395  1.00  0.00    -0.238 OA
ATOM     41  H6  UNL     1      13.182  28.779  11.580  1.00  0.00     0.171 HD
BRANCH  39  42
HETATM   42  O5  UNL     1      13.651  30.704   9.964  1.00  0.00    -0.309 OA
HETATM   43  C26 UNL     1      14.655  31.122  10.869  1.00  0.00     0.215 C
ENDBRANCH  39  42
ENDBRANCH  35  38
BRANCH  35  44
HETATM   44  C27 UNL     1      11.554  26.722   9.838  1.00  0.00    -0.053 C
HETATM   45  C28 UNL     1      10.340  26.768  10.684  1.00  0.00     0.046 C
BRANCH  44  46
HETATM   46  C29 UNL     1      11.474  25.547   8.894  1.00  0.00     0.031 C
HETATM   47  C30 UNL     1      11.524  25.906   7.443  1.00  0.00     0.010 C
ENDBRANCH  44  46
ENDBRANCH  35  44
ENDBRANCH  32  34
ENDBRANCH  29  32
ENDBRANCH   1  29
BRANCH   2  48
HETATM   48  C15 UNL     1      14.855  21.134  13.520  1.00  0.00     0.083 C
HETATM   49  C16 UNL     1      15.317  20.457  12.154  1.00  0.00     0.015 C
HETATM   50  C17 UNL     1      15.657  19.095  12.698  1.00  0.00     0.007 C
HETATM   51  C18 UNL     1      16.249  19.337  14.060  1.00  0.00     0.080 C
HETATM   52  C19 UNL     1      16.048  20.871  14.298  1.00  0.00     0.250 C
HETATM   53  F1  UNL     1      15.947  20.924  15.675  1.00  0.00    -0.206 F
HETATM   54  F2  UNL     1      17.218  21.407  13.801  1.00  0.00    -0.206 F
ENDBRANCH   2  48
TORSDOF 17
ENDMDL