MODEL 1
REMARK VINA RESULT: -7.727567405      0.000      0.000
REMARK  3 active torsions:
REMARK  status: ('A' for Active; 'I' for Inactive)
REMARK    1  A    between atoms: C4_5  and  O1_6
REMARK    2  A    between atoms: C9_19  and  C10_20
REMARK    3  A    between atoms: C13_24  and  O3_25
ROOT
HETATM    1  C1  UNL     1      17.308  13.282  -9.741  1.00  0.00     0.041 C
HETATM    2  C2  UNL     1      16.062  13.234 -10.666  1.00  0.00     0.120 C
HETATM    3  C3  UNL     1      16.206  14.288 -11.614  1.00  0.00     0.078 C
HETATM    4  N1  UNL     1      16.341  15.145 -12.394  1.00  0.00    -0.196 NA
HETATM    5  C4  UNL     1      14.909  13.503  -9.720  1.00  0.00     0.198 C
HETATM    6  C5  UNL     1      14.480  12.406  -8.879  1.00  0.00     0.071 A
HETATM    7  N2  UNL     1      13.901  12.638  -7.681  1.00  0.00    -0.332 N
ATOM      8  H2  UNL     1      13.741  13.593  -7.358  1.00  0.00     0.168 HD
HETATM    9  C6  UNL     1      13.536  11.581  -6.916  1.00  0.00     0.176 A
HETATM   10  S1  UNL     1      12.810  11.855  -5.459  1.00  0.00    -0.041 SA
HETATM   11  N3  UNL     1      13.725  10.331  -7.309  1.00  0.00    -0.341 N
ATOM     12  H3  UNL     1      13.430   9.568  -6.699  1.00  0.00     0.167 HD
HETATM   13  C7  UNL     1      14.299  10.037  -8.496  1.00  0.00     0.122 A
HETATM   14  C8  UNL     1      14.685  11.076  -9.296  1.00  0.00     0.073 A
HETATM   15  N4  UNL     1      15.247  10.889 -10.556  1.00  0.00    -0.354 N
ATOM     16  H4  UNL     1      15.128   9.976 -10.996  1.00  0.00     0.166 HD
HETATM   17  C9  UNL     1      15.974  11.876 -11.275  1.00  0.00     0.050 C
ENDROOT
BRANCH   5  18
HETATM   18  O1  UNL     1      13.811  13.959 -10.485  1.00  0.00    -0.387 OA
ATOM     19  H1  UNL     1      13.216  13.229 -10.612  1.00  0.00     0.210 HD
ENDBRANCH   5  18
BRANCH  17  20
HETATM   20  C10 UNL     1      17.196  11.335 -11.821  1.00  0.00     0.046 A
HETATM   21  C11 UNL     1      17.690  11.506 -13.129  1.00  0.00     0.157 A
HETATM   22  O2  UNL     1      18.719  10.694 -13.278  1.00  0.00    -0.331 OA
HETATM   23  C12 UNL     1      18.983   9.990 -12.214  1.00  0.00     0.178 A
HETATM   24  C13 UNL     1      18.036  10.376 -11.261  1.00  0.00     0.102 A
BRANCH  24  25
HETATM   25  O3  UNL     1      17.953   9.894  -9.956  1.00  0.00    -0.358 OA
ATOM     26  H3  UNL     1      17.897   8.978  -9.711  1.00  0.00     0.217 HD
ENDBRANCH  24  25
ENDBRANCH  17  20
TORSDOF 3
ENDMDL