MODEL 3
REMARK VINA RESULT: -7.660905339      1.676      2.148
REMARK  7 active torsions:
REMARK  status: ('A' for Active; 'I' for Inactive)
REMARK    1  A    between atoms: O1_2  and  C2_3
REMARK    2  A    between atoms: C3_4  and  O2_5
REMARK    3  A    between atoms: C8_11  and  O3_12
REMARK    4  A    between atoms: C11_16  and  C12_17
REMARK    5  A    between atoms: C12_17  and  C13_18
REMARK    6  A    between atoms: C13_18  and  N1_19
REMARK    7  A    between atoms: C16_25  and  N2_26
ROOT
HETATM    1  C2  UNL     1      15.428  10.174  -7.653  1.00  0.00     0.136 A
HETATM    2  C3  UNL     1      14.365  11.047  -7.411  1.00  0.00     0.110 A
HETATM    3  C4  UNL     1      14.292  12.223  -8.115  1.00  0.00     0.009 A
HETATM    4  C5  UNL     1      13.148  13.149  -7.845  1.00  0.00     0.054 C
HETATM    5  C6  UNL     1      15.260  12.546  -9.057  1.00  0.00     0.094 A
HETATM    6  C7  UNL     1      16.325  11.718  -9.329  1.00  0.00     0.023 A
HETATM    7  C8  UNL     1      16.355  10.533  -8.586  1.00  0.00     0.111 A
HETATM    8  C9  UNL     1      17.300  12.043 -10.256  1.00  0.00     0.086 A
HETATM    9  C10 UNL     1      17.027  13.345 -10.914  1.00  0.00    -0.035 A
HETATM   10  C11 UNL     1      16.012  14.119 -10.650  1.00  0.00     0.088 A
HETATM   11  O4  UNL     1      15.065  13.763  -9.700  1.00  0.00    -0.309 OA
HETATM   12  C14 UNL     1      18.140  13.536 -11.944  1.00  0.00     0.040 C
HETATM   13  C15 UNL     1      18.703  12.140 -12.143  1.00  0.00     0.038 C
HETATM   14  C16 UNL     1      17.669  11.310 -11.468  1.00  0.00     0.196 C
ENDROOT
BRANCH  10  15
HETATM   15  C12 UNL     1      15.918  15.366 -11.401  1.00  0.00     0.111 C
BRANCH  15  16
HETATM   16  C13 UNL     1      14.794  16.043 -11.374  1.00  0.00    -0.046 C
BRANCH  16  17
HETATM   17  N1  UNL     1      13.588  16.421 -11.159  1.00  0.00    -0.366 N
ATOM     18  H12 UNL     1      13.430  16.709 -12.126  1.00  0.00     0.165 HD
ATOM     19  H11 UNL     1      12.690  16.636 -10.725  1.00  0.00     0.165 HD
ENDBRANCH  16  17
ENDBRANCH  15  16
ENDBRANCH  10  15
BRANCH  14  20
HETATM   20  N2  UNL     1      16.654  10.759 -12.275  1.00  0.00    -0.074 N
ATOM     21  H23 UNL     1      16.783   9.748 -12.315  1.00  0.00     0.274 HD
ATOM     22  H22 UNL     1      15.767  10.829 -11.777  1.00  0.00     0.274 HD
ATOM     23  H21 UNL     1      16.526  11.111 -13.223  1.00  0.00     0.274 HD
ENDBRANCH  14  20
BRANCH   7  24
HETATM   24  O3  UNL     1      17.414   9.716  -8.862  1.00  0.00    -0.357 OA
ATOM     25  H3  UNL     1      18.060   9.967  -9.511  1.00  0.00     0.217 HD
ENDBRANCH   7  24
BRANCH   2  26
HETATM   26  O2  UNL     1      13.427  10.667  -6.454  1.00  0.00    -0.357 OA
ATOM     27  H2  UNL     1      12.510  10.718  -6.695  1.00  0.00     0.217 HD
ENDBRANCH   2  26
BRANCH   1  28
HETATM   28  O1  UNL     1      15.511   8.983  -6.946  1.00  0.00    -0.351 OA
HETATM   29  C1  UNL     1      16.243   8.813  -5.766  1.00  0.00     0.210 C
ENDBRANCH   1  28
TORSDOF 7
ENDMDL