MODEL 2
REMARK VINA RESULT: -8.398264962      2.515      7.152
REMARK  7 active torsions:
REMARK  status: ('A' for Active; 'I' for Inactive)
REMARK    1  A    between atoms: O1_2  and  C2_3
REMARK    2  A    between atoms: C2_3  and  O3_5
REMARK    3  A    between atoms: O3_5  and  C3_6
REMARK    4  A    between atoms: C8_11  and  O4_12
REMARK    5  A    between atoms: C9_16  and  C11_18
REMARK    6  A    between atoms: C11_18  and  O5_19
REMARK    7  A    between atoms: N2_21  and  O6_23
ROOT
HETATM    1  C3  UNL     1      18.041  12.796 -10.760  1.00  0.00     0.115 A
HETATM    2  C4  UNL     1      18.030  11.805  -9.804  1.00  0.00     0.049 A
HETATM    3  C5  UNL     1      16.822  11.371  -9.267  1.00  0.00    -0.029 A
HETATM    4  C6  UNL     1      15.609  11.887  -9.645  1.00  0.00     0.038 A
HETATM    5  C7  UNL     1      15.631  12.883 -10.608  1.00  0.00     0.069 A
HETATM    6  C8  UNL     1      16.822  13.318 -11.144  1.00  0.00     0.101 A
HETATM    7  N1  UNL     1      14.399  11.422  -9.080  1.00  0.00    -0.373 N
ATOM      8  H1  UNL     1      13.512  11.767  -9.443  1.00  0.00     0.161 HD
HETATM    9  C9  UNL     1      14.399  10.477  -8.008  1.00  0.00     0.093 C
HETATM   10  C10 UNL     1      13.991   9.119  -8.590  1.00  0.00     0.048 C
HETATM   11  C12 UNL     1      15.718  10.313  -7.311  1.00  0.00     0.044 C
HETATM   12  C13 UNL     1      16.888  10.318  -8.257  1.00  0.00     0.044 C
ENDROOT
BRANCH   9  13
HETATM   13  C11 UNL     1      13.353  10.895  -7.050  1.00  0.00     0.164 C
HETATM   14  N2  UNL     1      13.523  10.789  -5.787  1.00  0.00    -0.249 N
ATOM     15  H2  UNL     1      14.409  10.405  -5.460  1.00  0.00     0.196 HD
BRANCH  13  16
HETATM   16  O5  UNL     1      12.178  11.408  -7.551  1.00  0.00    -0.346 OA
ATOM     17  H5  UNL     1      12.072  12.352  -7.568  1.00  0.00     0.219 HD
ENDBRANCH  13  16
BRANCH  14  18
HETATM   18  O6  UNL     1      12.612  11.152  -4.850  1.00  0.00    -0.288 OA
ATOM     19  H6  UNL     1      12.799  11.696  -4.094  1.00  0.00     0.244 HD
ENDBRANCH  14  18
ENDBRANCH   9  13
BRANCH   6  20
HETATM   20  O4  UNL     1      16.791  14.334 -12.119  1.00  0.00    -0.358 OA
ATOM     21  H4  UNL     1      16.078  14.348 -12.746  1.00  0.00     0.217 HD
ENDBRANCH   6  20
BRANCH   1  22
HETATM   22  O3  UNL     1      19.213  13.276 -11.338  1.00  0.00    -0.253 OA
BRANCH  22  23
HETATM   23  C2  UNL     1      19.978  12.513 -12.204  1.00  0.00     0.411 C
HETATM   24  O2  UNL     1      21.211  12.774 -12.251  1.00  0.00    -0.229 OA
BRANCH  23  25
HETATM   25  O1  UNL     1      19.493  11.509 -13.001  1.00  0.00    -0.303 OA
HETATM   26  C1  UNL     1      19.757  10.164 -12.664  1.00  0.00     0.215 C
ENDBRANCH  23  25
ENDBRANCH  22  23
ENDBRANCH   1  22
TORSDOF 7
ENDMDL