MODEL 1
REMARK VINA RESULT: -7.790834097      0.000      0.000
REMARK  4 active torsions:
REMARK  status: ('A' for Active; 'I' for Inactive)
REMARK    1  A    between atoms: O1_1  and  C1_3
REMARK    2  A    between atoms: C2_4  and  N1_5
REMARK    3  A    between atoms: N1_5  and  C3_7
REMARK    4  A    between atoms: N6_23  and  N7_24
ROOT
HETATM    1  C1  UNL     1      13.783  11.562  -7.993  1.00  0.00     0.193 A
HETATM    2  C2  UNL     1      14.870  10.958  -8.580  1.00  0.00     0.116 A
HETATM    3  C5  UNL     1      15.412  10.156  -7.606  1.00  0.00     0.042 A
HETATM    4  C6  UNL     1      16.490   9.311  -7.567  1.00  0.00     0.019 A
HETATM    5  C7  UNL     1      16.778   8.630  -6.406  1.00  0.00     0.018 A
HETATM    6  C8  UNL     1      16.016   8.764  -5.265  1.00  0.00     0.090 A
HETATM    7  N5  UNL     1      14.961   9.596  -5.316  1.00  0.00    -0.350 N
ATOM      8  H5  UNL     1      14.381   9.714  -4.485  1.00  0.00     0.166 HD
HETATM    9  C9  UNL     1      14.647  10.283  -6.442  1.00  0.00     0.142 A
HETATM   10  N6  UNL     1      13.658  11.150  -6.709  1.00  0.00    -0.208 N
ENDROOT
BRANCH   2  11
HETATM   11  N1  UNL     1      15.316  11.132  -9.884  1.00  0.00    -0.185 N
ATOM     12  H1  UNL     1      14.599  11.084 -10.608  1.00  0.00     0.184 HD
BRANCH  11  13
HETATM   13  C3  UNL     1      16.495  11.342 -10.292  1.00  0.00     0.699 A
HETATM   14  N2  UNL     1      17.449  12.195  -9.866  1.00  0.00    -0.130 N
HETATM   15  N3  UNL     1      18.536  12.069 -10.597  1.00  0.00    -0.261 N
ATOM     16  H2  UNL     1      17.342  12.845  -9.088  1.00  0.00     0.205 HD
HETATM   17  C4  UNL     1      18.294  11.119 -11.517  1.00  0.00     0.205 A
ATOM     18  H3  UNL     1      19.403  12.596 -10.487  1.00  0.00     0.190 HD
HETATM   19  S1  UNL     1      19.341  10.587 -12.677  1.00  0.00    -0.039 SA
HETATM   20  N4  UNL     1      17.048  10.679 -11.327  1.00  0.00    -0.163 N
ATOM     21  H4  UNL     1      16.586   9.955 -11.879  1.00  0.00     0.186 HD
ENDBRANCH  11  13
ENDBRANCH   2  11
BRANCH   1  22
HETATM   22  O1  UNL     1      12.948  12.462  -8.645  1.00  0.00    -0.343 OA
ATOM     23  H1  UNL     1      12.874  13.380  -8.413  1.00  0.00     0.219 HD
ENDBRANCH   1  22
BRANCH  10  24
HETATM   24  N7  UNL     1      12.671  11.537  -5.772  1.00  0.00    -0.252 N
HETATM   25  S2  UNL     1      12.569  13.045  -5.216  1.00  0.00     0.060 SA
ATOM     26  H7  UNL     1      12.004  10.841  -5.439  1.00  0.00     0.197 HD
ENDBRANCH  10  24
TORSDOF 4
ENDMDL