MODEL 4
REMARK VINA RESULT: -8.532321757      3.026      6.164
REMARK  4 active torsions:
REMARK  status: ('A' for Active; 'I' for Inactive)
REMARK    1  A    between atoms: N3_10  and  N4_12
REMARK    2  A    between atoms: C11_20  and  O1_21
REMARK    3  A    between atoms: C12_24  and  O3_25
REMARK    4  A    between atoms: C14_28  and  N5_29
ROOT
HETATM    1  N1  UNL     1      16.964  10.227 -12.664  1.00  0.00    -0.403 N
ATOM      2  H11 UNL     1      16.015  10.169 -12.294  1.00  0.00     0.155 HD
ATOM      3  H12 UNL     1      17.324   9.457 -13.227  1.00  0.00     0.155 HD
HETATM    4  C1  UNL     1      17.701  11.234 -12.440  1.00  0.00     0.019 C
HETATM    5  C2  UNL     1      19.073  11.318 -12.974  1.00  0.00     0.074 C
HETATM    6  C3  UNL     1      19.922  12.359 -12.326  1.00  0.00     0.127 C
HETATM    7  N2  UNL     1      19.537  12.703 -10.986  1.00  0.00    -0.376 N
ATOM      8  H2  UNL     1      20.247  13.035 -10.333  1.00  0.00     0.160 HD
HETATM    9  C4  UNL     1      18.187  12.592 -10.547  1.00  0.00     0.128 C
HETATM   10  N3  UNL     1      17.945  12.701  -9.319  1.00  0.00    -0.287 N
ATOM     11  H3  UNL     1      18.762  12.865  -8.731  1.00  0.00     0.188 HD
HETATM   12  C14 UNL     1      17.178  12.350 -11.624  1.00  0.00     0.296 C
ENDROOT
BRANCH  10  13
HETATM   13  N4  UNL     1      16.758  12.634  -8.655  1.00  0.00    -0.302 N
HETATM   14  C5  UNL     1      16.303  11.727  -7.903  1.00  0.00     0.041 C
HETATM   15  C6  UNL     1      17.106  10.491  -7.631  1.00  0.00     0.059 C
HETATM   16  C13 UNL     1      14.979  11.954  -7.333  1.00  0.00     0.057 A
HETATM   17  C7  UNL     1      16.206   9.327  -7.798  1.00  0.00     0.006 C
HETATM   18  C8  UNL     1      15.269   8.962  -6.742  1.00  0.00     0.005 C
HETATM   19  C9  UNL     1      14.839   9.976  -5.745  1.00  0.00     0.044 C
HETATM   20  C10 UNL     1      14.299  11.212  -6.384  1.00  0.00     0.017 A
HETATM   21  C11 UNL     1      13.084  11.807  -6.155  1.00  0.00     0.193 A
HETATM   22  O2  UNL     1      13.032  12.848  -6.920  1.00  0.00    -0.263 OA
HETATM   23  C12 UNL     1      14.127  12.990  -7.643  1.00  0.00     0.198 A
ATOM     24  H4  UNL     1      16.143  13.438  -8.784  1.00  0.00     0.186 HD
BRANCH  21  25
HETATM   25  O1  UNL     1      12.160  11.299  -5.249  1.00  0.00    -0.340 OA
ATOM     26  H1  UNL     1      11.230  11.485  -5.308  1.00  0.00     0.220 HD
ENDBRANCH  21  25
BRANCH  23  27
HETATM   27  O3  UNL     1      14.441  13.972  -8.567  1.00  0.00    -0.340 OA
ATOM     28  H3  UNL     1      15.293  14.240  -8.890  1.00  0.00     0.220 HD
ENDBRANCH  23  27
ENDBRANCH  10  13
BRANCH  12  29
HETATM   29  N5  UNL     1      17.119  13.577 -12.436  1.00  0.00    -0.063 N
ATOM     30  H53 UNL     1      17.976  14.126 -12.363  1.00  0.00     0.275 HD
ATOM     31  H52 UNL     1      17.157  13.377 -13.435  1.00  0.00     0.275 HD
ATOM     32  H51 UNL     1      16.294  14.120 -12.184  1.00  0.00     0.275 HD
ENDBRANCH  12  29
TORSDOF 4
ENDMDL