MODEL 1
REMARK VINA RESULT: -7.666225484      0.000      0.000
REMARK  6 active torsions:
REMARK  status: ('A' for Active; 'I' for Inactive)
REMARK    1  A    between atoms: C2_2  and  C3_3
REMARK    2  A    between atoms: C8_11  and  C9_12
REMARK    3  A    between atoms: C10_13  and  O1_14
REMARK    4  A    between atoms: C11_17  and  O3_18
REMARK    5  A    between atoms: C12_20  and  O4_21
REMARK    6  A    between atoms: C13_24  and  O6_26
ROOT
HETATM    1  C1  UNL     1      17.233  12.619  -8.580  1.00  0.00     0.021 C
HETATM    2  C2  UNL     1      16.356  11.401  -8.720  1.00  0.00    -0.006 C
HETATM    3  C4  UNL     1      15.905  10.796  -7.431  1.00  0.00     0.025 C
HETATM    4  C5  UNL     1      14.514  10.204  -7.725  1.00  0.00     0.049 C
HETATM    5  C6  UNL     1      14.536  10.105  -9.245  1.00  0.00     0.018 C
HETATM    6  C7  UNL     1      15.149  11.509  -9.520  1.00  0.00     0.033 C
HETATM    7  C8  UNL     1      14.034  12.430  -9.188  1.00  0.00     0.171 C
HETATM    8  O5  UNL     1      13.987  12.483  -7.754  1.00  0.00    -0.345 OA
HETATM    9  C13 UNL     1      13.519  11.258  -7.300  1.00  0.00     0.162 C
HETATM   10  C14 UNL     1      13.532  11.340  -5.766  1.00  0.00     0.079 C
ENDROOT
BRANCH   7  11
HETATM   11  C9  UNL     1      14.157  13.795  -9.690  1.00  0.00     0.067 A
HETATM   12  C10 UNL     1      13.568  14.888  -9.098  1.00  0.00     0.197 A
HETATM   13  O2  UNL     1      13.954  15.940  -9.719  1.00  0.00    -0.262 OA
HETATM   14  C11 UNL     1      14.766  15.648 -10.702  1.00  0.00     0.220 A
HETATM   15  C12 UNL     1      14.922  14.261 -10.709  1.00  0.00     0.138 A
BRANCH  12  16
HETATM   16  O1  UNL     1      12.693  14.862  -7.982  1.00  0.00    -0.340 OA
ATOM     17  H1  UNL     1      12.941  14.984  -7.074  1.00  0.00     0.220 HD
ENDBRANCH  12  16
BRANCH  14  18
HETATM   18  O3  UNL     1      15.373  16.545 -11.589  1.00  0.00    -0.339 OA
ATOM     19  H3  UNL     1      16.013  16.341 -12.261  1.00  0.00     0.220 HD
ENDBRANCH  14  18
BRANCH  15  20
HETATM   20  O4  UNL     1      15.738  13.576 -11.626  1.00  0.00    -0.356 OA
ATOM     21  H4  UNL     1      15.851  13.697 -12.562  1.00  0.00     0.218 HD
ENDBRANCH  15  20
ENDBRANCH   7  11
BRANCH   2  22
HETATM   22  C3  UNL     1      17.267  10.393  -9.414  1.00  0.00     0.062 C
HETATM   23  N1  UNL     1      17.970  10.755 -10.428  1.00  0.00    -0.410 N
ATOM     24  H12 UNL     1      17.909  11.719 -10.755  1.00  0.00     0.155 HD
ATOM     25  H11 UNL     1      18.579  10.081 -10.892  1.00  0.00     0.155 HD
ENDBRANCH   2  22
BRANCH   9  26
HETATM   26  O6  UNL     1      12.225  11.005  -7.759  1.00  0.00    -0.365 OA
ATOM     27  H6  UNL     1      12.080  11.301  -8.649  1.00  0.00     0.213 HD
ENDBRANCH   9  26
TORSDOF 6
ENDMDL