MODEL 5
REMARK VINA RESULT: -7.505864066      3.608      4.637
REMARK  6 active torsions:
REMARK  status: ('A' for Active; 'I' for Inactive)
REMARK    1  A    between atoms: C2_2  and  O1_5
REMARK    2  A    between atoms: O1_5  and  C5_6
REMARK    3  A    between atoms: C7_8  and  C8_9
REMARK    4  A    between atoms: C9_10  and  O2_11
REMARK    5  A    between atoms: C10_15  and  N2_16
REMARK    6  A    between atoms: N2_16  and  O3_18
ROOT
HETATM    1  C8  UNL     1      14.682  12.100  -8.522  1.00  0.00     0.082 A
HETATM    2  C9  UNL     1      13.702  11.363  -7.890  1.00  0.00     0.171 A
HETATM    3  N1  UNL     1      14.006  10.212  -7.272  1.00  0.00    -0.168 N
ATOM      4  H1  UNL     1      13.266   9.682  -6.811  1.00  0.00     0.186 HD
HETATM    5  C10 UNL     1      15.265   9.743  -7.249  1.00  0.00     0.705 A
HETATM    6  N3  UNL     1      16.209  10.458  -7.860  1.00  0.00    -0.179 N
ATOM      7  H3  UNL     1      17.164  10.102  -7.843  1.00  0.00     0.185 HD
HETATM    8  C11 UNL     1      15.978  11.624  -8.502  1.00  0.00     0.133 A
HETATM    9  S1  UNL     1      17.190  12.443  -9.229  1.00  0.00    -0.059 SA
ENDROOT
BRANCH   1  10
HETATM   10  C7  UNL     1      14.389  13.361  -9.208  1.00  0.00     0.077 A
HETATM   11  C6  UNL     1      14.403  13.625 -10.555  1.00  0.00     0.098 A
HETATM   12  C5  UNL     1      14.058  14.943 -10.687  1.00  0.00     0.209 A
HETATM   13  O4  UNL     1      13.853  15.427  -9.505  1.00  0.00    -0.212 OA
HETATM   14  N4  UNL     1      14.043  14.512  -8.629  1.00  0.00    -0.258 N
ATOM     15  H4  UNL     1      13.943  14.646  -7.622  1.00  0.00     0.195 HD
BRANCH  12  16
HETATM   16  O1  UNL     1      13.951  15.621 -11.872  1.00  0.00    -0.319 OA
BRANCH  16  17
HETATM   17  C2  UNL     1      14.946  16.366 -12.497  1.00  0.00     0.059 C
HETATM   18  C1  UNL     1      15.855  15.564 -13.385  1.00  0.00     0.045 C
HETATM   19  C3  UNL     1      15.813  17.136 -11.527  1.00  0.00     0.045 C
HETATM   20  C4  UNL     1      14.243  17.420 -13.363  1.00  0.00     0.045 C
ENDBRANCH  16  17
ENDBRANCH  12  16
ENDBRANCH   1  10
BRANCH   2  21
HETATM   21  O2  UNL     1      12.408  11.862  -7.926  1.00  0.00    -0.345 OA
ATOM     22  H2  UNL     1      11.758  11.425  -7.390  1.00  0.00     0.219 HD
ENDBRANCH   2  21
BRANCH   5  23
HETATM   23  N2  UNL     1      15.547   8.644  -6.657  1.00  0.00    -0.098 N
ATOM     24  H2  UNL     1      15.893   7.847  -7.191  1.00  0.00     0.213 HD
BRANCH  23  25
HETATM   25  O3  UNL     1      15.380   8.541  -5.297  1.00  0.00    -0.276 OA
ATOM     26  H3  UNL     1      15.765   7.809  -4.829  1.00  0.00     0.245 HD
ENDBRANCH  23  25
ENDBRANCH   5  23
TORSDOF 6
ENDMDL