MODEL 2
REMARK VINA RESULT: -8.585069840      2.410      3.418
REMARK  3 active torsions:
REMARK  status: ('A' for Active; 'I' for Inactive)
REMARK    1  A    between atoms: C2_2  and  C3_4
REMARK    2  A    between atoms: C4_5  and  O2_6
REMARK    3  A    between atoms: C8_12  and  O3_13
ROOT
HETATM    1  C3  UNL     1      15.560  10.279  -8.020  1.00  0.00     0.078 A
HETATM    2  C4  UNL     1      14.340  10.880  -7.874  1.00  0.00     0.107 A
HETATM    3  C5  UNL     1      13.996  11.986  -8.677  1.00  0.00     0.087 A
HETATM    4  N1  UNL     1      12.746  12.595  -8.522  1.00  0.00    -0.099 NA
HETATM    5  C6  UNL     1      14.893  12.447  -9.595  1.00  0.00    -0.014 A
HETATM    6  C7  UNL     1      16.132  11.877  -9.777  1.00  0.00     0.052 A
HETATM    7  C8  UNL     1      16.478  10.775  -8.981  1.00  0.00     0.096 A
HETATM    8  C9  UNL     1      17.191  12.260 -10.707  1.00  0.00     0.164 C
HETATM    9  O4  UNL     1      18.347  11.954 -10.336  1.00  0.00    -0.292 OA
HETATM   10  C10 UNL     1      16.973  12.956 -12.001  1.00  0.00     0.100 C
HETATM   11  C11 UNL     1      16.313  14.272 -11.878  1.00  0.00     0.070 C
HETATM   12  S1  UNL     1      17.627  15.552 -11.956  1.00  0.00    -0.092 SA
HETATM   13  C12 UNL     1      15.539  14.529 -10.636  1.00  0.00     0.001 C
HETATM   14  C13 UNL     1      15.090  15.987 -10.662  1.00  0.00     0.011 C
HETATM   15  C14 UNL     1      14.378  13.633 -10.379  1.00  0.00     0.047 C
ENDROOT
BRANCH   1  16
HETATM   16  C2  UNL     1      15.993   9.124  -7.224  1.00  0.00     0.161 C
HETATM   17  C1  UNL     1      16.328   9.160  -5.799  1.00  0.00     0.097 C
HETATM   18  O1  UNL     1      16.088   8.007  -7.801  1.00  0.00    -0.293 OA
ENDBRANCH   1  16
BRANCH   2  19
HETATM   19  O2  UNL     1      13.421  10.459  -6.980  1.00  0.00    -0.358 OA
ATOM     20  H2  UNL     1      13.513  10.596  -6.045  1.00  0.00     0.217 HD
ENDBRANCH   2  19
BRANCH   7  21
HETATM   21  O3  UNL     1      17.666  10.245  -9.173  1.00  0.00    -0.359 OA
ATOM     22  H3  UNL     1      18.427  10.484  -8.656  1.00  0.00     0.217 HD
ENDBRANCH   7  21
TORSDOF 3
ENDMDL