MODEL 4
REMARK VINA RESULT: -8.170872017      3.151      5.703
REMARK  2 active torsions:
REMARK  status: ('A' for Active; 'I' for Inactive)
REMARK    1  A    between atoms: C3_3  and  N1_4
REMARK    2  A    between atoms: C4_6  and  C5_8
ROOT
HETATM    1  C1  UNL     1      16.945  12.529  -9.202  1.00  0.00     0.053 C
HETATM    2  C2  UNL     1      15.742  12.382  -8.368  1.00  0.00    -0.004 A
HETATM    3  C3  UNL     1      14.732  13.311  -8.444  1.00  0.00     0.068 A
HETATM    4  C9  UNL     1      13.633  13.120  -7.642  1.00  0.00     0.100 A
HETATM    5  N3  UNL     1      12.560  14.029  -7.664  1.00  0.00    -0.098 NA
HETATM    6  C10 UNL     1      13.535  12.030  -6.782  1.00  0.00     0.103 A
HETATM    7  N4  UNL     1      12.409  11.811  -5.942  1.00  0.00    -0.098 NA
HETATM    8  C11 UNL     1      14.559  11.112  -6.723  1.00  0.00     0.101 A
HETATM    9  C12 UNL     1      15.670  11.288  -7.521  1.00  0.00     0.071 A
HETATM   10  N5  UNL     1      16.707  10.321  -7.435  1.00  0.00    -0.349 N
ATOM     11  H5  UNL     1      17.531  10.445  -8.023  1.00  0.00     0.167 HD
HETATM   12  C13 UNL     1      16.663   9.296  -6.654  1.00  0.00     0.197 A
HETATM   13  N6  UNL     1      15.532   9.093  -5.824  1.00  0.00    -0.296 N
ATOM     14  H6  UNL     1      15.494   8.283  -5.205  1.00  0.00     0.187 HD
HETATM   15  N7  UNL     1      14.478   9.991  -5.850  1.00  0.00    -0.296 N
ATOM     16  H7  UNL     1      13.661   9.852  -5.255  1.00  0.00     0.187 HD
ENDROOT
BRANCH   3  17
HETATM   17  N1  UNL     1      14.796  14.406  -9.289  1.00  0.00    -0.342 N
HETATM   18  C4  UNL     1      14.497  14.472 -10.510  1.00  0.00     0.134 C
HETATM   19  N2  UNL     1      14.026  13.357 -11.226  1.00  0.00    -0.081 NA
ATOM     20  H1  UNL     1      15.128  15.273  -8.866  1.00  0.00     0.167 HD
BRANCH  18  21
HETATM   21  C5  UNL     1      14.634  15.743 -11.245  1.00  0.00     0.046 A
HETATM   22  C6  UNL     1      13.634  16.481 -11.821  1.00  0.00     0.023 A
HETATM   23  C7  UNL     1      14.002  17.622 -12.447  1.00  0.00     0.009 A
HETATM   24  C8  UNL     1      15.327  17.939 -12.450  1.00  0.00     0.050 A
HETATM   25  S1  UNL     1      16.034  16.657 -11.591  1.00  0.00    -0.099 SA
ENDBRANCH  18  21
ENDBRANCH   3  17
TORSDOF 2
ENDMDL