MODEL 3
REMARK VINA RESULT: -9.237797724      3.124      7.107
REMARK  2 active torsions:
REMARK  status: ('A' for Active; 'I' for Inactive)
REMARK    1  A    between atoms: C7_7  and  N1_8
REMARK    2  A    between atoms: N1_8  and  O1_10
ROOT
HETATM    1  C1  UNL     1      13.195  16.718 -10.648  1.00  0.00     0.050 C
HETATM    2  C2  UNL     1      13.961  15.494 -10.309  1.00  0.00    -0.033 A
HETATM    3  C3  UNL     1      13.642  14.664  -9.241  1.00  0.00     0.023 A
HETATM    4  C4  UNL     1      14.380  13.530  -8.956  1.00  0.00     0.000 A
HETATM    5  C5  UNL     1      15.452  13.224  -9.751  1.00  0.00    -0.034 A
HETATM    6  C6  UNL     1      15.813  14.028 -10.837  1.00  0.00     0.040 A
HETATM    7  C7  UNL     1      15.041  15.168 -11.095  1.00  0.00     0.060 A
HETATM    8  C8  UNL     1      16.079  11.985  -9.260  1.00  0.00     0.068 A
HETATM    9  C9  UNL     1      16.364  10.988 -10.319  1.00  0.00     0.021 C
HETATM   10  C10 UNL     1      15.304  11.583  -8.123  1.00  0.00     0.050 A
HETATM   11  C11 UNL     1      14.336  12.472  -7.957  1.00  0.00     0.069 A
HETATM   12  N2  UNL     1      13.308  12.485  -6.939  1.00  0.00    -0.328 N
ATOM     13  H2  UNL     1      12.610  13.222  -7.040  1.00  0.00     0.168 HD
HETATM   14  C12 UNL     1      13.140  11.712  -5.929  1.00  0.00     0.195 C
HETATM   15  N3  UNL     1      11.999  11.997  -5.094  1.00  0.00    -0.063 NA
HETATM   16  N4  UNL     1      13.936  10.584  -5.501  1.00  0.00    -0.302 N
ATOM     17  H4  UNL     1      13.660  10.158  -4.616  1.00  0.00     0.171 HD
HETATM   18  C13 UNL     1      14.952  10.044  -6.091  1.00  0.00     0.184 C
HETATM   19  N5  UNL     1      15.641   8.919  -5.534  1.00  0.00    -0.360 N
ATOM     20  H5  UNL     1      15.551   8.554  -4.586  1.00  0.00     0.162 HD
HETATM   21  C14 UNL     1      16.490   8.407  -6.586  1.00  0.00     0.143 C
HETATM   22  C15 UNL     1      16.509   9.438  -7.703  1.00  0.00     0.151 C
HETATM   23  N6  UNL     1      15.556  10.410  -7.315  1.00  0.00    -0.318 N
ENDROOT
BRANCH   7  24
HETATM   24  N1  UNL     1      15.444  15.956 -12.207  1.00  0.00    -0.269 N
ATOM     25  H1  UNL     1      15.410  16.971 -12.114  1.00  0.00     0.194 HD
BRANCH  24  26
HETATM   26  O1  UNL     1      15.866  15.441 -13.377  1.00  0.00    -0.289 OA
ATOM     27  H1  UNL     1      15.503  14.657 -13.771  1.00  0.00     0.244 HD
ENDBRANCH  24  26
ENDBRANCH   7  24
TORSDOF 2
ENDMDL