MODEL 1
REMARK VINA RESULT: -7.337305877      0.000      0.000
REMARK  5 active torsions:
REMARK  status: ('A' for Active; 'I' for Inactive)
REMARK    1  A    between atoms: C2_2  and  C4_4
REMARK    2  A    between atoms: C5_5  and  O1_6
REMARK    3  A    between atoms: C9_11  and  O2_12
REMARK    4  A    between atoms: C10_15  and  O4_16
REMARK    5  A    between atoms: C12_19  and  O5_20
ROOT
HETATM    1  C4  UNL     1     -21.505   0.158 -23.904  1.00  0.00     0.037 A
HETATM    2  C5  UNL     1     -20.934  -0.821 -24.726  1.00  0.00     0.086 A
HETATM    3  C6  UNL     1     -21.028  -0.778 -26.097  1.00  0.00    -0.012 A
HETATM    4  C7  UNL     1     -20.411  -1.816 -26.943  1.00  0.00     0.052 C
HETATM    5  C8  UNL     1     -21.723   0.288 -26.636  1.00  0.00     0.049 A
HETATM    6  C9  UNL     1     -22.042   0.688 -27.927  1.00  0.00     0.197 A
HETATM    7  O3  UNL     1     -22.744   1.812 -27.872  1.00  0.00    -0.263 OA
HETATM    8  C10 UNL     1     -22.923   2.201 -26.636  1.00  0.00     0.199 A
HETATM    9  C11 UNL     1     -22.293   1.263 -25.847  1.00  0.00     0.072 A
HETATM   10  C12 UNL     1     -22.191   1.214 -24.461  1.00  0.00     0.095 A
ENDROOT
BRANCH   1  11
HETATM   11  C2  UNL     1     -21.318   0.015 -22.459  1.00  0.00    -0.056 C
HETATM   12  C1  UNL     1     -20.385   0.665 -21.822  1.00  0.00     0.019 C
HETATM   13  C3  UNL     1     -22.158  -0.937 -21.654  1.00  0.00     0.048 C
ENDBRANCH   1  11
BRANCH   2  14
HETATM   14  O1  UNL     1     -20.261  -1.854 -24.096  1.00  0.00    -0.359 OA
ATOM     15  H1  UNL     1     -19.884  -1.665 -23.244  1.00  0.00     0.217 HD
ENDBRANCH   2  14
BRANCH  10  16
HETATM   16  O5  UNL     1     -22.778   2.223 -23.719  1.00  0.00    -0.359 OA
ATOM     17  H5  UNL     1     -23.177   2.087 -22.867  1.00  0.00     0.217 HD
ENDBRANCH  10  16
BRANCH   8  18
HETATM   18  O4  UNL     1     -23.618   3.347 -26.216  1.00  0.00    -0.340 OA
ATOM     19  H4  UNL     1     -24.522   3.382 -25.926  1.00  0.00     0.220 HD
ENDBRANCH   8  18
BRANCH   6  20
HETATM   20  O2  UNL     1     -21.668  -0.008 -29.069  1.00  0.00    -0.340 OA
ATOM     21  H2  UNL     1     -22.182  -0.031 -29.867  1.00  0.00     0.220 HD
ENDBRANCH   6  20
TORSDOF 5
ENDMDL