MODEL 3
REMARK VINA RESULT: -7.370188472      0.802      2.591
REMARK  3 active torsions:
REMARK  status: ('A' for Active; 'I' for Inactive)
REMARK    1  A    between atoms: O1_1  and  C1_3
REMARK    2  A    between atoms: C2_6  and  O2_7
REMARK    3  A    between atoms: C4_12  and  C5_13
ROOT
HETATM    1  C1  UNL     1     -21.881  -0.680 -21.705  1.00  0.00     0.172 A
HETATM    2  N1  UNL     1     -21.477   0.332 -20.934  1.00  0.00    -0.314 N
ATOM      3  H1  UNL     1     -21.586   0.369 -19.920  1.00  0.00     0.170 HD
HETATM    4  C2  UNL     1     -20.899   1.307 -21.687  1.00  0.00     0.172 A
HETATM    5  C3  UNL     1     -20.932   0.905 -23.006  1.00  0.00     0.116 A
HETATM    6  N2  UNL     1     -20.612   1.232 -24.267  1.00  0.00    -0.340 N
ATOM      7  H2  UNL     1     -20.148   2.089 -24.567  1.00  0.00     0.167 HD
HETATM    8  C4  UNL     1     -21.010   0.226 -25.063  1.00  0.00     0.086 A
HETATM    9  N3  UNL     1     -21.575  -0.722 -24.298  1.00  0.00    -0.340 N
ATOM     10  H3  UNL     1     -21.966  -1.600 -24.639  1.00  0.00     0.167 HD
HETATM   11  C11 UNL     1     -21.544  -0.329 -22.995  1.00  0.00     0.116 A
ENDROOT
BRANCH   8  12
HETATM   12  C5  UNL     1     -20.861   0.151 -26.539  1.00  0.00     0.053 C
HETATM   13  C6  UNL     1     -21.982   0.979 -27.130  1.00  0.00     0.012 C
HETATM   14  C7  UNL     1     -21.798   0.859 -28.647  1.00  0.00     0.001 C
HETATM   15  C8  UNL     1     -22.235  -0.547 -28.973  1.00  0.00     0.000 C
HETATM   16  C9  UNL     1     -21.365  -1.554 -28.330  1.00  0.00     0.001 C
HETATM   17  C10 UNL     1     -20.884  -1.275 -26.971  1.00  0.00     0.012 C
ENDBRANCH   8  12
BRANCH   4  18
HETATM   18  O2  UNL     1     -20.356   2.509 -21.272  1.00  0.00    -0.344 OA
ATOM     19  H2  UNL     1     -19.700   3.043 -21.705  1.00  0.00     0.219 HD
ENDBRANCH   4  18
BRANCH   1  20
HETATM   20  O1  UNL     1     -22.512  -1.859 -21.328  1.00  0.00    -0.344 OA
ATOM     21  H1  UNL     1     -23.145  -2.375 -21.814  1.00  0.00     0.219 HD
ENDBRANCH   1  20
TORSDOF 3
ENDMDL