MODEL 1
REMARK VINA RESULT: -6.898780737      0.000      0.000
REMARK  5 active torsions:
REMARK  status: ('A' for Active; 'I' for Inactive)
REMARK    1  A    between atoms: O1_1  and  C1_3
REMARK    2  A    between atoms: C2_4  and  O2_5
REMARK    3  A    between atoms: C3_7  and  O3_8
REMARK    4  A    between atoms: N1_10  and  C4_11
REMARK    5  A    between atoms: C11_18  and  O4_19
ROOT
HETATM    1  C1  UNL     1     -21.388   0.045 -21.114  1.00  0.00     0.155 A
HETATM    2  C2  UNL     1     -20.779   1.010 -21.886  1.00  0.00     0.155 A
HETATM    3  C3  UNL     1     -20.810   0.549 -23.178  1.00  0.00     0.182 A
HETATM    4  N1  UNL     1     -21.406  -0.650 -23.246  1.00  0.00    -0.288 N
HETATM    5  C11 UNL     1     -21.762  -0.967 -21.990  1.00  0.00     0.182 A
ENDROOT
BRANCH   4   6
HETATM    6  C4  UNL     1     -21.644  -1.484 -24.424  1.00  0.00     0.164 C
HETATM    7  C5  UNL     1     -22.060  -0.811 -25.585  1.00  0.00    -0.157 C
HETATM    8  C6  UNL     1     -22.386  -0.151 -26.777  1.00  0.00     0.086 C
HETATM    9  C7  UNL     1     -21.286  -0.549 -27.822  1.00  0.00     0.038 C
HETATM   10  C8  UNL     1     -20.047  -1.119 -27.135  1.00  0.00    -0.030 C
HETATM   11  C9  UNL     1     -20.091  -2.280 -26.294  1.00  0.00    -0.028 C
HETATM   12  C10 UNL     1     -20.290  -2.192 -24.780  1.00  0.00     0.064 C
ENDBRANCH   4   6
BRANCH   3  13
HETATM   13  O3  UNL     1     -20.299   1.223 -24.266  1.00  0.00    -0.344 OA
ATOM     14  H3  UNL     1     -19.391   1.489 -24.362  1.00  0.00     0.219 HD
ENDBRANCH   3  13
BRANCH   5  15
HETATM   15  O4  UNL     1     -22.406  -2.140 -21.674  1.00  0.00    -0.344 OA
ATOM     16  H4  UNL     1     -23.166  -2.510 -22.106  1.00  0.00     0.219 HD
ENDBRANCH   5  15
BRANCH   2  17
HETATM   17  O2  UNL     1     -20.232   2.223 -21.455  1.00  0.00    -0.354 OA
ATOM     18  H2  UNL     1     -19.704   2.376 -20.680  1.00  0.00     0.218 HD
ENDBRANCH   2  17
BRANCH   1  19
HETATM   19  O1  UNL     1     -21.593   0.064 -19.742  1.00  0.00    -0.354 OA
ATOM     20  H1  UNL     1     -21.359  -0.608 -19.112  1.00  0.00     0.218 HD
ENDBRANCH   1  19
TORSDOF 5
ENDMDL