MODEL 5
REMARK VINA RESULT: -5.580970654      2.947      4.959
REMARK  3 active torsions:
REMARK  status: ('A' for Active; 'I' for Inactive)
REMARK    1  A    between atoms: C2_2  and  C3_3
REMARK    2  A    between atoms: C3_3  and  N2_7
REMARK    3  A    between atoms: N3_9  and  C4_11
ROOT
HETATM    1  C4  UNL     1     -21.541   0.963 -25.217  1.00  0.00     0.191 A
HETATM    2  O1  UNL     1     -22.498   1.848 -25.032  1.00  0.00    -0.300 OA
HETATM    3  C5  UNL     1     -23.326   1.472 -24.108  1.00  0.00     0.176 A
HETATM    4  C6  UNL     1     -22.923   0.236 -23.610  1.00  0.00     0.088 A
HETATM    5  N4  UNL     1     -23.179  -0.759 -22.739  1.00  0.00    -0.330 N
ATOM      6  H4  UNL     1     -23.952  -0.811 -22.076  1.00  0.00     0.168 HD
HETATM    7  C7  UNL     1     -22.214  -1.662 -22.918  1.00  0.00     0.177 A
HETATM    8  S1  UNL     1     -22.073  -3.058 -22.101  1.00  0.00    -0.041 SA
HETATM    9  N5  UNL     1     -21.357  -1.266 -23.880  1.00  0.00    -0.328 N
ATOM     10  H5  UNL     1     -20.536  -1.775 -24.207  1.00  0.00     0.168 HD
HETATM   11  C8  UNL     1     -21.787  -0.073 -24.327  1.00  0.00     0.116 A
ENDROOT
BRANCH   1  12
HETATM   12  N3  UNL     1     -20.459   1.013 -26.130  1.00  0.00    -0.276 N
HETATM   13  N2  UNL     1     -20.646   0.657 -27.319  1.00  0.00    -0.284 N
ATOM     14  H2  UNL     1     -19.882   0.687 -27.994  1.00  0.00     0.188 HD
ATOM     15  H3  UNL     1     -19.540   1.333 -25.824  1.00  0.00     0.189 HD
BRANCH  13  16
HETATM   16  C3  UNL     1     -21.935   0.215 -27.710  1.00  0.00     0.112 C
HETATM   17  N1  UNL     1     -22.893   1.032 -27.929  1.00  0.00    -0.384 N
ATOM     18  H12 UNL     1     -23.820   0.714 -28.211  1.00  0.00     0.157 HD
ATOM     19  H11 UNL     1     -22.731   2.034 -27.821  1.00  0.00     0.157 HD
BRANCH  16  20
HETATM   20  C2  UNL     1     -22.163  -1.200 -27.863  1.00  0.00     0.039 C
HETATM   21  C1  UNL     1     -22.373  -1.792 -29.021  1.00  0.00     0.015 C
ENDBRANCH  16  20
ENDBRANCH  13  16
ENDBRANCH   1  12
TORSDOF 3
ENDMDL