MODEL 1
REMARK VINA RESULT: -7.650460193      0.000      0.000
REMARK  4 active torsions:
REMARK  status: ('A' for Active; 'I' for Inactive)
REMARK    1  A    between atoms: C3_5  and  O1_6
REMARK    2  A    between atoms: C4_8  and  N2_9
REMARK    3  A    between atoms: N3_11  and  C5_13
REMARK    4  A    between atoms: C11_19  and  O2_20
ROOT
HETATM    1  C1  UNL     1     -16.125   1.534 -15.800  1.00  0.00     0.071 C
HETATM    2  C2  UNL     1     -17.318   0.679 -15.995  1.00  0.00     0.043 A
HETATM    3  N1  UNL     1     -17.416  -0.629 -15.710  1.00  0.00    -0.336 N
ATOM      4  H1  UNL     1     -16.679  -1.215 -15.318  1.00  0.00     0.168 HD
HETATM    5  C3  UNL     1     -18.676  -1.036 -16.035  1.00  0.00     0.172 A
HETATM    6  C4  UNL     1     -19.386   0.029 -16.535  1.00  0.00     0.134 A
HETATM    7  C11 UNL     1     -18.520   1.113 -16.506  1.00  0.00     0.120 A
ENDROOT
BRANCH   6   8
HETATM    8  N2  UNL     1     -20.741   0.046 -16.996  1.00  0.00    -0.298 N
HETATM    9  N3  UNL     1     -21.662   0.261 -16.154  1.00  0.00    -0.331 N
ATOM     10  H3  UNL     1     -21.390   0.413 -15.183  1.00  0.00     0.180 HD
ATOM     11  H2  UNL     1     -20.960  -0.113 -17.979  1.00  0.00     0.187 HD
BRANCH   9  12
HETATM   12  C5  UNL     1     -23.053   0.306 -16.467  1.00  0.00     0.099 C
HETATM   13  C6  UNL     1     -23.771   1.454 -15.754  1.00  0.00     0.026 C
HETATM   14  C7  UNL     1     -25.160   1.497 -16.406  1.00  0.00     0.002 C
HETATM   15  C8  UNL     1     -25.891   0.278 -15.959  1.00  0.00     0.000 C
HETATM   16  C9  UNL     1     -25.181  -1.003 -16.158  1.00  0.00     0.002 C
HETATM   17  C10 UNL     1     -23.703  -0.963 -16.059  1.00  0.00     0.026 C
ENDBRANCH   9  12
ENDBRANCH   6   8
BRANCH   5  18
HETATM   18  O1  UNL     1     -19.184  -2.328 -15.892  1.00  0.00    -0.344 OA
ATOM     19  H1  UNL     1     -19.668  -2.814 -16.550  1.00  0.00     0.219 HD
ENDBRANCH   5  18
BRANCH   7  20
HETATM   20  O2  UNL     1     -18.793   2.407 -16.915  1.00  0.00    -0.356 OA
ATOM     21  H2  UNL     1     -19.241   2.645 -17.718  1.00  0.00     0.218 HD
ENDBRANCH   7  20
TORSDOF 4
ENDMDL