MODEL 1
REMARK VINA RESULT: -7.157159596      0.000      0.000
REMARK  3 active torsions:
REMARK  status: ('A' for Active; 'I' for Inactive)
REMARK    1  A    between atoms: O1_1  and  C1_3
REMARK    2  A    between atoms: C4_6  and  O2_7
REMARK    3  A    between atoms: N1_9  and  C5_10
ROOT
HETATM    1  C1  UNL     1     -21.021   0.024 -25.281  1.00  0.00     0.151 A
HETATM    2  C2  UNL     1     -20.800   0.598 -24.067  1.00  0.00     0.007 A
HETATM    3  C3  UNL     1     -21.588   1.731 -24.032  1.00  0.00     0.021 A
HETATM    4  C4  UNL     1     -22.246   1.773 -25.241  1.00  0.00     0.153 A
HETATM    5  N1  UNL     1     -21.905   0.728 -26.015  1.00  0.00    -0.303 N
HETATM    6  C11 UNL     1     -21.517   2.541 -22.789  1.00  0.00     0.157 C
HETATM    7  N2  UNL     1     -21.652   1.651 -21.678  1.00  0.00    -0.417 N
ATOM      8  H2  UNL     1     -22.412   1.732 -21.003  1.00  0.00     0.153 HD
HETATM    9  C12 UNL     1     -20.648   0.642 -21.580  1.00  0.00     0.118 C
HETATM   10  C13 UNL     1     -19.960   0.303 -22.861  1.00  0.00     0.063 C
ENDROOT
BRANCH   5  11
HETATM   11  C5  UNL     1     -22.366   0.410 -27.334  1.00  0.00     0.094 C
HETATM   12  C6  UNL     1     -22.344  -1.099 -27.586  1.00  0.00     0.026 C
HETATM   13  C7  UNL     1     -22.809  -1.404 -28.967  1.00  0.00     0.002 C
HETATM   14  C8  UNL     1     -22.051  -0.684 -30.042  1.00  0.00     0.000 C
HETATM   15  C9  UNL     1     -20.956   0.129 -29.364  1.00  0.00     0.002 C
HETATM   16  C10 UNL     1     -21.646   1.123 -28.427  1.00  0.00     0.026 C
ENDBRANCH   5  11
BRANCH   1  17
HETATM   17  O1  UNL     1     -20.385  -1.165 -25.684  1.00  0.00    -0.345 OA
ATOM     18  H1  UNL     1     -20.668  -1.665 -26.441  1.00  0.00     0.219 HD
ENDBRANCH   1  17
BRANCH   4  19
HETATM   19  O2  UNL     1     -23.143   2.783 -25.581  1.00  0.00    -0.345 OA
ATOM     20  H2  UNL     1     -23.757   2.707 -26.302  1.00  0.00     0.219 HD
ENDBRANCH   4  19
TORSDOF 3
ENDMDL