MODEL 3
REMARK VINA RESULT: -6.186060768      2.564      3.607
REMARK  2 active torsions:
REMARK  status: ('A' for Active; 'I' for Inactive)
REMARK    1  A    between atoms: C1_2  and  C2_4
REMARK    2  A    between atoms: C3_5  and  O3_6
ROOT
HETATM    1  C2  UNL     1     -21.880  -0.740 -22.137  1.00  0.00     0.112 A
HETATM    2  C3  UNL     1     -21.612   0.199 -21.169  1.00  0.00     0.160 A
HETATM    3  N1  UNL     1     -21.690   1.413 -21.727  1.00  0.00    -0.321 N
ATOM      4  H1  UNL     1     -21.533   2.286 -21.222  1.00  0.00     0.169 HD
HETATM    5  C4  UNL     1     -22.004   1.342 -23.055  1.00  0.00     0.127 A
HETATM    6  N2  UNL     1     -22.203   2.161 -24.052  1.00  0.00    -0.326 N
ATOM      7  H2  UNL     1     -22.128   3.170 -23.922  1.00  0.00     0.169 HD
HETATM    8  C5  UNL     1     -22.505   1.648 -25.247  1.00  0.00     0.145 A
HETATM    9  S1  UNL     1     -22.800   2.465 -26.658  1.00  0.00    -0.052 SA
HETATM   10  S2  UNL     1     -22.510  -0.034 -24.952  1.00  0.00    -0.056 SA
HETATM   11  C6  UNL     1     -22.119   0.002 -23.294  1.00  0.00     0.073 A
ENDROOT
BRANCH   1  12
HETATM   12  C1  UNL     1     -21.916  -2.187 -22.019  1.00  0.00     0.215 C
HETATM   13  O1  UNL     1     -22.639  -2.668 -21.083  1.00  0.00    -0.644 OA
HETATM   14  O2  UNL     1     -21.224  -3.040 -22.848  1.00  0.00    -0.644 OA
ENDBRANCH   1  12
BRANCH   2  15
HETATM   15  O3  UNL     1     -21.309  -0.091 -19.823  1.00  0.00    -0.345 OA
ATOM     16  H3  UNL     1     -20.528  -0.545 -19.526  1.00  0.00     0.219 HD
ENDBRANCH   2  15
TORSDOF 2
ENDMDL