MODEL 4
REMARK VINA RESULT: -6.643868123      2.108      3.372
REMARK  4 active torsions:
REMARK  status: ('A' for Active; 'I' for Inactive)
REMARK    1  A    between atoms: C2_2  and  C5_5
REMARK    2  A    between atoms: C7_11  and  O1_12
REMARK    3  A    between atoms: C9_15  and  N3_16
REMARK    4  A    between atoms: C10_21  and  O2_22
ROOT
HETATM    1  C5  UNL     1     -21.294  -1.038 -24.380  1.00  0.00     0.049 A
HETATM    2  N1  UNL     1     -20.648  -2.085 -24.986  1.00  0.00    -0.303 N
ATOM      3  H1  UNL     1     -20.344  -2.925 -24.494  1.00  0.00     0.186 HD
HETATM    4  N2  UNL     1     -20.468  -1.887 -26.255  1.00  0.00    -0.297 N
ATOM      5  H2  UNL     1     -20.009  -2.541 -26.889  1.00  0.00     0.187 HD
HETATM    6  C6  UNL     1     -20.966  -0.714 -26.607  1.00  0.00     0.096 A
HETATM    7  C7  UNL     1     -21.029  -0.049 -27.803  1.00  0.00     0.097 A
HETATM    8  C8  UNL     1     -21.631   1.210 -27.860  1.00  0.00     0.072 A
HETATM    9  C9  UNL     1     -22.158   1.776 -26.716  1.00  0.00     0.084 A
HETATM   10  C10 UNL     1     -22.076   1.075 -25.528  1.00  0.00     0.108 A
HETATM   11  C11 UNL     1     -21.495  -0.158 -25.437  1.00  0.00     0.055 A
ENDROOT
BRANCH   9  12
HETATM   12  N3  UNL     1     -22.779   3.050 -26.717  1.00  0.00    -0.304 N
HETATM   13  N4  UNL     1     -23.980   3.105 -26.300  1.00  0.00    -0.345 N
ATOM     14  H42 UNL     1     -24.459   2.262 -25.983  1.00  0.00     0.176 HD
ATOM     15  H41 UNL     1     -24.427   4.022 -26.300  1.00  0.00     0.176 HD
ATOM     16  H3  UNL     1     -22.287   3.884 -27.037  1.00  0.00     0.186 HD
ENDBRANCH   9  12
BRANCH  10  17
HETATM   17  O2  UNL     1     -22.598   1.648 -24.410  1.00  0.00    -0.357 OA
ATOM     18  H2  UNL     1     -22.069   2.285 -23.944  1.00  0.00     0.217 HD
ENDBRANCH  10  17
BRANCH   7  19
HETATM   19  O1  UNL     1     -20.511  -0.596 -28.955  1.00  0.00    -0.358 OA
ATOM     20  H1  UNL     1     -21.026  -1.177 -29.502  1.00  0.00     0.217 HD
ENDBRANCH   7  19
BRANCH   1  21
HETATM   21  C2  UNL     1     -21.671  -0.916 -22.965  1.00  0.00    -0.006 C
HETATM   22  C1  UNL     1     -23.116  -0.714 -22.674  1.00  0.00     0.021 C
HETATM   23  C3  UNL     1     -20.741  -0.066 -22.147  1.00  0.00     0.021 C
HETATM   24  C4  UNL     1     -21.379  -2.317 -22.358  1.00  0.00     0.021 C
ENDBRANCH   1  21
TORSDOF 4
ENDMDL