MODEL 3
REMARK VINA RESULT: -7.669981112      1.793      2.438
REMARK  4 active torsions:
REMARK  status: ('A' for Active; 'I' for Inactive)
REMARK    1  A    between atoms: C3_3  and  O1_4
REMARK    2  A    between atoms: C6_10  and  O2_11
REMARK    3  A    between atoms: C7_13  and  N2_14
REMARK    4  A    between atoms: N2_14  and  O3_16
ROOT
HETATM    1  C1  UNL     1     -21.590   1.580 -27.896  1.00  0.00     0.052 C
HETATM    2  C2  UNL     1     -21.407   0.526 -26.822  1.00  0.00    -0.022 A
HETATM    3  C3  UNL     1     -20.803  -0.662 -27.140  1.00  0.00     0.074 A
HETATM    4  C4  UNL     1     -20.625  -1.631 -26.189  1.00  0.00     0.067 A
HETATM    5  C5  UNL     1     -21.066  -1.393 -24.892  1.00  0.00     0.050 A
HETATM    6  N1  UNL     1     -20.900  -2.337 -23.940  1.00  0.00    -0.334 N
ATOM      7  H1  UNL     1     -20.450  -3.222 -24.175  1.00  0.00     0.168 HD
HETATM    8  C6  UNL     1     -21.322  -2.116 -22.692  1.00  0.00     0.172 A
HETATM    9  C7  UNL     1     -21.935  -0.940 -22.322  1.00  0.00     0.132 A
HETATM   10  C8  UNL     1     -22.094   0.015 -23.321  1.00  0.00     0.072 A
HETATM   11  N3  UNL     1     -22.661   1.103 -22.972  1.00  0.00    -0.396 N
ATOM     12  H31 UNL     1     -22.778   1.803 -23.704  1.00  0.00     0.156 HD
ATOM     13  H32 UNL     1     -22.979   1.260 -22.016  1.00  0.00     0.156 HD
HETATM   14  C9  UNL     1     -21.670  -0.193 -24.594  1.00  0.00     0.026 A
HETATM   15  C10 UNL     1     -21.866   0.819 -25.550  1.00  0.00    -0.038 A
HETATM   16  C11 UNL     1     -22.509   2.108 -25.252  1.00  0.00     0.050 C
ENDROOT
BRANCH   9  17
HETATM   17  N2  UNL     1     -22.386  -0.697 -20.994  1.00  0.00    -0.263 N
ATOM     18  H2  UNL     1     -23.323  -0.976 -20.702  1.00  0.00     0.194 HD
BRANCH  17  19
HETATM   19  O3  UNL     1     -21.616  -0.140 -20.202  1.00  0.00    -0.289 OA
ATOM     20  H3  UNL     1     -20.809  -0.583 -19.968  1.00  0.00     0.244 HD
ENDBRANCH  17  19
ENDBRANCH   9  17
BRANCH   8  21
HETATM   21  O2  UNL     1     -21.143  -3.095 -21.731  1.00  0.00    -0.344 OA
ATOM     22  H2  UNL     1     -21.837  -3.723 -21.570  1.00  0.00     0.219 HD
ENDBRANCH   8  21
BRANCH   3  23
HETATM   23  O1  UNL     1     -20.379  -0.853 -28.444  1.00  0.00    -0.360 OA
ATOM     24  H1  UNL     1     -20.505  -1.709 -28.838  1.00  0.00     0.217 HD
ENDBRANCH   3  23
TORSDOF 4
ENDMDL