MODEL 3
REMARK VINA RESULT: -5.678728744      2.771      5.140
REMARK  1 active torsions:
REMARK  status: ('A' for Active; 'I' for Inactive)
REMARK    1  A    between atoms: C2_2  and  C3_3
ROOT
HETATM    1  C3  UNL     1     -20.488   0.244 -23.037  1.00  0.00     0.197 A
HETATM    2  N1  UNL     1     -21.493  -0.762 -23.082  1.00  0.00    -0.312 N
ATOM      3  H1  UNL     1     -21.742  -1.201 -22.196  1.00  0.00     0.182 HD
HETATM    4  N2  UNL     1     -22.110  -1.165 -24.107  1.00  0.00    -0.286 N
ATOM      5  H2  UNL     1     -22.812  -1.897 -23.996  1.00  0.00     0.188 HD
HETATM    6  C4  UNL     1     -21.873  -0.649 -25.397  1.00  0.00     0.150 A
HETATM    7  N3  UNL     1     -22.367  -0.882 -26.634  1.00  0.00    -0.324 N
ATOM      8  H3  UNL     1     -23.092  -1.565 -26.858  1.00  0.00     0.169 HD
HETATM    9  C5  UNL     1     -21.763  -0.083 -27.521  1.00  0.00     0.138 A
HETATM   10  N4  UNL     1     -21.691   0.263 -28.799  1.00  0.00    -0.317 N
ATOM     11  H4  UNL     1     -22.253  -0.145 -29.546  1.00  0.00     0.170 HD
HETATM   12  C6  UNL     1     -20.757   1.243 -28.971  1.00  0.00     0.178 A
HETATM   13  S1  UNL     1     -20.340   1.960 -30.352  1.00  0.00    -0.040 SA
HETATM   14  N5  UNL     1     -20.236   1.511 -27.768  1.00  0.00    -0.328 N
ATOM     15  H5  UNL     1     -19.510   2.200 -27.571  1.00  0.00     0.168 HD
HETATM   16  C7  UNL     1     -20.832   0.718 -26.868  1.00  0.00     0.109 A
HETATM   17  C8  UNL     1     -20.921   0.339 -25.527  1.00  0.00     0.106 A
HETATM   18  N6  UNL     1     -20.240   0.779 -24.362  1.00  0.00    -0.363 N
ATOM     19  H6  UNL     1     -19.537   1.511 -24.462  1.00  0.00     0.162 HD
ENDROOT
BRANCH   1  20
HETATM   20  C2  UNL     1     -20.774   1.339 -22.036  1.00  0.00     0.043 C
HETATM   21  C1  UNL     1     -21.074   2.656 -22.691  1.00  0.00     0.009 C
ENDBRANCH   1  20
TORSDOF 1
ENDMDL