MODEL 2
REMARK VINA RESULT: -8.387099932      1.149      1.303
REMARK  2 active torsions:
REMARK  status: ('A' for Active; 'I' for Inactive)
REMARK    1  A    between atoms: C3_5  and  C4_6
REMARK    2  A    between atoms: N1_12  and  C8_13
ROOT
HETATM    1  O1  UNL     1      45.223  63.304  84.004  1.00  0.00    -0.272 OA
HETATM    2  C1  UNL     1      45.575  62.389  83.216  1.00  0.00     0.234 C
HETATM    3  C2  UNL     1      46.599  61.397  83.635  1.00  0.00     0.179 C
HETATM    4  S1  UNL     1      47.309  60.956  82.009  1.00  0.00    -0.129 SA
HETATM    5  C3  UNL     1      46.230  62.022  81.014  1.00  0.00     0.191 C
HETATM    6  N1  UNL     1      45.069  62.208  81.922  1.00  0.00    -0.306 N
ENDROOT
BRANCH   6   7
HETATM    7  C8  UNL     1      43.697  62.205  81.485  1.00  0.00     0.002 C
HETATM    8  C9  UNL     1      42.674  61.679  82.420  1.00  0.00     0.033 C
HETATM    9  C10 UNL     1      41.502  61.162  81.566  1.00  0.00     0.015 C
HETATM   10  C14 UNL     1      42.050  62.695  83.333  1.00  0.00     0.015 C
HETATM   11  C11 UNL     1      41.013  62.318  80.736  1.00  0.00    -0.013 C
HETATM   12  C12 UNL     1      40.385  63.309  81.691  1.00  0.00     0.009 C
HETATM   13  C17 UNL     1      42.070  62.925  79.850  1.00  0.00     0.015 C
HETATM   14  C13 UNL     1      41.514  63.862  82.575  1.00  0.00    -0.013 C
HETATM   15  C15 UNL     1      42.512  64.464  81.609  1.00  0.00     0.015 C
HETATM   16  C16 UNL     1      43.203  63.436  80.783  1.00  0.00     0.033 C
ENDBRANCH   6   7
BRANCH   5  17
HETATM   17  C4  UNL     1      45.838  61.321  79.772  1.00  0.00     0.021 A
HETATM   18  C5  UNL     1      45.534  59.986  79.626  1.00  0.00     0.153 A
HETATM   19  O2  UNL     1      45.232  59.704  78.386  1.00  0.00    -0.332 OA
HETATM   20  C6  UNL     1      45.320  60.809  77.675  1.00  0.00     0.165 A
HETATM   21  C7  UNL     1      45.699  61.857  78.504  1.00  0.00     0.067 A
HETATM   22 CL1  UNL     1      45.949  63.513  78.033  1.00  0.00    -0.082 Cl
ENDBRANCH   5  17
TORSDOF 2
ENDMDL