MODEL 5
REMARK VINA RESULT: -8.183578421      1.918      2.080
REMARK  2 active torsions:
REMARK  status: ('A' for Active; 'I' for Inactive)
REMARK    1  A    between atoms: C9_10  and  C10_11
REMARK    2  A    between atoms: C10_11  and  C11_12
ROOT
HETATM    1 BR1  UNL     1      43.241  61.783  84.979  1.00  0.00    -0.085 Br
HETATM    2  C1  UNL     1      42.726  62.351  83.201  1.00  0.00     0.019 C
HETATM    3  C2  UNL     1      41.955  61.232  82.564  1.00  0.00     0.025 C
HETATM    4  C3  UNL     1      41.571  61.539  81.134  1.00  0.00    -0.012 C
HETATM    5  C4  UNL     1      40.304  62.332  81.158  1.00  0.00     0.005 C
HETATM    6  C5  UNL     1      40.429  63.777  81.330  1.00  0.00     0.005 C
HETATM    7  C6  UNL     1      41.630  64.292  82.037  1.00  0.00    -0.012 C
HETATM    8  C7  UNL     1      41.937  63.614  83.326  1.00  0.00     0.025 C
HETATM    9  C8  UNL     1      42.849  64.390  81.126  1.00  0.00     0.014 C
HETATM   10  C9  UNL     1      43.564  63.067  81.016  1.00  0.00    -0.034 C
HETATM   11  C14 UNL     1      42.662  62.110  80.315  1.00  0.00     0.014 C
HETATM   12  C15 UNL     1      43.968  62.584  82.408  1.00  0.00     0.030 C
ENDROOT
BRANCH  10  13
HETATM   13  C10 UNL     1      44.851  63.286  80.261  1.00  0.00     0.057 C
BRANCH  13  14
HETATM   14  C11 UNL     1      45.299  62.076  79.525  1.00  0.00    -0.000 A
HETATM   15  C12 UNL     1      45.296  61.824  78.181  1.00  0.00     0.102 A
HETATM   16  N1  UNL     1      45.743  60.680  77.775  1.00  0.00    -0.368 N
HETATM   17  C13 UNL     1      46.186  59.793  78.652  1.00  0.00     0.138 A
ATOM     18  H1  UNL     1      45.753  60.461  76.778  1.00  0.00     0.165 HD
HETATM   19  S1  UNL     1      45.958  60.625  80.137  1.00  0.00    -0.088 SA
ENDBRANCH  13  14
ENDBRANCH  10  13
TORSDOF 2
ENDMDL