MODEL 1
REMARK VINA RESULT: -8.768001035      0.000      0.000
REMARK  2 active torsions:
REMARK  status: ('A' for Active; 'I' for Inactive)
REMARK    1  A    between atoms: O1_2  and  C2_3
REMARK    2  A    between atoms: C8_10  and  N1_11
ROOT
HETATM    1  C2  UNL     1      42.898  63.718  84.947  1.00  0.00     0.092 A
HETATM    2  C3  UNL     1      42.126  64.354  84.014  1.00  0.00     0.068 A
HETATM    3  C4  UNL     1      41.846  63.661  82.857  1.00  0.00     0.041 A
HETATM    4  C5  UNL     1      42.310  62.351  82.598  1.00  0.00     0.003 A
HETATM    5  C6  UNL     1      43.074  61.731  83.530  1.00  0.00     0.038 A
HETATM    6  C7  UNL     1      43.361  62.433  84.708  1.00  0.00     0.068 A
HETATM    7 CL1  UNL     1      44.348  61.611  85.891  1.00  0.00    -0.081 Cl
HETATM    8  C8  UNL     1      41.960  61.620  81.353  1.00  0.00     0.258 C
HETATM    9  C14 UNL     1      40.525  61.834  80.934  1.00  0.00     0.047 C
HETATM   10  C15 UNL     1      40.020  63.118  80.491  1.00  0.00     0.006 C
HETATM   11  C16 UNL     1      38.866  63.571  81.405  1.00  0.00     0.008 C
HETATM   12  C17 UNL     1      38.868  65.006  81.804  1.00  0.00     0.020 C
HETATM   13  C18 UNL     1      40.125  65.365  82.684  1.00  0.00     0.123 C
HETATM   14  N2  UNL     1      41.038  64.446  82.036  1.00  0.00    -0.380 N
HETATM   15  C19 UNL     1      40.987  64.298  80.566  1.00  0.00     0.127 C
ENDROOT
BRANCH   8  16
HETATM   16  N1  UNL     1      42.890  61.732  80.291  1.00  0.00     0.097 N
HETATM   17  C9  UNL     1      43.857  62.773  80.413  1.00  0.00     0.273 C
HETATM   18  C10 UNL     1      44.775  62.650  79.192  1.00  0.00     0.030 C
HETATM   19  C11 UNL     1      45.728  61.517  79.481  1.00  0.00     0.003 C
HETATM   20  C12 UNL     1      45.071  60.604  80.482  1.00  0.00     0.030 C
HETATM   21  C13 UNL     1      43.599  60.479  80.127  1.00  0.00     0.273 C
ENDBRANCH   8  16
BRANCH   1  22
HETATM   22  O1  UNL     1      43.211  64.364  86.125  1.00  0.00    -0.354 OA
HETATM   23  C1  UNL     1      42.236  64.895  86.990  1.00  0.00     0.210 C
ENDBRANCH   1  22
TORSDOF 2
ENDMDL