MODEL 3
REMARK VINA RESULT: -9.263716600      1.454      2.126
REMARK  2 active torsions:
REMARK  status: ('A' for Active; 'I' for Inactive)
REMARK    1  A    between atoms: C2_3  and  N1_4
REMARK    2  A    between atoms: N2_7  and  C5_8
ROOT
HETATM    1  N1  UNL     1      42.935  62.518  81.389  1.00  0.00    -0.380 N
HETATM    2  C3  UNL     1      43.610  62.680  80.103  1.00  0.00     0.153 C
HETATM    3  C4  UNL     1      45.011  63.253  80.325  1.00  0.00     0.292 C
HETATM    4  N2  UNL     1      45.656  62.356  81.264  1.00  0.00     0.096 N
HETATM    5  C13 UNL     1      45.086  62.581  82.551  1.00  0.00     0.292 C
HETATM    6  C14 UNL     1      43.680  61.953  82.526  1.00  0.00     0.153 C
ENDROOT
BRANCH   1   7
HETATM    7  C2  UNL     1      41.595  62.898  81.586  1.00  0.00     0.025 C
HETATM    8  C1  UNL     1      41.375  64.120  82.014  1.00  0.00     0.034 C
HETATM    9 CL1  UNL     1      42.813  65.080  82.267  1.00  0.00    -0.087 Cl
HETATM   10  C19 UNL     1      40.066  64.809  82.318  1.00  0.00     0.053 C
HETATM   11  C18 UNL     1      39.265  64.843  81.049  1.00  0.00     0.006 C
HETATM   12  C17 UNL     1      38.611  63.486  80.884  1.00  0.00     0.001 C
HETATM   13  C16 UNL     1      39.546  62.474  80.277  1.00  0.00     0.006 C
HETATM   14  C15 UNL     1      40.520  61.901  81.291  1.00  0.00     0.058 C
ENDBRANCH   1   7
BRANCH   4  15
HETATM   15  C5  UNL     1      47.077  62.342  81.195  1.00  0.00     0.223 C
HETATM   16  C6  UNL     1      47.691  62.395  82.570  1.00  0.00     0.036 C
HETATM   17  C7  UNL     1      49.028  63.096  82.572  1.00  0.00     0.002 C
HETATM   18  C8  UNL     1      50.136  62.068  82.726  1.00  0.00     0.000 C
HETATM   19  C9  UNL     1      50.703  61.752  81.375  1.00  0.00     0.000 C
HETATM   20  C10 UNL     1      49.943  60.716  80.614  1.00  0.00     0.000 C
HETATM   21  C11 UNL     1      48.838  61.294  79.755  1.00  0.00     0.002 C
HETATM   22  C12 UNL     1      47.503  61.111  80.429  1.00  0.00     0.036 C
ENDBRANCH   4  15
TORSDOF 2
ENDMDL