MODEL 3
REMARK VINA RESULT: -8.019789079      3.227      6.459
REMARK  4 active torsions:
REMARK  status: ('A' for Active; 'I' for Inactive)
REMARK    1  A    between atoms: O1_2  and  C2_3
REMARK    2  A    between atoms: C5_7  and  C15_17
REMARK    3  A    between atoms: C6_8  and  C7_9
REMARK    4  A    between atoms: C12_14  and  C13_15
ROOT
HETATM    1  C2  UNL     1      39.826  63.136  80.771  1.00  0.00     0.144 C
HETATM    2 CL1  UNL     1      39.505  62.370  79.139  1.00  0.00    -0.087 Cl
HETATM    3  C3  UNL     1      40.543  64.411  80.431  1.00  0.00     0.056 C
HETATM    4  C4  UNL     1      41.804  64.719  81.146  1.00  0.00     0.013 C
HETATM    5  C5  UNL     1      42.502  63.512  81.740  1.00  0.00     0.023 C
HETATM    6  C6  UNL     1      42.050  62.359  80.854  1.00  0.00    -0.060 C
HETATM    7  C12 UNL     1      40.733  62.083  81.446  1.00  0.00     0.073 C
ENDROOT
BRANCH   6   8
HETATM    8  C7  UNL     1      43.042  61.453  80.410  1.00  0.00    -0.057 C
HETATM    9  C8  UNL     1      42.880  60.020  80.989  1.00  0.00     0.049 C
HETATM   10  C9  UNL     1      44.042  61.563  79.626  1.00  0.00    -0.082 C
HETATM   11  C10 UNL     1      44.913  60.332  79.376  1.00  0.00     0.043 C
HETATM   12  C11 UNL     1      44.485  62.765  78.911  1.00  0.00     0.043 C
ENDBRANCH   6   8
BRANCH   5  13
HETATM   13  C15 UNL     1      42.258  63.343  83.193  1.00  0.00     0.033 C
HETATM   14  C14 UNL     1      41.792  64.651  83.848  1.00  0.00     0.017 C
HETATM   15  C13 UNL     1      43.294  64.982  83.710  1.00  0.00     0.037 C
HETATM   16  C16 UNL     1      43.450  63.576  84.092  1.00  0.00     0.087 C
HETATM   17  C17 UNL     1      43.188  63.395  85.543  1.00  0.00     0.010 C
HETATM   18  O2  UNL     1      44.554  62.839  83.944  1.00  0.00    -0.372 OA
HETATM   19  C18 UNL     1      43.817  62.275  85.958  1.00  0.00    -0.002 C
HETATM   20  C19 UNL     1      44.494  61.729  84.770  1.00  0.00     0.196 C
ENDBRANCH   5  13
BRANCH   1  21
HETATM   21  O1  UNL     1      38.586  63.272  81.265  1.00  0.00    -0.369 OA
HETATM   22  C1  UNL     1      37.703  64.081  80.610  1.00  0.00     0.204 C
ENDBRANCH   1  21
TORSDOF 4
ENDMDL