MODEL 5
REMARK VINA RESULT: -7.695460731      3.731      5.907
REMARK  2 active torsions:
REMARK  status: ('A' for Active; 'I' for Inactive)
REMARK    1  A    between atoms: C7_7  and  C8_8
REMARK    2  A    between atoms: C8_8  and  C9_9
ROOT
HETATM    1  C1  UNL     1      43.284  64.422  84.750  1.00  0.00     0.043 C
HETATM    2  C2  UNL     1      42.926  63.850  83.422  1.00  0.00    -0.087 C
HETATM    3  C3  UNL     1      43.929  63.392  82.697  1.00  0.00    -0.009 C
HETATM    4  C4  UNL     1      44.026  62.758  81.354  1.00  0.00     0.043 C
HETATM    5  C5  UNL     1      43.749  61.276  81.558  1.00  0.00     0.049 C
HETATM    6  C6  UNL     1      44.883  60.665  82.324  1.00  0.00     0.007 C
HETATM    7  C7  UNL     1      46.058  61.223  82.451  1.00  0.00     0.047 C
HETATM    8  O1  UNL     1      46.292  62.449  81.850  1.00  0.00    -0.315 OA
HETATM    9  C10 UNL     1      45.412  62.879  80.843  1.00  0.00     0.203 A
HETATM   10  C11 UNL     1      45.893  63.501  79.694  1.00  0.00     0.241 A
HETATM   11  O2  UNL     1      45.533  62.119  79.569  1.00  0.00    -0.346 OA
HETATM   12  C12 UNL     1      42.998  63.353  80.418  1.00  0.00    -0.001 C
HETATM   13  C13 UNL     1      41.886  62.365  80.088  1.00  0.00     0.011 C
HETATM   14  C14 UNL     1      42.446  64.661  80.903  1.00  0.00     0.006 C
HETATM   15  C15 UNL     1      41.207  64.499  81.747  1.00  0.00     0.005 C
HETATM   16  C16 UNL     1      41.505  63.865  83.083  1.00  0.00     0.033 C
ENDROOT
BRANCH   7  17
HETATM   17  C8  UNL     1      47.164  60.619  83.205  1.00  0.00     0.075 C
BRANCH  17  18
HETATM   18  C9  UNL     1      48.485  60.569  82.527  1.00  0.00     0.091 C
HETATM   19 BR1  UNL     1      49.871  60.987  83.825  1.00  0.00    -0.096 Br
ENDBRANCH  17  18
ENDBRANCH   7  17
TORSDOF 2
ENDMDL