MODEL 4
REMARK VINA RESULT: -8.148306055      1.727      2.220
REMARK  4 active torsions:
REMARK  status: ('A' for Active; 'I' for Inactive)
REMARK    1  A    between atoms: C6_6  and  N1_7
REMARK    2  A    between atoms: C9_10  and  N2_11
REMARK       I    between atoms: N2_11  and  C11_13
REMARK    3  A    between atoms: C11_13  and  O2_15
REMARK    4  A    between atoms: O2_15  and  C12_16
ROOT
HETATM    1  N1  UNL     1      42.567  60.792  82.254  1.00  0.00     0.095 N
HETATM    2  C7  UNL     1      42.745  60.331  80.952  1.00  0.00     0.275 C
HETATM    3  C8  UNL     1      44.045  60.970  80.501  1.00  0.00     0.057 C
HETATM    4  C9  UNL     1      44.894  60.673  81.746  1.00  0.00     0.118 C
HETATM    5  C15 UNL     1      43.877  60.844  82.845  1.00  0.00     0.298 C
ENDROOT
BRANCH   4   6
HETATM    6  N2  UNL     1      46.042  61.510  81.853  1.00  0.00    -0.326 N
HETATM    7  C10 UNL     1      46.096  62.742  81.091  1.00  0.00     0.155 C
HETATM    8  C11 UNL     1      47.130  61.128  82.705  1.00  0.00     0.364 C
HETATM    9  O1  UNL     1      47.079  60.074  83.352  1.00  0.00    -0.238 OA
BRANCH   8  10
HETATM   10  O2  UNL     1      48.272  61.893  82.854  1.00  0.00    -0.277 OA
BRANCH  10  11
HETATM   11  C12 UNL     1      49.525  61.583  82.319  1.00  0.00     0.141 C
HETATM   12  C13 UNL     1      50.423  62.768  82.113  1.00  0.00     0.064 C
HETATM   13  C14 UNL     1      49.406  60.779  81.043  1.00  0.00     0.064 C
HETATM   14 CL1  UNL     1      50.344  60.524  83.516  1.00  0.00    -0.088 Cl
ENDBRANCH  10  11
ENDBRANCH   8  10
ENDBRANCH   4   6
BRANCH   1  15
HETATM   15  C6  UNL     1      41.831  61.975  82.482  1.00  0.00     0.223 C
HETATM   16  C5  UNL     1      42.558  63.263  82.351  1.00  0.00     0.036 C
HETATM   17  C4  UNL     1      41.637  64.428  82.658  1.00  0.00     0.002 C
HETATM   18  C3  UNL     1      40.447  64.427  81.741  1.00  0.00     0.004 C
HETATM   19  C2  UNL     1      40.544  63.281  80.752  1.00  0.00    -0.017 C
HETATM   20  C1  UNL     1      39.303  63.196  79.903  1.00  0.00     0.010 C
HETATM   21  C16 UNL     1      40.645  61.994  81.539  1.00  0.00     0.040 C
ENDBRANCH   1  15
TORSDOF 4
ENDMDL