MODEL 5
REMARK VINA RESULT: -8.185149430      1.760      1.849
REMARK  2 active torsions:
REMARK  status: ('A' for Active; 'I' for Inactive)
REMARK    1  A    between atoms: C2_2  and  C3_3
REMARK    2  A    between atoms: C3_3  and  N1_4
ROOT
HETATM    1  N1  UNL     1      47.578  61.706  83.518  1.00  0.00    -0.371 N
ATOM      2  H1  UNL     1      47.739  61.653  84.524  1.00  0.00     0.161 HD
HETATM    3  C4  UNL     1      46.380  61.928  83.201  1.00  0.00     0.120 C
HETATM    4  C5  UNL     1      45.411  62.074  84.350  1.00  0.00     0.089 C
HETATM    5  C6  UNL     1      44.275  62.961  84.021  1.00  0.00     0.050 C
HETATM    6  C7  UNL     1      43.905  63.026  82.609  1.00  0.00    -0.016 A
HETATM    7  C8  UNL     1      42.658  63.577  82.279  1.00  0.00    -0.043 A
HETATM    8  C9  UNL     1      42.230  63.678  80.995  1.00  0.00    -0.050 A
HETATM    9  C10 UNL     1      43.032  63.230  79.957  1.00  0.00     0.029 A
HETATM   10  C11 UNL     1      44.270  62.681  80.252  1.00  0.00     0.046 A
HETATM   11 BR1  UNL     1      45.409  62.048  78.866  1.00  0.00    -0.048 Br
HETATM   12  C12 UNL     1      44.700  62.581  81.560  1.00  0.00     0.101 A
HETATM   13  O1  UNL     1      45.929  62.039  81.902  1.00  0.00    -0.296 OA
HETATM   14  C13 UNL     1      40.934  64.251  80.631  1.00  0.00     0.039 C
HETATM   15  C14 UNL     1      39.992  64.510  81.754  1.00  0.00     0.005 C
HETATM   16  C15 UNL     1      40.695  64.942  83.023  1.00  0.00     0.005 C
HETATM   17  C16 UNL     1      41.820  64.046  83.392  1.00  0.00     0.040 C
ENDROOT
BRANCH   1  18
HETATM   18  C3  UNL     1      48.738  61.518  82.738  1.00  0.00     0.148 C
BRANCH  18  19
HETATM   19  C2  UNL     1      49.522  62.702  82.398  1.00  0.00    -0.018 C
HETATM   20  C1  UNL     1      50.785  62.591  82.016  1.00  0.00     0.008 C
ENDBRANCH  18  19
ENDBRANCH   1  18
TORSDOF 2
ENDMDL