MODEL 2
REMARK VINA RESULT: -8.381873815      2.604      3.305
REMARK  2 active torsions:
REMARK  status: ('A' for Active; 'I' for Inactive)
REMARK    1  A    between atoms: O1_2  and  C2_3
REMARK    2  A    between atoms: N1_6  and  C5_7
ROOT
HETATM    1  C5  UNL     1      43.826  63.392  82.458  1.00  0.00     0.087 C
HETATM    2  C6  UNL     1      43.320  64.194  81.318  1.00  0.00     0.010 C
HETATM    3  C7  UNL     1      42.724  65.481  81.934  1.00  0.00     0.011 C
HETATM    4  C8  UNL     1      41.600  65.084  82.868  1.00  0.00    -0.012 C
HETATM    5  C9  UNL     1      42.013  64.094  83.913  1.00  0.00     0.011 C
HETATM    6  C10 UNL     1      42.659  62.861  83.258  1.00  0.00     0.010 C
HETATM    7  C11 UNL     1      41.602  62.226  82.416  1.00  0.00     0.027 C
HETATM    8  C12 UNL     1      41.031  63.194  81.436  1.00  0.00     0.019 C
HETATM    9 BR1  UNL     1      39.649  62.405  80.359  1.00  0.00    -0.086 Br
HETATM   10  C13 UNL     1      40.461  64.435  82.084  1.00  0.00     0.025 C
HETATM   11  C14 UNL     1      42.182  63.637  80.532  1.00  0.00     0.027 C
ENDROOT
BRANCH   1  12
HETATM   12  N1  UNL     1      44.879  62.485  82.243  1.00  0.00    -0.407 N
HETATM   13  C4  UNL     1      45.718  62.061  83.287  1.00  0.00     0.119 C
HETATM   14  C3  UNL     1      46.409  60.779  82.804  1.00  0.00     0.051 C
HETATM   15  C2  UNL     1      47.399  61.137  81.751  1.00  0.00     0.123 C
HETATM   16  C16 UNL     1      47.022  62.397  81.052  1.00  0.00     0.051 C
HETATM   17  C15 UNL     1      45.529  62.605  80.961  1.00  0.00     0.119 C
BRANCH  15  18
HETATM   18  O1  UNL     1      47.659  60.086  80.874  1.00  0.00    -0.391 OA
HETATM   19  C1  UNL     1      48.844  60.218  80.189  1.00  0.00     0.202 C
ENDBRANCH  15  18
ENDBRANCH   1  12
TORSDOF 2
ENDMDL