MODEL 3
REMARK VINA RESULT: -8.462079298      0.059      1.708
REMARK  2 active torsions:
REMARK  status: ('A' for Active; 'I' for Inactive)
REMARK    1  A    between atoms: C4_5  and  C5_6
REMARK    2  A    between atoms: N1_7  and  C6_9
ROOT
HETATM    1  C5  UNL     1      46.145  61.458  83.022  1.00  0.00     0.113 C
HETATM    2  N1  UNL     1      45.292  61.182  82.119  1.00  0.00    -0.388 N
ATOM      3  H1  UNL     1      45.543  60.441  81.465  1.00  0.00     0.159 HD
ENDROOT
BRANCH   2   4
HETATM    4  C6  UNL     1      44.021  61.800  81.923  1.00  0.00     0.030 C
HETATM    5  C7  UNL     1      44.133  63.304  82.173  1.00  0.00     0.035 C
HETATM    6  C8  UNL     1      42.772  63.934  81.986  1.00  0.00    -0.012 C
HETATM    7  C9  UNL     1      41.737  63.346  82.902  1.00  0.00     0.009 C
HETATM    8  C13 UNL     1      42.373  63.677  80.531  1.00  0.00     0.009 C
HETATM    9  C10 UNL     1      41.685  61.842  82.705  1.00  0.00    -0.012 C
HETATM   10  C11 UNL     1      41.204  61.593  81.300  1.00  0.00     0.009 C
HETATM   11  C15 UNL     1      43.043  61.285  82.973  1.00  0.00     0.035 C
HETATM   12  C12 UNL     1      42.174  62.210  80.322  1.00  0.00    -0.012 C
HETATM   13  C14 UNL     1      43.525  61.530  80.524  1.00  0.00     0.035 C
ENDBRANCH   2   4
BRANCH   1  14
HETATM   14  C4  UNL     1      47.390  60.720  83.066  1.00  0.00     0.047 A
HETATM   15  C3  UNL     1      47.917  60.278  84.278  1.00  0.00     0.032 A
HETATM   16  C2  UNL     1      49.097  59.587  84.248  1.00  0.00     0.023 A
HETATM   17  C1  UNL     1      49.714  59.357  83.037  1.00  0.00     0.026 A
HETATM   18 BR1  UNL     1      51.359  58.394  83.006  1.00  0.00    -0.050 Br
HETATM   19  C16 UNL     1      49.187  59.798  81.842  1.00  0.00     0.107 A
HETATM   20  N2  UNL     1      48.027  60.472  81.910  1.00  0.00    -0.364 N
ATOM     21  H2  UNL     1      47.611  60.812  81.042  1.00  0.00     0.165 HD
ENDBRANCH   1  14
TORSDOF 2
ENDMDL