MODEL 4
REMARK VINA RESULT: -7.217291271      4.307      7.196
REMARK  4 active torsions:
REMARK  status: ('A' for Active; 'I' for Inactive)
REMARK    1  A    between atoms: N1_2  and  C2_4
REMARK    2  A    between atoms: C3_7  and  C4_8
REMARK    3  A    between atoms: C11_16  and  C12_17
REMARK    4  A    between atoms: C13_18  and  C14_19
ROOT
HETATM    1  C2  UNL     1     -20.397   8.530 -15.480  1.00  0.00     0.679 A
HETATM    2  N2  UNL     1     -20.462   7.487 -16.294  1.00  0.00    -0.191 N
ATOM      3  H2  UNL     1     -19.644   6.882 -16.362  1.00  0.00     0.184 HD
HETATM    4  C3  UNL     1     -21.553   7.171 -17.045  1.00  0.00     0.062 A
HETATM    5  C10 UNL     1     -22.632   8.006 -16.926  1.00  0.00     0.070 A
HETATM    6  C11 UNL     1     -22.613   9.106 -16.091  1.00  0.00     0.105 A
HETATM    7  N3  UNL     1     -21.484   9.336 -15.386  1.00  0.00    -0.184 N
ATOM      8  H3  UNL     1     -21.447  10.142 -14.763  1.00  0.00     0.185 HD
ENDROOT
BRANCH   6   9
HETATM    9  C12 UNL     1     -23.767   9.960 -15.992  1.00  0.00    -0.043 C
HETATM   10  C13 UNL     1     -24.731  10.695 -15.908  1.00  0.00    -0.060 C
BRANCH  10  11
HETATM   11  C14 UNL     1     -25.862  11.569 -15.797  1.00  0.00     0.018 A
HETATM   12  C15 UNL     1     -26.540  11.648 -14.599  1.00  0.00     0.020 A
HETATM   13  C16 UNL     1     -27.641  12.482 -14.449  1.00  0.00     0.001 A
HETATM   14  C17 UNL     1     -28.070  13.250 -15.516  1.00  0.00     0.000 A
HETATM   15  C18 UNL     1     -27.397  13.173 -16.711  1.00  0.00     0.001 A
HETATM   16  C19 UNL     1     -26.304  12.340 -16.847  1.00  0.00     0.020 A
ENDBRANCH  10  11
ENDBRANCH   6   9
BRANCH   4  17
HETATM   17  C4  UNL     1     -21.545   6.005 -17.916  1.00  0.00    -0.009 A
HETATM   18  C5  UNL     1     -20.361   5.358 -18.164  1.00  0.00     0.017 A
HETATM   19  C6  UNL     1     -20.255   4.248 -18.974  1.00  0.00     0.043 A
HETATM   20  C7  UNL     1     -21.409   3.778 -19.557  1.00  0.00     0.116 A
HETATM   21  F1  UNL     1     -21.354   2.682 -20.367  1.00  0.00    -0.206 F
HETATM   22  C8  UNL     1     -22.630   4.410 -19.328  1.00  0.00     0.043 A
HETATM   23  C9  UNL     1     -22.678   5.529 -18.499  1.00  0.00     0.017 A
ENDBRANCH   4  17
BRANCH   1  24
HETATM   24  N1  UNL     1     -19.368   8.832 -14.769  1.00  0.00    -0.230 N
HETATM   25  C1  UNL     1     -19.481   9.190 -13.362  1.00  0.00     0.165 C
ATOM     26  H1  UNL     1     -18.445   8.822 -15.204  1.00  0.00     0.177 HD
ENDBRANCH   1  24
TORSDOF 4
ENDMDL