MODEL 2
REMARK VINA RESULT: -8.179564355      1.083      1.565
REMARK  3 active torsions:
REMARK  status: ('A' for Active; 'I' for Inactive)
REMARK    1  A    between atoms: C5_5  and  C6_6
REMARK    2  A    between atoms: C7_7  and  C8_8
REMARK    3  A    between atoms: C14_15  and  C15_16
ROOT
HETATM    1  C8  UNL     1     -21.258   6.687 -16.984  1.00  0.00     0.032 A
HETATM    2  C9  UNL     1     -20.485   7.330 -16.013  1.00  0.00     0.044 A
HETATM    3  C10 UNL     1     -20.978   8.268 -15.139  1.00  0.00     0.046 A
HETATM    4  C11 UNL     1     -20.156   8.908 -14.152  1.00  0.00     0.099 C
HETATM    5  N1  UNL     1     -19.494   9.442 -13.363  1.00  0.00    -0.191 NA
HETATM    6  C12 UNL     1     -22.313   8.563 -15.259  1.00  0.00     0.024 A
HETATM    7  C13 UNL     1     -23.094   7.957 -16.192  1.00  0.00     0.017 A
HETATM    8  C14 UNL     1     -22.574   6.984 -17.094  1.00  0.00     0.011 A
ENDROOT
BRANCH   1   9
HETATM    9  C7  UNL     1     -20.617   5.774 -17.886  1.00  0.00    -0.060 C
HETATM   10  C6  UNL     1     -20.024   4.998 -18.631  1.00  0.00    -0.061 C
BRANCH  10  11
HETATM   11  C5  UNL     1     -19.329   4.099 -19.509  1.00  0.00     0.021 A
HETATM   12  C4  UNL     1     -19.932   2.969 -19.994  1.00  0.00     0.021 A
HETATM   13  C3  UNL     1     -19.259   2.110 -20.836  1.00  0.00     0.011 A
HETATM   14  C2  UNL     1     -17.961   2.360 -21.215  1.00  0.00    -0.023 A
HETATM   15  C1  UNL     1     -17.239   1.428 -22.125  1.00  0.00     0.051 C
HETATM   16  C19 UNL     1     -17.336   3.485 -20.742  1.00  0.00     0.123 A
HETATM   17  C18 UNL     1     -18.018   4.331 -19.905  1.00  0.00     0.063 A
HETATM   18  F1  UNL     1     -16.063   3.718 -21.122  1.00  0.00    -0.206 F
ENDBRANCH  10  11
ENDBRANCH   1   9
BRANCH   8  19
HETATM   19  C15 UNL     1     -23.467   6.417 -18.063  1.00  0.00     0.060 A
HETATM   20  C16 UNL     1     -23.622   6.581 -19.394  1.00  0.00     0.119 A
HETATM   21  N2  UNL     1     -24.590   5.725 -19.872  1.00  0.00    -0.360 N
HETATM   22  C17 UNL     1     -25.035   5.025 -18.813  1.00  0.00     0.180 A
ATOM     23  H2  UNL     1     -24.907   5.639 -20.838  1.00  0.00     0.166 HD
HETATM   24  N3  UNL     1     -24.370   5.434 -17.742  1.00  0.00    -0.351 N
ATOM     25  H3  UNL     1     -24.510   5.066 -16.800  1.00  0.00     0.166 HD
ENDBRANCH   8  19
TORSDOF 3
ENDMDL