MODEL 1
REMARK VINA RESULT: -7.107446158      0.000      0.000
REMARK  3 active torsions:
REMARK  status: ('A' for Active; 'I' for Inactive)
REMARK    1  A    between atoms: C3_6  and  C4_7
REMARK    2  A    between atoms: C5_8  and  C6_9
REMARK    3  A    between atoms: C12_15  and  C13_16
ROOT
HETATM    1  O1  UNL     1     -23.347   8.196 -14.999  1.00  0.00    -0.267 OA
HETATM    2  C1  UNL     1     -22.686   7.492 -15.821  1.00  0.00     0.261 A
HETATM    3  C2  UNL     1     -21.351   7.330 -15.545  1.00  0.00     0.163 A
HETATM    4  N1  UNL     1     -20.625   6.596 -16.392  1.00  0.00    -0.352 N
ATOM      5  H1  UNL     1     -19.632   6.468 -16.197  1.00  0.00     0.166 HD
HETATM    6  C3  UNL     1     -21.158   6.001 -17.519  1.00  0.00     0.115 A
HETATM    7  C12 UNL     1     -22.489   6.188 -17.748  1.00  0.00     0.081 A
HETATM    8  N2  UNL     1     -23.244   6.949 -16.876  1.00  0.00    -0.319 N
ATOM      9  H2  UNL     1     -24.239   7.087 -17.053  1.00  0.00     0.169 HD
ENDROOT
BRANCH   6  10
HETATM   10  C4  UNL     1     -20.244   5.318 -18.399  1.00  0.00    -0.041 C
HETATM   11  C5  UNL     1     -19.487   4.705 -19.113  1.00  0.00    -0.060 C
BRANCH  11  12
HETATM   12  C6  UNL     1     -18.582   3.975 -19.959  1.00  0.00     0.018 A
HETATM   13  C7  UNL     1     -17.381   4.531 -20.308  1.00  0.00     0.020 A
HETATM   14  C8  UNL     1     -16.511   3.833 -21.117  1.00  0.00     0.001 A
HETATM   15  C9  UNL     1     -16.839   2.560 -21.591  1.00  0.00     0.000 A
HETATM   16  C10 UNL     1     -18.036   1.991 -21.251  1.00  0.00     0.001 A
HETATM   17  C11 UNL     1     -18.889   2.711 -20.439  1.00  0.00     0.020 A
ENDBRANCH  11  12
ENDBRANCH   6  10
BRANCH   7  18
HETATM   18  C13 UNL     1     -23.130   5.667 -18.932  1.00  0.00    -0.005 A
HETATM   19  C14 UNL     1     -23.754   6.581 -19.779  1.00  0.00     0.014 A
HETATM   20  C15 UNL     1     -24.461   6.174 -20.863  1.00  0.00     0.003 A
HETATM   21  C16 UNL     1     -24.596   4.844 -21.177  1.00  0.00     0.024 A
HETATM   22  C17 UNL     1     -23.996   3.924 -20.364  1.00  0.00     0.035 A
HETATM   23 CL1  UNL     1     -24.154   2.216 -20.745  1.00  0.00    -0.084 Cl
HETATM   24  C18 UNL     1     -23.266   4.362 -19.242  1.00  0.00     0.037 A
ENDBRANCH   7  18
TORSDOF 3
ENDMDL