MODEL 1
REMARK VINA RESULT: -8.206121372      0.000      0.000
REMARK  5 active torsions:
REMARK  status: ('A' for Active; 'I' for Inactive)
REMARK    1  A    between atoms: C6_7  and  C7_8
REMARK    2  A    between atoms: C8_9  and  C9_10
REMARK    3  A    between atoms: C12_13  and  N1_14
REMARK    4  A    between atoms: N1_14  and  C13_16
REMARK    5  A    between atoms: C13_16  and  C14_17
ROOT
HETATM    1  C9  UNL     1     -22.869   7.561 -15.983  1.00  0.00     0.033 A
HETATM    2  C10 UNL     1     -23.135   7.135 -17.283  1.00  0.00     0.026 A
HETATM    3  C11 UNL     1     -22.170   6.416 -17.968  1.00  0.00     0.050 A
HETATM    4  C12 UNL     1     -20.959   6.116 -17.387  1.00  0.00     0.101 A
HETATM    5  N3  UNL     1     -20.732   6.538 -16.136  1.00  0.00    -0.351 N
ATOM      6  H3  UNL     1     -19.838   6.321 -15.696  1.00  0.00     0.166 HD
HETATM    7  C19 UNL     1     -21.651   7.243 -15.438  1.00  0.00     0.110 A
ENDROOT
BRANCH   1   8
HETATM    8  C8  UNL     1     -23.863   8.307 -15.263  1.00  0.00    -0.060 C
HETATM    9  C7  UNL     1     -24.715   8.926 -14.666  1.00  0.00    -0.058 C
BRANCH   9  10
HETATM   10  C6  UNL     1     -25.753   9.649 -13.961  1.00  0.00     0.057 A
HETATM   11  C5  UNL     1     -26.149   9.170 -12.733  1.00  0.00     0.135 A
HETATM   12  C4  UNL     1     -27.125   9.826 -12.042  1.00  0.00     0.044 A
HETATM   13  F1  UNL     1     -25.591   8.062 -12.200  1.00  0.00    -0.205 F
HETATM   14  C3  UNL     1     -27.698  10.973 -12.601  1.00  0.00     0.010 A
HETATM   15  C2  UNL     1     -27.297  11.450 -13.833  1.00  0.00    -0.060 A
HETATM   16  C1  UNL     1     -27.917  12.683 -14.428  1.00  0.00     0.048 C
HETATM   17  C20 UNL     1     -26.314  10.774 -14.512  1.00  0.00     0.030 A
ENDBRANCH   9  10
ENDBRANCH   1   8
BRANCH   4  18
HETATM   18  N1  UNL     1     -20.034   5.454 -17.982  1.00  0.00    -0.372 N
ATOM     19  H1  UNL     1     -19.090   5.832 -17.908  1.00  0.00     0.161 HD
BRANCH  18  20
HETATM   20  C13 UNL     1     -20.177   4.255 -18.732  1.00  0.00     0.161 C
BRANCH  20  21
HETATM   21  C14 UNL     1     -19.015   3.943 -19.598  1.00  0.00    -0.025 A
HETATM   22  C15 UNL     1     -19.001   2.817 -20.394  1.00  0.00     0.011 A
HETATM   23  C16 UNL     1     -17.884   2.560 -21.198  1.00  0.00     0.018 A
HETATM   24  C17 UNL     1     -16.804   3.412 -21.207  1.00  0.00     0.087 A
HETATM   25  N2  UNL     1     -16.847   4.498 -20.422  1.00  0.00    -0.375 N
HETATM   26  C18 UNL     1     -17.915   4.766 -19.636  1.00  0.00     0.096 A
ATOM     27  H2  UNL     1     -16.054   5.139 -20.416  1.00  0.00     0.164 HD
ENDBRANCH  20  21
ENDBRANCH  18  20
ENDBRANCH   4  18
TORSDOF 5
ENDMDL