MODEL 2
REMARK VINA RESULT: -7.600425659      1.447      1.897
REMARK  3 active torsions:
REMARK  status: ('A' for Active; 'I' for Inactive)
REMARK    1  A    between atoms: C4_4  and  C5_5
REMARK    2  A    between atoms: C6_6  and  C7_7
REMARK    3  A    between atoms: C12_16  and  C13_17
ROOT
HETATM    1  C1  UNL     1     -19.447   9.143 -13.971  1.00  0.00     0.043 C
HETATM    2  C2  UNL     1     -20.358   8.720 -14.795  1.00  0.00     0.024 A
HETATM    3  C3  UNL     1     -20.176   7.607 -15.710  1.00  0.00     0.049 A
HETATM    4  C4  UNL     1     -21.132   7.222 -16.523  1.00  0.00     0.022 A
HETATM    5  C11 UNL     1     -22.414   7.952 -16.485  1.00  0.00     0.051 A
HETATM    6  C12 UNL     1     -22.668   8.964 -15.696  1.00  0.00     0.044 A
HETATM    7  N3  UNL     1     -21.637   9.379 -14.823  1.00  0.00    -0.356 N
ATOM      8  H3  UNL     1     -21.804  10.165 -14.195  1.00  0.00     0.166 HD
ENDROOT
BRANCH   4   9
HETATM    9  C5  UNL     1     -20.928   6.114 -17.422  1.00  0.00    -0.058 C
HETATM   10  C6  UNL     1     -20.752   5.169 -18.168  1.00  0.00    -0.024 C
BRANCH  10  11
HETATM   11  C7  UNL     1     -20.527   4.045 -19.033  1.00  0.00     0.164 A
HETATM   12  N1  UNL     1     -19.367   3.426 -19.342  1.00  0.00    -0.324 N
HETATM   13  C8  UNL     1     -19.591   2.414 -20.188  1.00  0.00     0.121 A
ATOM     14  H1  UNL     1     -18.450   3.692 -18.983  1.00  0.00     0.169 HD
HETATM   15 CL1  UNL     1     -18.334   1.373 -20.820  1.00  0.00    -0.063 Cl
HETATM   16  C9  UNL     1     -20.940   2.395 -20.419  1.00  0.00     0.135 A
HETATM   17  N2  UNL     1     -21.506   3.407 -19.700  1.00  0.00    -0.337 N
HETATM   18  C10 UNL     1     -22.929   3.693 -19.698  1.00  0.00     0.158 C
ENDBRANCH  10  11
ENDBRANCH   4   9
BRANCH   6  19
HETATM   19  C13 UNL     1     -23.948   9.647 -15.701  1.00  0.00    -0.009 A
HETATM   20  C14 UNL     1     -24.873   9.325 -14.740  1.00  0.00     0.013 A
HETATM   21  C15 UNL     1     -26.093   9.973 -14.741  1.00  0.00     0.001 A
HETATM   22  C16 UNL     1     -26.397  10.931 -15.683  1.00  0.00     0.000 A
HETATM   23  C17 UNL     1     -25.473  11.258 -16.649  1.00  0.00     0.001 A
HETATM   24  C18 UNL     1     -24.245  10.605 -16.647  1.00  0.00     0.013 A
ENDBRANCH   6  19
TORSDOF 3
ENDMDL