MODEL 4
REMARK VINA RESULT: -7.236862199      1.091      1.453
REMARK  1 active torsions:
REMARK  status: ('A' for Active; 'I' for Inactive)
REMARK    1  A    between atoms: C3_4  and  C4_5
ROOT
HETATM    1  O1  UNL     1     -24.913   4.945 -18.894  1.00  0.00    -0.285 OA
HETATM    2  C1  UNL     1     -23.633   4.875 -18.873  1.00  0.00     0.210 A
HETATM    3  C2  UNL     1     -22.722   5.703 -18.098  1.00  0.00     0.085 A
HETATM    4  C3  UNL     1     -23.096   6.652 -17.268  1.00  0.00     0.046 C
HETATM    5  N1  UNL     1     -21.403   5.253 -18.404  1.00  0.00    -0.351 N
ATOM      6  H1  UNL     1     -20.541   5.637 -18.017  1.00  0.00     0.166 HD
HETATM    7  C10 UNL     1     -21.485   4.170 -19.346  1.00  0.00     0.059 A
HETATM    8  C11 UNL     1     -22.813   3.941 -19.629  1.00  0.00     0.044 A
HETATM    9  C12 UNL     1     -23.154   2.937 -20.518  1.00  0.00     0.019 A
HETATM   10  C13 UNL     1     -22.150   2.204 -21.085  1.00  0.00     0.013 A
HETATM   11  C14 UNL     1     -20.819   2.428 -20.807  1.00  0.00    -0.021 A
HETATM   12  C15 UNL     1     -19.788   1.676 -21.386  1.00  0.00     0.029 A
HETATM   13  C16 UNL     1     -18.462   1.901 -21.103  1.00  0.00     0.088 A
HETATM   14  N2  UNL     1     -18.159   2.883 -20.237  1.00  0.00    -0.374 N
ATOM     15  H2  UNL     1     -17.182   3.068 -20.012  1.00  0.00     0.164 HD
HETATM   16  C17 UNL     1     -19.136   3.638 -19.652  1.00  0.00     0.102 A
HETATM   17  C18 UNL     1     -20.468   3.427 -19.922  1.00  0.00     0.017 A
ENDROOT
BRANCH   4  18
HETATM   18  C4  UNL     1     -22.228   7.494 -16.487  1.00  0.00    -0.012 A
HETATM   19  C5  UNL     1     -21.065   7.022 -15.935  1.00  0.00     0.013 A
HETATM   20  C6  UNL     1     -20.274   7.872 -15.174  1.00  0.00     0.001 A
HETATM   21  C7  UNL     1     -20.635   9.206 -14.954  1.00  0.00     0.002 A
HETATM   22  C8  UNL     1     -21.789   9.657 -15.509  1.00  0.00     0.024 A
HETATM   23  C9  UNL     1     -22.592   8.808 -16.277  1.00  0.00     0.044 A
HETATM   24 CL1  UNL     1     -24.065   9.499 -16.942  1.00  0.00    -0.083 Cl
ENDBRANCH   4  18
TORSDOF 1
ENDMDL