MODEL 1
REMARK VINA RESULT: -6.020903616      0.000      0.000
REMARK  2 active torsions:
REMARK  status: ('A' for Active; 'I' for Inactive)
REMARK    1  A    between atoms: C2_2  and  N1_4
REMARK    2  A    between atoms: C12_13  and  O1_14
ROOT
HETATM    1  N1  UNL     1     -26.308   7.244 -15.523  1.00  0.00    -0.387 N
HETATM    2  C4  UNL     1     -27.456   8.050 -15.701  1.00  0.00     0.120 C
HETATM    3  C5  UNL     1     -27.340   9.497 -15.357  1.00  0.00     0.029 C
HETATM    4  C6  UNL     1     -25.943  10.044 -15.322  1.00  0.00    -0.030 A
HETATM    5  C7  UNL     1     -25.253  10.538 -14.131  1.00  0.00     0.016 A
HETATM    6  C8  UNL     1     -25.168   9.151 -14.417  1.00  0.00     0.008 A
HETATM    7  C9  UNL     1     -24.229   8.408 -15.332  1.00  0.00     0.009 C
HETATM    8  C10 UNL     1     -23.231   7.558 -14.560  1.00  0.00     0.017 C
HETATM    9  C11 UNL     1     -21.937   7.598 -15.353  1.00  0.00     0.033 C
HETATM   10  C12 UNL     1     -22.025   8.781 -16.288  1.00  0.00     0.123 C
HETATM   11  C13 UNL     1     -23.296   9.428 -15.876  1.00  0.00     0.027 C
HETATM   12  C14 UNL     1     -23.899  10.409 -16.793  1.00  0.00     0.013 C
HETATM   13  C15 UNL     1     -25.382  10.411 -16.620  1.00  0.00    -0.005 C
HETATM   14  C16 UNL     1     -25.933   9.550 -17.715  1.00  0.00     0.009 C
HETATM   15  C17 UNL     1     -25.469   8.165 -17.555  1.00  0.00     0.049 C
HETATM   16  C18 UNL     1     -25.118   7.639 -16.218  1.00  0.00     0.115 C
HETATM   17 CL1  UNL     1     -24.256   6.093 -16.553  1.00  0.00    -0.095 Cl
ENDROOT
BRANCH   1  18
HETATM   18  C2  UNL     1     -26.516   5.891 -15.238  1.00  0.00     0.072 C
HETATM   19  C1  UNL     1     -26.651   5.664 -13.719  1.00  0.00     0.031 C
HETATM   20  C3  UNL     1     -27.670   5.201 -15.867  1.00  0.00     0.031 C
ENDBRANCH   1  18
BRANCH  10  21
HETATM   21  O1  UNL     1     -21.903   8.457 -17.607  1.00  0.00    -0.395 OA
ATOM     22  H1  UNL     1     -21.058   8.676 -17.983  1.00  0.00     0.210 HD
ENDBRANCH  10  21
TORSDOF 2
ENDMDL