MODEL 2
REMARK VINA RESULT: -7.931169919      4.908      7.464
REMARK  1 active torsions:
REMARK  status: ('A' for Active; 'I' for Inactive)
REMARK    1  A    between atoms: C5_8  and  C6_9
ROOT
HETATM    1  O1  UNL     1     -23.469  10.861 -17.310  1.00  0.00    -0.267 OA
HETATM    2  C1  UNL     1     -24.207  10.495 -16.347  1.00  0.00     0.257 A
HETATM    3  N1  UNL     1     -25.180  11.315 -15.940  1.00  0.00    -0.321 N
ATOM      4  H1  UNL     1     -25.302  12.209 -16.414  1.00  0.00     0.169 HD
HETATM    5  C2  UNL     1     -26.019  10.993 -14.908  1.00  0.00     0.069 A
HETATM    6  C3  UNL     1     -25.783   9.779 -14.332  1.00  0.00     0.092 A
HETATM    7  C4  UNL     1     -24.766   8.905 -14.744  1.00  0.00     0.044 A
HETATM    8  C5  UNL     1     -23.948   9.271 -15.787  1.00  0.00     0.044 A
HETATM    9  S1  UNL     1     -26.979   9.611 -13.053  1.00  0.00     0.209 S
HETATM   10  O2  UNL     1     -26.262   9.541 -11.739  1.00  0.00    -0.217 OA
HETATM   11  O3  UNL     1     -27.880   8.451 -13.286  1.00  0.00    -0.217 OA
HETATM   12  C12 UNL     1     -27.757  11.144 -13.312  1.00  0.00     0.076 A
HETATM   13  C13 UNL     1     -28.816  11.725 -12.662  1.00  0.00     0.025 A
HETATM   14  C14 UNL     1     -29.288  12.982 -13.035  1.00  0.00     0.002 A
HETATM   15  C15 UNL     1     -28.642  13.606 -14.081  1.00  0.00     0.001 A
HETATM   16  C16 UNL     1     -27.597  13.012 -14.706  1.00  0.00     0.015 A
HETATM   17  C17 UNL     1     -27.105  11.748 -14.348  1.00  0.00     0.014 A
ENDROOT
BRANCH   8  18
HETATM   18  C6  UNL     1     -22.894   8.359 -16.210  1.00  0.00    -0.020 A
HETATM   19  C7  UNL     1     -23.092   7.498 -17.271  1.00  0.00     0.015 A
HETATM   20  C8  UNL     1     -22.108   6.625 -17.690  1.00  0.00     0.043 A
HETATM   21  C9  UNL     1     -20.881   6.574 -17.065  1.00  0.00     0.116 A
HETATM   22  F1  UNL     1     -19.900   5.718 -17.465  1.00  0.00    -0.206 F
HETATM   23  C10 UNL     1     -20.681   7.436 -16.000  1.00  0.00     0.043 A
HETATM   24  C11 UNL     1     -21.664   8.307 -15.586  1.00  0.00     0.015 A
ENDBRANCH   8  18
TORSDOF 1
ENDMDL