MODEL 4
REMARK VINA RESULT: -7.455149298      1.852      3.163
REMARK  1 active torsions:
REMARK  status: ('A' for Active; 'I' for Inactive)
REMARK    1  A    between atoms: C8_8  and  C9_9
ROOT
HETATM    1  C1  UNL     1     -24.066   5.580 -20.082  1.00  0.00     0.048 C
HETATM    2  C2  UNL     1     -23.068   5.953 -19.032  1.00  0.00    -0.061 A
HETATM    3  C3  UNL     1     -21.895   5.240 -18.901  1.00  0.00     0.009 A
HETATM    4  C4  UNL     1     -20.969   5.575 -17.937  1.00  0.00     0.031 A
HETATM    5  C5  UNL     1     -21.167   6.626 -17.066  1.00  0.00     0.045 A
HETATM    6  C6  UNL     1     -22.338   7.344 -17.191  1.00  0.00     0.006 A
HETATM    7  C7  UNL     1     -23.273   7.004 -18.166  1.00  0.00     0.021 A
HETATM    8  C8  UNL     1     -22.381   8.323 -16.282  1.00  0.00     0.031 A
HETATM    9  C19 UNL     1     -21.141   8.220 -15.520  1.00  0.00     0.111 A
HETATM   10  N1  UNL     1     -20.809   8.996 -14.545  1.00  0.00    -0.385 N
ATOM     11  H11 UNL     1     -19.942   8.924 -14.012  1.00  0.00     0.157 HD
ATOM     12  H12 UNL     1     -21.308   9.785 -14.135  1.00  0.00     0.157 HD
HETATM   13  N2  UNL     1     -20.444   7.119 -16.092  1.00  0.00    -0.341 N
ATOM     14  H2  UNL     1     -19.533   6.771 -15.792  1.00  0.00     0.167 HD
ENDROOT
BRANCH   8  15
HETATM   15  C9  UNL     1     -23.440   9.292 -16.089  1.00  0.00    -0.010 A
HETATM   16  C10 UNL     1     -23.434  10.465 -16.798  1.00  0.00     0.013 A
HETATM   17  C11 UNL     1     -24.435  11.372 -16.609  1.00  0.00     0.002 A
HETATM   18  C12 UNL     1     -25.435  11.091 -15.707  1.00  0.00     0.012 A
HETATM   19  C13 UNL     1     -25.447   9.920 -14.994  1.00  0.00    -0.025 A
HETATM   20  C14 UNL     1     -26.458   9.626 -14.076  1.00  0.00     0.014 A
HETATM   21  C18 UNL     1     -24.449   8.993 -15.169  1.00  0.00    -0.013 A
HETATM   22  C15 UNL     1     -26.466   8.457 -13.368  1.00  0.00     0.024 A
HETATM   23  C16 UNL     1     -25.446   7.553 -13.573  1.00  0.00     0.035 A
HETATM   24 CL1  UNL     1     -25.497   6.066 -12.640  1.00  0.00    -0.084 Cl
HETATM   25  C17 UNL     1     -24.432   7.807 -14.469  1.00  0.00     0.037 A
ENDBRANCH   8  15
TORSDOF 1
ENDMDL