MODEL 2
REMARK VINA RESULT: -7.734068584      5.114      9.580
REMARK  6 active torsions:
REMARK  status: ('A' for Active; 'I' for Inactive)
REMARK    1  A    between atoms: N1_1  and  C1_5
REMARK    2  A    between atoms: C1_5  and  C2_6
REMARK    3  A    between atoms: C2_6  and  C3_7
REMARK    4  A    between atoms: C2_6  and  C8_19
REMARK    5  A    between atoms: C2_6  and  C14_26
REMARK       I    between atoms: C3_7  and  N2_9
REMARK    6  A    between atoms: C17_29  and  C18_30
ROOT
HETATM    1  C2  UNL     1     -25.755   7.704 -13.537  1.00  0.00     0.119 C
ENDROOT
BRANCH   1   2
HETATM    2  C1  UNL     1     -26.231   7.796 -14.978  1.00  0.00     0.258 C
BRANCH   2   3
HETATM    3  N1  UNL     1     -25.318   7.131 -15.905  1.00  0.00    -0.077 N
ATOM      4  H13 UNL     1     -24.346   7.278 -15.635  1.00  0.00     0.274 HD
ATOM      5  H12 UNL     1     -25.364   6.117 -15.803  1.00  0.00     0.274 HD
ATOM      6  H11 UNL     1     -25.479   7.411 -16.872  1.00  0.00     0.274 HD
ENDBRANCH   2   3
ENDBRANCH   1   2
BRANCH   1   7
HETATM    7  C3  UNL     1     -26.114   6.352 -13.057  1.00  0.00     0.242 C
HETATM    8  O1  UNL     1     -25.772   5.363 -13.762  1.00  0.00    -0.271 OA
HETATM    9  N2  UNL     1     -26.805   6.065 -11.875  1.00  0.00    -0.312 N
HETATM   10  C4  UNL     1     -27.843   5.370 -11.726  1.00  0.00     0.109 A
ATOM     11  H2  UNL     1     -26.417   6.471 -11.024  1.00  0.00     0.170 HD
HETATM   12  C5  UNL     1     -28.509   4.742 -12.752  1.00  0.00     0.065 A
HETATM   13  N4  UNL     1     -28.390   5.182 -10.483  1.00  0.00    -0.339 N
HETATM   14  C6  UNL     1     -29.653   3.971 -12.559  1.00  0.00     0.092 A
HETATM   15  N3  UNL     1     -30.133   3.829 -11.317  1.00  0.00    -0.362 N
HETATM   16  C7  UNL     1     -29.492   4.438 -10.302  1.00  0.00     0.181 A
ATOM     17  H3  UNL     1     -30.969   3.271 -11.144  1.00  0.00     0.165 HD
ATOM     18  H4  UNL     1     -27.947   5.619  -9.674  1.00  0.00     0.168 HD
ENDBRANCH   1   7
BRANCH   1  19
HETATM   19  C8  UNL     1     -24.286   7.936 -13.512  1.00  0.00    -0.034 A
HETATM   20  C9  UNL     1     -23.352   6.938 -13.391  1.00  0.00     0.012 A
HETATM   21  C10 UNL     1     -21.995   7.169 -13.375  1.00  0.00     0.043 A
HETATM   22  C11 UNL     1     -21.532   8.466 -13.484  1.00  0.00     0.116 A
HETATM   23  F1  UNL     1     -20.212   8.700 -13.468  1.00  0.00    -0.206 F
HETATM   24  C12 UNL     1     -22.426   9.509 -13.607  1.00  0.00     0.043 A
HETATM   25  C13 UNL     1     -23.776   9.223 -13.618  1.00  0.00     0.012 A
ENDBRANCH   1  19
BRANCH   1  26
HETATM   26  C14 UNL     1     -26.524   8.708 -12.759  1.00  0.00    -0.034 A
HETATM   27  C15 UNL     1     -26.406   8.837 -11.394  1.00  0.00     0.010 A
HETATM   28  C16 UNL     1     -27.146   9.782 -10.723  1.00  0.00     0.013 A
HETATM   29  C17 UNL     1     -28.024  10.634 -11.347  1.00  0.00    -0.026 A
HETATM   30  C24 UNL     1     -28.130  10.492 -12.714  1.00  0.00     0.013 A
HETATM   31  C25 UNL     1     -27.391   9.541 -13.418  1.00  0.00     0.010 A
BRANCH  29  32
HETATM   32  C18 UNL     1     -28.792  11.638 -10.601  1.00  0.00    -0.026 A
HETATM   33  C19 UNL     1     -29.238  12.763 -11.292  1.00  0.00     0.012 A
HETATM   34  C20 UNL     1     -29.967  13.742 -10.649  1.00  0.00     0.001 A
HETATM   35  C21 UNL     1     -30.259  13.608  -9.303  1.00  0.00     0.000 A
HETATM   36  C22 UNL     1     -29.806  12.486  -8.644  1.00  0.00     0.001 A
HETATM   37  C23 UNL     1     -29.074  11.494  -9.269  1.00  0.00     0.012 A
ENDBRANCH  29  32
ENDBRANCH   1  26
TORSDOF 6
ENDMDL