MODEL 1
REMARK VINA RESULT: -7.306502333      0.000      0.000
REMARK  5 active torsions:
REMARK  status: ('A' for Active; 'I' for Inactive)
REMARK    1  A    between atoms: N1_2  and  C3_4
REMARK    2  A    between atoms: C6_7  and  C7_8
REMARK    3  A    between atoms: C10_11  and  C11_12
REMARK    4  A    between atoms: C11_12  and  C12_13
REMARK    5  A    between atoms: N4_24  and  C17_26
ROOT
HETATM    1  C11 UNL     1     -25.088   8.204 -14.872  1.00  0.00     0.065 C
ENDROOT
BRANCH   1   2
HETATM    2  C10 UNL     1     -24.297   7.180 -15.638  1.00  0.00    -0.057 A
HETATM    3  C9  UNL     1     -22.995   6.965 -15.268  1.00  0.00     0.008 A
HETATM    4  C8  UNL     1     -22.260   6.022 -15.976  1.00  0.00     0.013 A
HETATM    5  C7  UNL     1     -22.792   5.312 -17.016  1.00  0.00    -0.026 A
HETATM    6  C19 UNL     1     -24.096   5.549 -17.365  1.00  0.00     0.013 A
HETATM    7  C18 UNL     1     -24.868   6.485 -16.681  1.00  0.00     0.008 A
BRANCH   5   8
HETATM    8  C6  UNL     1     -22.019   4.336 -17.744  1.00  0.00    -0.026 A
HETATM    9  C5  UNL     1     -20.644   4.508 -17.948  1.00  0.00     0.014 A
HETATM   10  C4  UNL     1     -19.892   3.584 -18.640  1.00  0.00     0.030 A
HETATM   11  C3  UNL     1     -20.450   2.442 -19.169  1.00  0.00     0.029 A
HETATM   12  C21 UNL     1     -21.820   2.259 -18.971  1.00  0.00     0.030 A
HETATM   13  C20 UNL     1     -22.567   3.187 -18.278  1.00  0.00     0.014 A
BRANCH  11  14
HETATM   14  N1  UNL     1     -19.718   1.474 -19.881  1.00  0.00    -0.390 N
HETATM   15  C1  UNL     1     -20.392   0.283 -20.345  1.00  0.00     0.149 C
HETATM   16  C2  UNL     1     -18.306   1.614 -20.173  1.00  0.00     0.149 C
ENDBRANCH  11  14
ENDBRANCH   5   8
ENDBRANCH   1   2
BRANCH   1  17
HETATM   17  C12 UNL     1     -25.556   7.692 -13.543  1.00  0.00     0.100 C
HETATM   18  C13 UNL     1     -24.386   7.386 -12.619  1.00  0.00     0.034 C
HETATM   19  C14 UNL     1     -26.319   6.438 -13.727  1.00  0.00     0.240 C
HETATM   20  O1  UNL     1     -25.824   5.298 -13.467  1.00  0.00    -0.272 OA
HETATM   21  N2  UNL     1     -27.649   6.510 -14.211  1.00  0.00    -0.303 N
HETATM   22  C15 UNL     1     -28.391   7.705 -14.056  1.00  0.00     0.179 C
ATOM     23  H2  UNL     1     -28.070   5.702 -14.669  1.00  0.00     0.171 HD
HETATM   24  S1  UNL     1     -29.925   7.804 -14.608  1.00  0.00    -0.040 SA
HETATM   25  N3  UNL     1     -27.780   8.813 -13.414  1.00  0.00    -0.322 N
HETATM   26  C16 UNL     1     -26.449   8.701 -12.943  1.00  0.00     0.098 C
ATOM     27  H3  UNL     1     -28.296   9.684 -13.292  1.00  0.00     0.169 HD
HETATM   28  N4  UNL     1     -26.068   9.498 -11.994  1.00  0.00    -0.366 N
ATOM     29  H4  UNL     1     -25.111   9.425 -11.648  1.00  0.00     0.162 HD
BRANCH  28  30
HETATM   30  C17 UNL     1     -26.942  10.481 -11.410  1.00  0.00     0.236 C
HETATM   31 CL1  UNL     1     -27.338  10.141  -9.716  1.00  0.00    -0.109 Cl
ENDBRANCH  28  30
ENDBRANCH   1  17
TORSDOF 5
ENDMDL