MODEL 5
REMARK VINA RESULT: -7.330294037      0.977      1.215
REMARK  6 active torsions:
REMARK  status: ('A' for Active; 'I' for Inactive)
REMARK    1  A    between atoms: N3_10  and  C5_11
REMARK    2  A    between atoms: C5_11  and  C6_12
REMARK    3  A    between atoms: C6_12  and  N4_13
REMARK    4  A    between atoms: N5_19  and  C12_20
REMARK    5  A    between atoms: C12_20  and  C13_21
REMARK    6  A    between atoms: C13_21  and  C14_22
ROOT
HETATM    1  N4  UNL     1     -23.592   5.528 -17.497  1.00  0.00    -0.389 N
HETATM    2  C7  UNL     1     -22.308   5.684 -16.982  1.00  0.00     0.059 C
HETATM    3  C8  UNL     1     -22.164   6.281 -15.622  1.00  0.00     0.054 C
HETATM    4  C9  UNL     1     -23.399   6.855 -15.019  1.00  0.00    -0.031 C
HETATM    5  C10 UNL     1     -23.570   8.331 -15.330  1.00  0.00     0.040 C
HETATM    6  C11 UNL     1     -23.206   9.184 -14.128  1.00  0.00     0.273 C
HETATM    7  N5  UNL     1     -24.144   8.977 -13.038  1.00  0.00     0.088 N
HETATM    8  C20 UNL     1     -24.412   7.572 -12.832  1.00  0.00     0.273 C
HETATM    9  C21 UNL     1     -23.355   6.741 -13.522  1.00  0.00     0.040 C
HETATM   10  C22 UNL     1     -24.666   6.167 -15.494  1.00  0.00     0.029 C
HETATM   11  C23 UNL     1     -24.654   6.347 -17.011  1.00  0.00     0.123 C
ENDROOT
BRANCH   1  12
HETATM   12  C6  UNL     1     -24.022   4.181 -17.834  1.00  0.00     0.167 C
BRANCH  12  13
HETATM   13  C5  UNL     1     -22.858   3.299 -17.890  1.00  0.00     0.101 C
BRANCH  13  14
HETATM   14  N3  UNL     1     -22.863   2.109 -18.609  1.00  0.00    -0.196 N
HETATM   15  C1  UNL     1     -21.866   1.118 -18.544  1.00  0.00     0.673 C
HETATM   16  N1  UNL     1     -20.661   1.484 -18.341  1.00  0.00    -0.235 N
HETATM   17  N2  UNL     1     -22.191  -0.282 -18.708  1.00  0.00    -0.226 N
ATOM     18  H12 UNL     1     -19.938   0.766 -18.295  1.00  0.00     0.174 HD
ATOM     19  H11 UNL     1     -20.431   2.471 -18.226  1.00  0.00     0.174 HD
HETATM   20  C2  UNL     1     -23.368  -0.553 -19.524  1.00  0.00     0.139 C
ATOM     21  H2  UNL     1     -21.637  -1.025 -18.283  1.00  0.00     0.177 HD
HETATM   22  C3  UNL     1     -24.469   0.415 -19.197  1.00  0.00     0.041 C
HETATM   23  C4  UNL     1     -24.005   1.835 -19.505  1.00  0.00     0.148 C
ENDBRANCH  13  14
ENDBRANCH  12  13
ENDBRANCH   1  12
BRANCH   7  24
HETATM   24  C12 UNL     1     -25.402   9.643 -13.293  1.00  0.00     0.277 C
BRANCH  24  25
HETATM   25  C13 UNL     1     -26.327   9.714 -12.130  1.00  0.00     0.068 C
BRANCH  25  26
HETATM   26  C14 UNL     1     -27.241  10.870 -12.105  1.00  0.00    -0.056 A
HETATM   27  C15 UNL     1     -28.147  11.056 -11.064  1.00  0.00     0.009 A
HETATM   28  C16 UNL     1     -29.005  12.138 -11.043  1.00  0.00     0.024 A
HETATM   29  C17 UNL     1     -28.982  13.073 -12.069  1.00  0.00     0.034 A
HETATM   30 CL1  UNL     1     -30.098  14.449 -12.016  1.00  0.00    -0.084 Cl
HETATM   31  C18 UNL     1     -28.100  12.904 -13.089  1.00  0.00     0.024 A
HETATM   32  C19 UNL     1     -27.237  11.808 -13.101  1.00  0.00     0.009 A
ENDBRANCH  25  26
ENDBRANCH  24  25
ENDBRANCH   7  24
TORSDOF 6
ENDMDL