MODEL 3
REMARK VINA RESULT: -7.896587621      6.696     10.935
REMARK  4 active torsions:
REMARK  status: ('A' for Active; 'I' for Inactive)
REMARK       I    between atoms: C1_2  and  N1_3
REMARK    1  A    between atoms: C1_2  and  C12_20
REMARK    2  A    between atoms: N3_10  and  C5_11
REMARK    3  A    between atoms: C12_20  and  C13_21
REMARK    4  A    between atoms: C12_20  and  C19_27
ROOT
HETATM    1  O1  UNL     1     -23.307   7.007 -17.142  1.00  0.00    -0.272 OA
HETATM    2  C1  UNL     1     -23.646   6.022 -16.442  1.00  0.00     0.235 C
HETATM    3  N1  UNL     1     -23.657   4.762 -17.143  1.00  0.00    -0.322 N
ATOM      4  H1  UNL     1     -24.547   4.298 -17.329  1.00  0.00     0.169 HD
HETATM    5  C2  UNL     1     -22.556   4.211 -17.538  1.00  0.00     0.106 A
HETATM    6  C3  UNL     1     -21.313   4.746 -17.341  1.00  0.00     0.054 A
HETATM    7  C4  UNL     1     -20.177   4.098 -17.795  1.00  0.00     0.110 A
HETATM    8  N2  UNL     1     -20.358   2.926 -18.431  1.00  0.00    -0.302 N
ATOM      9  H2  UNL     1     -19.534   2.431 -18.773  1.00  0.00     0.186 HD
HETATM   10  N3  UNL     1     -21.543   2.382 -18.638  1.00  0.00    -0.216 N
HETATM   11  C11 UNL     1     -22.664   3.009 -18.199  1.00  0.00     0.293 A
HETATM   12  O2  UNL     1     -23.797   2.493 -18.393  1.00  0.00    -0.264 OA
ENDROOT
BRANCH   2  13
HETATM   13  C12 UNL     1     -24.012   6.092 -15.009  1.00  0.00     0.144 C
BRANCH  13  14
HETATM   14  C13 UNL     1     -25.449   6.247 -14.754  1.00  0.00    -0.041 A
HETATM   15  C14 UNL     1     -25.937   6.021 -13.491  1.00  0.00     0.008 A
HETATM   16  C15 UNL     1     -27.280   6.165 -13.259  1.00  0.00     0.001 A
HETATM   17  C16 UNL     1     -28.144   6.536 -14.291  1.00  0.00     0.000 A
HETATM   18  C17 UNL     1     -27.657   6.762 -15.556  1.00  0.00     0.001 A
HETATM   19  C18 UNL     1     -26.307   6.620 -15.798  1.00  0.00     0.008 A
ENDBRANCH  13  14
BRANCH  13  20
HETATM   20  C19 UNL     1     -23.338   7.260 -14.380  1.00  0.00    -0.041 A
HETATM   21  C20 UNL     1     -22.109   7.059 -13.797  1.00  0.00     0.008 A
HETATM   22  C21 UNL     1     -21.433   8.097 -13.191  1.00  0.00     0.001 A
HETATM   23  C22 UNL     1     -22.010   9.346 -13.177  1.00  0.00     0.000 A
HETATM   24  C23 UNL     1     -23.235   9.535 -13.761  1.00  0.00     0.001 A
HETATM   25  C24 UNL     1     -23.926   8.517 -14.371  1.00  0.00     0.008 A
ENDBRANCH  13  20
ENDBRANCH   2  13
BRANCH  10  26
HETATM   26  C5  UNL     1     -21.714   1.144 -19.313  1.00  0.00     0.098 A
HETATM   27  C6  UNL     1     -22.356   0.093 -18.715  1.00  0.00     0.035 A
HETATM   28  C7  UNL     1     -22.524  -1.105 -19.360  1.00  0.00     0.002 A
HETATM   29  C8  UNL     1     -22.050  -1.295 -20.643  1.00  0.00     0.003 A
HETATM   30  C9  UNL     1     -21.401  -0.252 -21.261  1.00  0.00     0.045 A
HETATM   31  C10 UNL     1     -21.240   0.939 -20.604  1.00  0.00     0.145 A
HETATM   32  F1  UNL     1     -20.601   1.958 -21.221  1.00  0.00    -0.204 F
ENDBRANCH  10  26
TORSDOF 4
ENDMDL