MODEL 2
REMARK VINA RESULT: -7.561310221      6.452     13.012
REMARK  8 active torsions:
REMARK  status: ('A' for Active; 'I' for Inactive)
REMARK    1  A    between atoms: N1_2  and  S1_4
REMARK    2  A    between atoms: S1_4  and  C2_7
REMARK    3  A    between atoms: C5_10  and  C6_11
REMARK    4  A    between atoms: C6_11  and  C7_12
REMARK    5  A    between atoms: C7_12  and  N2_13
REMARK    6  A    between atoms: C7_12  and  C8_17
REMARK    7  A    between atoms: C9_18  and  C10_19
REMARK    8  A    between atoms: C13_22  and  C14_23
ROOT
HETATM    1  C7  UNL     1     -26.942   8.405 -13.399  1.00  0.00     0.266 C
ENDROOT
BRANCH   1   2
HETATM    2  C6  UNL     1     -26.214   9.087 -12.266  1.00  0.00     0.084 C
BRANCH   2   3
HETATM    3  C5  UNL     1     -27.111  10.081 -11.618  1.00  0.00    -0.055 A
HETATM    4  C4  UNL     1     -27.614  11.175 -12.291  1.00  0.00     0.009 A
HETATM    5  C3  UNL     1     -28.447  12.105 -11.701  1.00  0.00     0.026 A
HETATM    6  C2  UNL     1     -28.813  11.957 -10.376  1.00  0.00     0.079 A
HETATM    7  C23 UNL     1     -28.320  10.872  -9.694  1.00  0.00     0.026 A
HETATM    8  C22 UNL     1     -27.486   9.946 -10.290  1.00  0.00     0.009 A
BRANCH   6   9
HETATM    9  S1  UNL     1     -29.871  13.149  -9.658  1.00  0.00     0.258 S
HETATM   10  O1  UNL     1     -29.938  14.331 -10.569  1.00  0.00    -0.201 OA
HETATM   11  O2  UNL     1     -31.250  12.575  -9.501  1.00  0.00    -0.201 OA
BRANCH   9  12
HETATM   12  N1  UNL     1     -29.249  13.663  -8.139  1.00  0.00    -0.320 N
HETATM   13  C1  UNL     1     -29.283  15.114  -8.111  1.00  0.00     0.159 C
ATOM     14  H1  UNL     1     -28.915  13.056  -7.390  1.00  0.00     0.171 HD
ENDBRANCH   9  12
ENDBRANCH   6   9
ENDBRANCH   2   3
ENDBRANCH   1   2
BRANCH   1  15
HETATM   15  N2  UNL     1     -27.923   7.467 -12.951  1.00  0.00    -0.064 N
ATOM     16  H23 UNL     1     -27.547   6.519 -12.953  1.00  0.00     0.275 HD
ATOM     17  H22 UNL     1     -28.100   7.574 -11.951  1.00  0.00     0.275 HD
ATOM     18  H21 UNL     1     -28.793   7.514 -13.480  1.00  0.00     0.275 HD
ENDBRANCH   1  15
BRANCH   1  19
HETATM   19  C8  UNL     1     -25.912   7.708 -14.197  1.00  0.00    -0.068 C
HETATM   20  C9  UNL     1     -25.078   7.121 -14.839  1.00  0.00    -0.065 C
BRANCH  20  21
HETATM   21  C10 UNL     1     -24.094   6.398 -15.600  1.00  0.00     0.017 A
HETATM   22  C11 UNL     1     -22.741   6.419 -15.262  1.00  0.00     0.021 A
HETATM   23  C12 UNL     1     -21.799   5.729 -15.988  1.00  0.00     0.013 A
HETATM   24  C13 UNL     1     -22.213   4.998 -17.079  1.00  0.00    -0.026 A
HETATM   25  C20 UNL     1     -23.541   4.939 -17.463  1.00  0.00     0.013 A
HETATM   26  C21 UNL     1     -24.447   5.646 -16.707  1.00  0.00     0.021 A
BRANCH  24  27
HETATM   27  C14 UNL     1     -21.225   4.261 -17.858  1.00  0.00    -0.026 A
HETATM   28  C15 UNL     1     -20.037   4.857 -18.227  1.00  0.00     0.015 A
HETATM   29  C16 UNL     1     -19.093   4.173 -18.964  1.00  0.00     0.043 A
HETATM   30  C17 UNL     1     -19.298   2.867 -19.361  1.00  0.00     0.116 A
HETATM   31  F1  UNL     1     -18.390   2.168 -20.085  1.00  0.00    -0.206 F
HETATM   32  C18 UNL     1     -20.497   2.289 -18.980  1.00  0.00     0.043 A
HETATM   33  C19 UNL     1     -21.448   2.958 -18.244  1.00  0.00     0.015 A
ENDBRANCH  24  27
ENDBRANCH  20  21
ENDBRANCH   1  19
TORSDOF 8
ENDMDL