MODEL 1
REMARK VINA RESULT: -8.340223473      0.000      0.000
REMARK  8 active torsions:
REMARK  status: ('A' for Active; 'I' for Inactive)
REMARK    1  A    between atoms: C2_2  and  C3_3
REMARK    2  A    between atoms: C3_3  and  N1_4
REMARK    3  A    between atoms: C3_3  and  C4_8
REMARK    4  A    between atoms: C7_11  and  C8_12
REMARK    5  A    between atoms: C8_12  and  C9_13
REMARK    6  A    between atoms: C11_18  and  C12_19
REMARK    7  A    between atoms: C12_19  and  C13_20
REMARK    8  A    between atoms: C17_24  and  O2_25
ROOT
HETATM    1  C9  UNL     1     -21.422   2.631 -18.234  1.00  0.00     0.046 A
HETATM    2  C10 UNL     1     -20.791   3.830 -17.922  1.00  0.00     0.257 A
HETATM    3  O1  UNL     1     -19.527   3.918 -17.942  1.00  0.00    -0.267 OA
HETATM    4  N2  UNL     1     -21.509   4.928 -17.592  1.00  0.00    -0.322 N
ATOM      5  H2  UNL     1     -21.013   5.791 -17.369  1.00  0.00     0.169 HD
HETATM    6  C11 UNL     1     -22.867   4.923 -17.547  1.00  0.00     0.047 A
HETATM    7  C20 UNL     1     -23.495   3.762 -17.847  1.00  0.00     0.005 A
HETATM    8  C21 UNL     1     -24.872   3.680 -17.822  1.00  0.00     0.056 A
HETATM    9  C22 UNL     1     -25.577   2.525 -18.118  1.00  0.00     0.117 A
HETATM   10  F1  UNL     1     -26.931   2.565 -18.060  1.00  0.00    -0.206 F
HETATM   11  C23 UNL     1     -24.878   1.404 -18.454  1.00  0.00     0.043 A
HETATM   12  C24 UNL     1     -23.480   1.423 -18.498  1.00  0.00     0.016 A
HETATM   13  C25 UNL     1     -22.813   2.586 -18.197  1.00  0.00    -0.008 A
ENDROOT
BRANCH   1  14
HETATM   14  C8  UNL     1     -20.717   1.587 -18.548  1.00  0.00     0.055 C
BRANCH  14  15
HETATM   15  C7  UNL     1     -20.019   1.365 -19.815  1.00  0.00     0.076 A
HETATM   16  C6  UNL     1     -20.624   1.391 -21.073  1.00  0.00     0.040 A
HETATM   17  C5  UNL     1     -19.652   1.135 -21.999  1.00  0.00     0.038 A
HETATM   18  C4  UNL     1     -18.488   0.960 -21.282  1.00  0.00     0.084 A
HETATM   19  O3  UNL     1     -18.753   1.106 -20.009  1.00  0.00    -0.313 OA
BRANCH  18  20
HETATM   20  C3  UNL     1     -17.161   0.660 -21.851  1.00  0.00     0.240 C
BRANCH  20  21
HETATM   21  C2  UNL     1     -16.110   1.241 -20.943  1.00  0.00     0.035 C
HETATM   22  C1  UNL     1     -15.292   0.214 -20.230  1.00  0.00     0.007 C
ENDBRANCH  20  21
BRANCH  20  23
HETATM   23  N1  UNL     1     -17.022  -0.774 -21.999  1.00  0.00    -0.069 N
ATOM     24  H13 UNL     1     -16.954  -1.040 -22.981  1.00  0.00     0.275 HD
ATOM     25  H12 UNL     1     -16.105  -1.091 -21.682  1.00  0.00     0.275 HD
ATOM     26  H11 UNL     1     -17.771  -1.282 -21.529  1.00  0.00     0.275 HD
ENDBRANCH  20  23
ENDBRANCH  18  20
ENDBRANCH  14  15
ENDBRANCH   1  14
BRANCH   6  27
HETATM   27  C12 UNL     1     -23.476   6.041 -17.215  1.00  0.00     0.042 C
BRANCH  27  28
HETATM   28  C13 UNL     1     -23.594   6.447 -15.802  1.00  0.00    -0.031 A
HETATM   29  C14 UNL     1     -24.759   6.410 -15.097  1.00  0.00     0.011 A
HETATM   30  C15 UNL     1     -24.768   6.811 -13.777  1.00  0.00     0.004 A
HETATM   31  C16 UNL     1     -23.596   7.252 -13.168  1.00  0.00     0.037 A
HETATM   32  C17 UNL     1     -22.414   7.294 -13.870  1.00  0.00     0.069 A
HETATM   33  C19 UNL     1     -22.437   6.888 -15.183  1.00  0.00     0.048 A
BRANCH  32  34
HETATM   34  O2  UNL     1     -21.231   7.727 -13.290  1.00  0.00    -0.356 OA
HETATM   35  C18 UNL     1     -21.009   9.113 -13.098  1.00  0.00     0.210 C
ENDBRANCH  32  34
ENDBRANCH  27  28
ENDBRANCH   6  27
TORSDOF 8
ENDMDL