MODEL 5
REMARK VINA RESULT: -7.495412693      1.091      1.374
REMARK  8 active torsions:
REMARK  status: ('A' for Active; 'I' for Inactive)
REMARK    1  A    between atoms: N1_1  and  C1_5
REMARK    2  A    between atoms: C1_5  and  C2_6
REMARK    3  A    between atoms: C1_5  and  C9_14
REMARK    4  A    between atoms: C2_6  and  C3_7
REMARK    5  A    between atoms: C12_17  and  C13_18
REMARK    6  A    between atoms: C14_19  and  C15_20
REMARK    7  A    between atoms: C15_20  and  N2_21
REMARK    8  A    between atoms: N3_24  and  C18_25
ROOT
HETATM    1  C9  UNL     1     -22.985   6.615 -15.092  1.00  0.00     0.041 A
HETATM    2  C10 UNL     1     -22.101   7.264 -14.256  1.00  0.00     0.030 A
HETATM    3  C11 UNL     1     -22.887   7.952 -13.355  1.00  0.00     0.041 A
HETATM    4  C12 UNL     1     -24.231   7.721 -13.642  1.00  0.00     0.087 A
HETATM    5  N4  UNL     1     -24.238   6.909 -14.699  1.00  0.00    -0.351 N
ATOM      6  H4  UNL     1     -25.082   6.556 -15.149  1.00  0.00     0.166 HD
ENDROOT
BRANCH   4   7
HETATM    7  C13 UNL     1     -25.351   8.269 -12.920  1.00  0.00    -0.047 C
HETATM    8  C14 UNL     1     -26.269   8.744 -12.317  1.00  0.00    -0.069 C
BRANCH   8   9
HETATM    9  C15 UNL     1     -27.363   9.338 -11.588  1.00  0.00     0.366 C
BRANCH   9  10
HETATM   10  N2  UNL     1     -27.902  10.525 -12.157  1.00  0.00     0.102 N
HETATM   11  C16 UNL     1     -26.945  11.613 -12.290  1.00  0.00     0.293 C
HETATM   12  C17 UNL     1     -27.664  12.723 -13.055  1.00  0.00     0.153 C
HETATM   13  N3  UNL     1     -29.090  12.638 -12.864  1.00  0.00    -0.378 N
HETATM   14  C24 UNL     1     -29.765  11.416 -13.351  1.00  0.00     0.153 C
HETATM   15  C25 UNL     1     -28.667  10.344 -13.360  1.00  0.00     0.293 C
BRANCH  13  16
HETATM   16  C18 UNL     1     -29.893  13.615 -12.242  1.00  0.00     0.030 A
HETATM   17  C19 UNL     1     -29.562  14.106 -11.009  1.00  0.00     0.029 A
HETATM   18  C20 UNL     1     -30.361  15.084 -10.400  1.00  0.00     0.002 A
HETATM   19  C21 UNL     1     -31.484  15.548 -11.052  1.00  0.00     0.000 A
HETATM   20  C22 UNL     1     -31.798  15.048 -12.280  1.00  0.00     0.002 A
HETATM   21  C23 UNL     1     -31.026  14.094 -12.883  1.00  0.00     0.029 A
ENDBRANCH  13  16
ENDBRANCH   9  10
ENDBRANCH   8   9
ENDBRANCH   4   7
BRANCH   1  22
HETATM   22  C1  UNL     1     -22.694   5.728 -16.248  1.00  0.00     0.237 C
BRANCH  22  23
HETATM   23  N1  UNL     1     -23.066   6.422 -17.492  1.00  0.00    -0.069 N
ATOM     24  H13 UNL     1     -22.507   7.257 -17.669  1.00  0.00     0.275 HD
ATOM     25  H12 UNL     1     -22.801   5.909 -18.333  1.00  0.00     0.275 HD
ATOM     26  H11 UNL     1     -24.066   6.614 -17.436  1.00  0.00     0.275 HD
ENDBRANCH  22  23
BRANCH  22  27
HETATM   27  C2  UNL     1     -21.255   5.354 -16.375  1.00  0.00     0.077 C
BRANCH  27  28
HETATM   28  C3  UNL     1     -20.950   4.353 -17.395  1.00  0.00    -0.056 A
HETATM   29  C4  UNL     1     -21.780   3.295 -17.674  1.00  0.00     0.010 A
HETATM   30  C5  UNL     1     -21.434   2.384 -18.652  1.00  0.00     0.043 A
HETATM   31  C6  UNL     1     -20.271   2.489 -19.374  1.00  0.00     0.116 A
HETATM   32  F1  UNL     1     -19.914   1.612 -20.331  1.00  0.00    -0.206 F
HETATM   33  C7  UNL     1     -19.436   3.546 -19.100  1.00  0.00     0.043 A
HETATM   34  C8  UNL     1     -19.785   4.455 -18.122  1.00  0.00     0.010 A
ENDBRANCH  27  28
ENDBRANCH  22  27
ENDBRANCH   1  22
TORSDOF 8
ENDMDL