MODEL 2
REMARK VINA RESULT: -7.278087461      3.220      4.480
REMARK  5 active torsions:
REMARK  status: ('A' for Active; 'I' for Inactive)
REMARK    1  A    between atoms: N2_8  and  C7_9
REMARK    2  A    between atoms: C7_9  and  C8_10
REMARK    3  A    between atoms: C11_13  and  N3_14
REMARK    4  A    between atoms: N3_14  and  S1_16
REMARK    5  A    between atoms: S1_16  and  C12_19
ROOT
HETATM    1  C8  UNL     1     -22.426   5.981 -16.011  1.00  0.00    -0.040 A
HETATM    2  C9  UNL     1     -22.743   6.404 -14.732  1.00  0.00     0.011 A
HETATM    3  C10 UNL     1     -23.952   7.028 -14.552  1.00  0.00     0.031 A
HETATM    4  C11 UNL     1     -24.819   7.223 -15.615  1.00  0.00     0.042 A
HETATM    5  C18 UNL     1     -24.501   6.799 -16.888  1.00  0.00     0.031 A
HETATM    6  C19 UNL     1     -23.270   6.165 -17.071  1.00  0.00     0.011 A
ENDROOT
BRANCH   1   7
HETATM    7  C7  UNL     1     -21.124   5.304 -16.228  1.00  0.00     0.166 C
BRANCH   7   8
HETATM    8  N2  UNL     1     -21.207   4.286 -17.265  1.00  0.00    -0.361 N
HETATM    9  C6  UNL     1     -22.329   3.575 -17.476  1.00  0.00     0.091 A
HETATM   10  C5  UNL     1     -22.446   2.608 -18.442  1.00  0.00     0.029 A
HETATM   11  C4  UNL     1     -21.341   2.358 -19.239  1.00  0.00    -0.023 A
HETATM   12  C3  UNL     1     -21.358   1.408 -20.233  1.00  0.00     0.014 A
HETATM   13  C21 UNL     1     -20.176   3.069 -19.048  1.00  0.00    -0.009 A
HETATM   14  C2  UNL     1     -20.231   1.202 -20.996  1.00  0.00     0.027 A
HETATM   15  C1  UNL     1     -19.049   1.907 -20.821  1.00  0.00     0.047 A
HETATM   16  N1  UNL     1     -17.906   1.663 -21.629  1.00  0.00    -0.102 NA
HETATM   17  C22 UNL     1     -19.037   2.857 -19.823  1.00  0.00     0.040 A
HETATM   18  C20 UNL     1     -20.140   4.037 -18.043  1.00  0.00     0.103 A
ENDBRANCH   7   8
ENDBRANCH   1   7
BRANCH   4  19
HETATM   19  N3  UNL     1     -26.067   7.876 -15.376  1.00  0.00    -0.281 N
ATOM     20  H3  UNL     1     -26.933   7.355 -15.513  1.00  0.00     0.179 HD
BRANCH  19  21
HETATM   21  S1  UNL     1     -26.149   9.513 -14.864  1.00  0.00     0.263 S
HETATM   22  O1  UNL     1     -24.807  10.164 -15.148  1.00  0.00    -0.200 OA
HETATM   23  O2  UNL     1     -27.161  10.295 -15.660  1.00  0.00    -0.200 OA
BRANCH  21  24
HETATM   24  C12 UNL     1     -26.504   9.554 -13.164  1.00  0.00     0.080 A
HETATM   25  C13 UNL     1     -26.601   8.458 -12.345  1.00  0.00     0.028 A
HETATM   26  C14 UNL     1     -26.887   8.540 -10.990  1.00  0.00     0.044 A
HETATM   27  C15 UNL     1     -27.086   9.772 -10.426  1.00  0.00     0.116 A
HETATM   28  F1  UNL     1     -27.369   9.905  -9.096  1.00  0.00    -0.206 F
HETATM   29  C16 UNL     1     -26.992  10.887 -11.233  1.00  0.00     0.044 A
HETATM   30  C17 UNL     1     -26.707  10.808 -12.587  1.00  0.00     0.028 A
ENDBRANCH  21  24
ENDBRANCH  19  21
ENDBRANCH   4  19
TORSDOF 5
ENDMDL