MODEL 1
REMARK VINA RESULT: -6.185876880      0.000      0.000
REMARK  10 active torsions:
REMARK  status: ('A' for Active; 'I' for Inactive)
REMARK    1  A    between atoms: O1_2  and  C2_3
REMARK    2  A    between atoms: C3_4  and  C4_5
REMARK    3  A    between atoms: C5_6  and  C6_7
REMARK    4  A    between atoms: C6_7  and  O2_8
REMARK    5  A    between atoms: C6_7  and  O3_10
REMARK    6  A    between atoms: C6_7  and  C7_12
REMARK    7  A    between atoms: C7_12  and  C8_13
REMARK    8  A    between atoms: C8_13  and  C9_14
REMARK    9  A    between atoms: C9_14  and  C10_15
REMARK   10  A    between atoms: C11_16  and  C12_17
ROOT
HETATM    1  C6  UNL     1     -23.037   5.577 -17.129  1.00  0.00     0.228 C
ENDROOT
BRANCH   1   2
HETATM    2  C5  UNL     1     -23.662   6.097 -15.930  1.00  0.00    -0.033 C
HETATM    3  C4  UNL     1     -24.201   6.525 -14.936  1.00  0.00    -0.059 C
BRANCH   3   4
HETATM    4  C3  UNL     1     -24.868   7.031 -13.760  1.00  0.00     0.052 A
HETATM    5  C2  UNL     1     -25.313   8.328 -13.650  1.00  0.00     0.098 A
HETATM    6  C25 UNL     1     -25.950   8.798 -12.517  1.00  0.00     0.009 A
HETATM    7  C20 UNL     1     -26.161   7.962 -11.442  1.00  0.00    -0.023 A
HETATM    8  C24 UNL     1     -26.381  10.104 -12.444  1.00  0.00     0.015 A
HETATM    9  C19 UNL     1     -25.723   6.660 -11.535  1.00  0.00     0.014 A
HETATM   10  C21 UNL     1     -26.804   8.427 -10.293  1.00  0.00     0.012 A
HETATM   11  C18 UNL     1     -25.088   6.197 -12.667  1.00  0.00     0.024 A
HETATM   12  C22 UNL     1     -27.242   9.732 -10.204  1.00  0.00     0.001 A
HETATM   13  C23 UNL     1     -27.019  10.550 -11.292  1.00  0.00     0.001 A
BRANCH   5  14
HETATM   14  O1  UNL     1     -25.101   9.191 -14.742  1.00  0.00    -0.354 OA
HETATM   15  C1  UNL     1     -23.894   9.968 -14.752  1.00  0.00     0.210 C
ENDBRANCH   5  14
ENDBRANCH   3   4
ENDBRANCH   1   2
BRANCH   1  16
HETATM   16  O2  UNL     1     -23.187   6.456 -18.219  1.00  0.00    -0.355 OA
ATOM     17  H2  UNL     1     -23.950   7.012 -18.119  1.00  0.00     0.214 HD
ENDBRANCH   1  16
BRANCH   1  18
HETATM   18  O3  UNL     1     -21.687   5.420 -16.920  1.00  0.00    -0.355 OA
ATOM     19  H3  UNL     1     -21.275   6.271 -16.830  1.00  0.00     0.214 HD
ENDBRANCH   1  18
BRANCH   1  20
HETATM   20  C7  UNL     1     -23.718   4.284 -17.526  1.00  0.00     0.084 C
BRANCH  20  21
HETATM   21  C8  UNL     1     -25.183   4.542 -17.852  1.00  0.00     0.018 C
BRANCH  21  22
HETATM   22  C9  UNL     1     -25.988   3.455 -17.171  1.00  0.00     0.094 C
BRANCH  22  23
HETATM   23  C10 UNL     1     -26.760   4.041 -16.076  1.00  0.00    -0.101 C
HETATM   24  C11 UNL     1     -27.382   4.539 -15.162  1.00  0.00    -0.066 C
BRANCH  24  25
HETATM   25  C12 UNL     1     -28.103   5.141 -14.064  1.00  0.00     0.036 A
HETATM   26  C13 UNL     1     -28.512   6.460 -14.079  1.00  0.00     0.065 A
HETATM   27  C14 UNL     1     -29.199   6.992 -13.008  1.00  0.00     0.133 A
HETATM   28  F1  UNL     1     -29.597   8.287 -13.031  1.00  0.00    -0.205 F
HETATM   29  C15 UNL     1     -29.493   6.229 -11.901  1.00  0.00     0.132 A
HETATM   30  N1  UNL     1     -29.094   4.945 -11.887  1.00  0.00    -0.366 N
HETATM   31  C16 UNL     1     -29.419   4.162 -10.708  1.00  0.00     0.155 C
HETATM   32  C17 UNL     1     -28.425   4.420 -12.929  1.00  0.00     0.110 A
ENDBRANCH  24  25
ENDBRANCH  22  23
ENDBRANCH  21  22
ENDBRANCH  20  21
ENDBRANCH   1  20
TORSDOF 10
ENDMDL