MODEL 3
REMARK VINA RESULT: -7.471310748      3.765      5.611
REMARK  6 active torsions:
REMARK  status: ('A' for Active; 'I' for Inactive)
REMARK    1  A    between atoms: C2_5  and  C3_6
REMARK    2  A    between atoms: C2_5  and  C9_12
REMARK    3  A    between atoms: N2_20  and  C16_21
REMARK    4  A    between atoms: C16_21  and  C17_22
REMARK    5  A    between atoms: C17_22  and  O3_23
REMARK    6  A    between atoms: C17_22  and  C18_25
ROOT
HETATM    1  O1  UNL     1     -28.405   6.862 -15.400  1.00  0.00    -0.247 OA
HETATM    2  C1  UNL     1     -27.545   7.689 -15.052  1.00  0.00     0.326 C
HETATM    3  N1  UNL     1     -26.595   7.438 -14.013  1.00  0.00    -0.317 N
ATOM      4  H1  UNL     1     -26.440   6.550 -13.537  1.00  0.00     0.166 HD
HETATM    5  C2  UNL     1     -25.895   8.674 -13.761  1.00  0.00     0.171 C
HETATM    6  C15 UNL     1     -26.264   9.541 -14.878  1.00  0.00     0.266 C
HETATM    7  O2  UNL     1     -25.713  10.634 -15.183  1.00  0.00    -0.269 OA
HETATM    8  N2  UNL     1     -27.373   8.973 -15.608  1.00  0.00    -0.265 N
ENDROOT
BRANCH   5   9
HETATM    9  C3  UNL     1     -26.373   9.181 -12.431  1.00  0.00    -0.016 A
HETATM   10  C4  UNL     1     -26.520   8.271 -11.398  1.00  0.00     0.010 A
HETATM   11  C5  UNL     1     -26.959   8.686 -10.148  1.00  0.00     0.001 A
HETATM   12  C6  UNL     1     -27.250  10.011  -9.930  1.00  0.00     0.000 A
HETATM   13  C7  UNL     1     -27.108  10.926 -10.949  1.00  0.00     0.001 A
HETATM   14  C8  UNL     1     -26.668  10.508 -12.203  1.00  0.00     0.010 A
ENDBRANCH   5   9
BRANCH   5  15
HETATM   15  C9  UNL     1     -24.444   8.377 -13.708  1.00  0.00    -0.016 A
HETATM   16  C10 UNL     1     -23.961   7.101 -13.960  1.00  0.00     0.010 A
HETATM   17  C11 UNL     1     -22.613   6.799 -13.914  1.00  0.00     0.001 A
HETATM   18  C12 UNL     1     -21.692   7.784 -13.609  1.00  0.00     0.000 A
HETATM   19  C13 UNL     1     -22.149   9.049 -13.357  1.00  0.00     0.001 A
HETATM   20  C14 UNL     1     -23.511   9.347 -13.405  1.00  0.00     0.010 A
ENDBRANCH   5  15
BRANCH   8  21
HETATM   21  C16 UNL     1     -28.077   9.668 -16.664  1.00  0.00     0.173 C
BRANCH  21  22
HETATM   22  C17 UNL     1     -29.417  10.163 -16.256  1.00  0.00     0.169 C
BRANCH  22  23
HETATM   23  O3  UNL     1     -30.202   9.071 -15.899  1.00  0.00    -0.389 OA
ATOM     24  H3  UNL     1     -31.010   9.392 -15.517  1.00  0.00     0.210 HD
ENDBRANCH  22  23
BRANCH  22  25
HETATM   25  C18 UNL     1     -29.428  11.100 -15.138  1.00  0.00    -0.028 A
HETATM   26  C19 UNL     1     -28.790  12.326 -15.144  1.00  0.00     0.011 A
HETATM   27  C20 UNL     1     -28.831  13.173 -14.057  1.00  0.00     0.024 A
HETATM   28  C21 UNL     1     -29.514  12.836 -12.909  1.00  0.00     0.034 A
HETATM   29 CL1  UNL     1     -29.565  13.922 -11.519  1.00  0.00    -0.084 Cl
HETATM   30  C22 UNL     1     -30.157  11.618 -12.885  1.00  0.00     0.024 A
HETATM   31  C23 UNL     1     -30.111  10.762 -13.992  1.00  0.00     0.011 A
ENDBRANCH  22  25
ENDBRANCH  21  22
ENDBRANCH   8  21
TORSDOF 6
ENDMDL