MODEL 1
REMARK VINA RESULT: -8.134149811      0.000      0.000
REMARK  6 active torsions:
REMARK  status: ('A' for Active; 'I' for Inactive)
REMARK    1  A    between atoms: N2_5  and  C3_6
REMARK    2  A    between atoms: C3_6  and  C4_7
REMARK    3  A    between atoms: C4_7  and  C5_8
REMARK    4  A    between atoms: N3_9  and  C6_11
REMARK    5  A    between atoms: C22_31  and  C23_32
REMARK    6  A    between atoms: C23_32  and  C24_33
ROOT
HETATM    1  C5  UNL     1       1.862  36.072  80.463  1.00  0.00     0.063 C
HETATM    2  N3  UNL     1       2.369  37.312  80.654  1.00  0.00    -0.368 N
ATOM      3  H3  UNL     1       2.598  37.277  81.647  1.00  0.00     0.165 HD
ENDROOT
BRANCH   2   4
HETATM    4  C6  UNL     1       2.713  38.418  80.383  1.00  0.00     0.055 C
HETATM    5  C7  UNL     1       1.856  39.505  80.645  1.00  0.00     0.018 A
HETATM    6  C8  UNL     1       1.124  39.311  81.788  1.00  0.00     0.019 A
HETATM    7  C12 UNL     1       1.736  40.635  79.867  1.00  0.00     0.048 A
HETATM    8  C9  UNL     1       0.232  40.288  82.169  1.00  0.00     0.043 A
HETATM    9  C10 UNL     1       0.059  41.450  81.434  1.00  0.00     0.118 A
HETATM   10  F1  UNL     1      -0.818  42.421  81.797  1.00  0.00    -0.206 F
HETATM   11  C11 UNL     1       0.830  41.583  80.290  1.00  0.00     0.072 A
HETATM   12  N4  UNL     1       2.406  40.979  78.725  1.00  0.00    -0.358 N
HETATM   13  C13 UNL     1       3.732  40.689  78.484  1.00  0.00     0.017 C
ATOM     14  H4  UNL     1       1.891  41.483  78.004  1.00  0.00     0.166 HD
HETATM   15  C14 UNL     1       4.474  41.663  77.645  1.00  0.00     0.069 C
HETATM   16  C15 UNL     1       4.428  39.579  78.951  1.00  0.00    -0.002 A
HETATM   17  C16 UNL     1       5.737  39.560  78.453  1.00  0.00     0.014 A
HETATM   18  C20 UNL     1       3.990  38.583  79.777  1.00  0.00     0.004 A
HETATM   19  C17 UNL     1       6.579  38.529  78.801  1.00  0.00     0.001 A
HETATM   20  C18 UNL     1       6.114  37.517  79.648  1.00  0.00     0.001 A
HETATM   21  C19 UNL     1       4.823  37.551  80.129  1.00  0.00     0.014 A
ENDBRANCH   2   4
BRANCH   1  22
HETATM   22  C4  UNL     1       2.426  34.986  81.393  1.00  0.00     0.066 C
BRANCH  22  23
HETATM   23  C3  UNL     1       2.864  33.767  80.626  1.00  0.00     0.157 C
BRANCH  23  24
HETATM   24  N2  UNL     1       4.177  33.837  80.075  1.00  0.00    -0.256 N
HETATM   25  N1  UNL     1       5.302  33.905  80.751  1.00  0.00    -0.296 N
HETATM   26  C2  UNL     1       6.360  33.954  79.928  1.00  0.00     0.054 A
ATOM     27  H1  UNL     1       5.362  33.917  81.768  1.00  0.00     0.187 HD
HETATM   28  C1  UNL     1       7.636  34.027  80.286  1.00  0.00     0.045 C
HETATM   29  C22 UNL     1       5.871  33.915  78.643  1.00  0.00     0.061 A
HETATM   30  C21 UNL     1       4.507  33.842  78.772  1.00  0.00     0.274 A
HETATM   31  O1  UNL     1       3.744  33.790  77.766  1.00  0.00    -0.266 OA
BRANCH  29  32
HETATM   32  C23 UNL     1       6.631  33.945  77.561  1.00  0.00     0.030 C
BRANCH  32  33
HETATM   33  C24 UNL     1       7.027  35.185  76.911  1.00  0.00    -0.035 A
HETATM   34  C25 UNL     1       8.343  35.570  76.967  1.00  0.00     0.012 A
HETATM   35  C26 UNL     1       8.721  36.757  76.342  1.00  0.00     0.007 A
HETATM   36  C27 UNL     1       7.768  37.528  75.678  1.00  0.00    -0.062 A
HETATM   37  C28 UNL     1       8.260  38.777  75.042  1.00  0.00     0.048 C
HETATM   38  C29 UNL     1       6.454  37.128  75.630  1.00  0.00     0.007 A
HETATM   39  C30 UNL     1       6.099  35.953  76.252  1.00  0.00     0.012 A
ENDBRANCH  32  33
ENDBRANCH  29  32
ENDBRANCH  23  24
ENDBRANCH  22  23
ENDBRANCH   1  22
TORSDOF 6
ENDMDL