MODEL 3
REMARK VINA RESULT: -8.006356900      1.117      1.372
REMARK  5 active torsions:
REMARK  status: ('A' for Active; 'I' for Inactive)
REMARK    1  A    between atoms: C2_2  and  S1_3
REMARK    2  A    between atoms: S1_3  and  C3_5
REMARK    3  A    between atoms: C6_8  and  C7_9
REMARK    4  A    between atoms: C10_15  and  C11_16
REMARK    5  A    between atoms: C15_20  and  C16_21
ROOT
HETATM    1  C7  UNL     1       8.089  34.646  76.605  1.00  0.00     0.032 C
HETATM    2  C8  UNL     1       7.695  35.852  76.953  1.00  0.00     0.085 A
HETATM    3  C9  UNL     1       8.618  36.991  77.212  1.00  0.00     0.260 A
HETATM    4  O2  UNL     1       9.862  36.890  77.081  1.00  0.00    -0.267 OA
HETATM    5  N1  UNL     1       7.829  38.067  77.591  1.00  0.00    -0.319 N
ATOM      6  H1  UNL     1       8.215  38.981  77.827  1.00  0.00     0.169 HD
HETATM    7  C10 UNL     1       6.558  37.811  77.620  1.00  0.00     0.103 A
HETATM    8  C23 UNL     1       6.378  36.427  77.229  1.00  0.00     0.215 A
HETATM    9  O4  UNL     1       5.309  35.778  77.131  1.00  0.00    -0.285 OA
ENDROOT
BRANCH   7  10
HETATM   10  C11 UNL     1       5.580  38.852  78.005  1.00  0.00     0.069 A
HETATM   11  C12 UNL     1       4.844  38.696  79.174  1.00  0.00    -0.042 A
HETATM   12  C13 UNL     1       4.990  37.514  80.067  1.00  0.00     0.049 C
HETATM   13  C14 UNL     1       3.920  39.697  79.530  1.00  0.00     0.038 A
HETATM   14  C15 UNL     1       3.698  40.824  78.788  1.00  0.00     0.045 A
HETATM   15  N2  UNL     1       4.422  40.940  77.670  1.00  0.00    -0.322 N
HETATM   16  C22 UNL     1       5.341  39.987  77.280  1.00  0.00     0.259 A
ATOM     17  H2  UNL     1       4.292  41.764  77.083  1.00  0.00     0.169 HD
HETATM   18  O3  UNL     1       5.963  40.199  76.215  1.00  0.00    -0.267 OA
BRANCH  14  19
HETATM   19  C16 UNL     1       2.733  41.846  79.177  1.00  0.00    -0.009 A
HETATM   20  C17 UNL     1       3.094  43.166  79.365  1.00  0.00     0.015 A
HETATM   21  C18 UNL     1       2.176  44.153  79.738  1.00  0.00     0.024 A
HETATM   22  C19 UNL     1       0.863  43.834  79.931  1.00  0.00     0.034 A
HETATM   23 CL1  UNL     1      -0.332  45.041  80.401  1.00  0.00    -0.084 Cl
HETATM   24  C20 UNL     1       0.473  42.530  79.753  1.00  0.00     0.024 A
HETATM   25  C21 UNL     1       1.406  41.547  79.378  1.00  0.00     0.015 A
ENDBRANCH  14  19
ENDBRANCH   7  10
BRANCH   1  26
HETATM   26  C6  UNL     1       7.182  33.557  76.351  1.00  0.00    -0.035 A
HETATM   27  C5  UNL     1       6.628  33.400  75.074  1.00  0.00     0.013 A
HETATM   28  C4  UNL     1       5.719  32.414  74.810  1.00  0.00     0.022 A
HETATM   29  C3  UNL     1       5.336  31.552  75.821  1.00  0.00     0.031 A
HETATM   30  C25 UNL     1       5.855  31.665  77.102  1.00  0.00     0.022 A
HETATM   31  C24 UNL     1       6.774  32.676  77.333  1.00  0.00     0.013 A
BRANCH  29  32
HETATM   32  S1  UNL     1       4.187  30.308  75.473  1.00  0.00     0.049 S
HETATM   33  O1  UNL     1       2.910  30.433  76.542  1.00  0.00    -0.253 OA
BRANCH  32  34
HETATM   34  C2  UNL     1       5.004  28.730  75.674  1.00  0.00     0.109 C
HETATM   35  C1  UNL     1       4.462  27.985  76.852  1.00  0.00     0.019 C
ENDBRANCH  32  34
ENDBRANCH  29  32
ENDBRANCH   1  26
TORSDOF 5
ENDMDL