MODEL 4
REMARK VINA RESULT: -7.671776828      1.688      2.158
REMARK  6 active torsions:
REMARK  status: ('A' for Active; 'I' for Inactive)
REMARK    1  A    between atoms: C5_5  and  C6_6
REMARK    2  A    between atoms: C7_9  and  N2_10
REMARK    3  A    between atoms: N2_10  and  S1_12
REMARK    4  A    between atoms: S1_12  and  C8_15
REMARK    5  A    between atoms: C11_18  and  S2_19
REMARK    6  A    between atoms: S2_19  and  N3_22
ROOT
HETATM    1  N2  UNL     1       5.699  37.048  80.019  1.00  0.00    -0.266 N
ATOM      2  H2  UNL     1       6.001  37.618  80.810  1.00  0.00     0.180 HD
ENDROOT
BRANCH   1   3
HETATM    3  C7  UNL     1       6.256  37.260  78.873  1.00  0.00     0.115 A
HETATM    4  N1  UNL     1       6.770  36.235  78.179  1.00  0.00    -0.341 N
HETATM    5  C6  UNL     1       7.380  36.380  76.954  1.00  0.00     0.050 A
ATOM      6  H1  UNL     1       6.707  35.299  78.580  1.00  0.00     0.167 HD
HETATM    7  C18 UNL     1       7.437  37.644  76.472  1.00  0.00    -0.034 A
HETATM    8  C17 UNL     1       6.899  38.740  77.186  1.00  0.00     0.013 A
HETATM    9  C19 UNL     1       8.119  37.957  75.198  1.00  0.00     0.050 C
HETATM   10  C16 UNL     1       6.304  38.555  78.395  1.00  0.00     0.050 A
BRANCH   5  11
HETATM   11  C5  UNL     1       7.948  35.200  76.355  1.00  0.00    -0.007 A
HETATM   12  C4  UNL     1       7.174  34.464  75.438  1.00  0.00     0.014 A
HETATM   13  C3  UNL     1       7.662  33.373  74.756  1.00  0.00     0.009 A
HETATM   14  C2  UNL     1       8.952  32.935  74.937  1.00  0.00    -0.040 A
HETATM   15  C1  UNL     1       9.495  31.765  74.217  1.00  0.00     0.050 C
HETATM   16  C21 UNL     1       9.736  33.628  75.824  1.00  0.00     0.040 A
HETATM   17  C20 UNL     1       9.225  34.730  76.502  1.00  0.00     0.038 A
HETATM   18 CL1  UNL     1      11.389  33.101  76.084  1.00  0.00    -0.084 Cl
ENDBRANCH   5  11
ENDBRANCH   1   3
BRANCH   1  19
HETATM   19  S1  UNL     1       4.488  35.875  80.296  1.00  0.00     0.264 S
HETATM   20  O1  UNL     1       4.339  34.981  79.105  1.00  0.00    -0.200 OA
HETATM   21  O2  UNL     1       4.797  35.046  81.511  1.00  0.00    -0.200 OA
BRANCH  19  22
HETATM   22  C8  UNL     1       2.968  36.753  80.527  1.00  0.00     0.080 A
HETATM   23  C9  UNL     1       1.789  36.094  80.796  1.00  0.00     0.027 A
HETATM   24  C10 UNL     1       0.594  36.796  80.976  1.00  0.00     0.026 A
HETATM   25  C11 UNL     1       0.635  38.161  80.875  1.00  0.00     0.074 A
HETATM   26  C14 UNL     1       1.799  38.832  80.609  1.00  0.00     0.026 A
HETATM   27  C15 UNL     1       2.988  38.129  80.430  1.00  0.00     0.027 A
BRANCH  25  28
HETATM   28  S2  UNL     1      -0.836  39.061  81.095  1.00  0.00     0.242 S
HETATM   29  O3  UNL     1      -2.007  38.337  80.462  1.00  0.00    -0.206 OA
HETATM   30  O4  UNL     1      -0.733  40.386  80.442  1.00  0.00    -0.206 OA
BRANCH  28  31
HETATM   31  N3  UNL     1      -1.113  39.209  82.795  1.00  0.00    -0.215 NA
HETATM   32  C12 UNL     1      -2.503  39.322  83.110  1.00  0.00     0.129 C
HETATM   33  C13 UNL     1      -0.309  40.266  83.376  1.00  0.00     0.129 C
ENDBRANCH  28  31
ENDBRANCH  25  28
ENDBRANCH  19  22
ENDBRANCH   1  19
TORSDOF 6
ENDMDL