MODEL 3
REMARK VINA RESULT: -7.797416636      5.245      7.966
REMARK  5 active torsions:
REMARK  status: ('A' for Active; 'I' for Inactive)
REMARK    1  A    between atoms: C2_5  and  C3_6
REMARK    2  A    between atoms: C11_16  and  C12_17
REMARK    3  A    between atoms: C19_25  and  C20_26
REMARK    4  A    between atoms: C20_26  and  O2_27
REMARK    5  A    between atoms: O2_27  and  C21_28
ROOT
HETATM    1  O1  UNL     1       6.629  35.214  75.748  1.00  0.00    -0.267 OA
HETATM    2  C1  UNL     1       6.032  34.641  76.696  1.00  0.00     0.261 A
HETATM    3  N1  UNL     1       5.512  33.414  76.486  1.00  0.00    -0.308 N
ATOM      4  H1  UNL     1       5.624  32.997  75.562  1.00  0.00     0.170 HD
HETATM    5  C2  UNL     1       4.856  32.710  77.420  1.00  0.00     0.119 A
HETATM    6  N2  UNL     1       4.718  33.261  78.617  1.00  0.00    -0.327 N
ATOM      7  H2  UNL     1       4.221  32.734  79.336  1.00  0.00     0.169 HD
HETATM    8  C9  UNL     1       5.203  34.500  78.943  1.00  0.00     0.119 A
HETATM    9  C10 UNL     1       5.871  35.195  77.960  1.00  0.00     0.083 A
HETATM   10  C11 UNL     1       6.352  36.376  78.222  1.00  0.00    -0.026 A
HETATM   11  C18 UNL     1       6.199  37.001  79.565  1.00  0.00     0.068 A
HETATM   12  C19 UNL     1       5.478  36.220  80.580  1.00  0.00     0.111 A
HETATM   13  N3  UNL     1       5.009  34.939  80.144  1.00  0.00    -0.368 N
ATOM     14  H3  UNL     1       4.503  34.351  80.806  1.00  0.00     0.161 HD
ENDROOT
BRANCH  12  15
HETATM   15  C20 UNL     1       4.243  36.968  81.099  1.00  0.00     0.201 C
BRANCH  15  16
HETATM   16  O2  UNL     1       3.514  37.436  79.968  1.00  0.00    -0.349 OA
BRANCH  16  17
HETATM   17  C21 UNL     1       3.126  38.764  79.902  1.00  0.00     0.068 A
HETATM   18  C22 UNL     1       3.820  39.651  79.118  1.00  0.00     0.037 A
HETATM   19  C23 UNL     1       3.408  40.963  79.076  1.00  0.00     0.003 A
HETATM   20  C24 UNL     1       2.327  41.437  79.783  1.00  0.00     0.000 A
HETATM   21  C25 UNL     1       1.648  40.525  80.561  1.00  0.00     0.003 A
HETATM   22  C26 UNL     1       2.045  39.211  80.617  1.00  0.00     0.037 A
ENDBRANCH  16  17
ENDBRANCH  15  16
ENDBRANCH  12  15
BRANCH  10  23
HETATM   23  C12 UNL     1       7.075  37.189  77.245  1.00  0.00    -0.029 A
HETATM   24  C13 UNL     1       6.359  38.100  76.504  1.00  0.00     0.013 A
HETATM   25  C14 UNL     1       7.020  38.849  75.548  1.00  0.00     0.020 A
HETATM   26  C15 UNL     1       8.359  38.686  75.342  1.00  0.00     0.011 A
HETATM   27 BR1  UNL     1       9.291  39.722  74.014  1.00  0.00    -0.051 Br
HETATM   28  C16 UNL     1       9.042  37.763  76.105  1.00  0.00     0.020 A
HETATM   29  C17 UNL     1       8.412  37.008  77.059  1.00  0.00     0.013 A
ENDBRANCH  10  23
BRANCH   5  30
HETATM   30  C3  UNL     1       4.341  31.405  77.084  1.00  0.00     0.008 A
HETATM   31  C4  UNL     1       3.533  30.681  77.917  1.00  0.00     0.015 A
HETATM   32  C5  UNL     1       3.047  29.416  77.565  1.00  0.00     0.001 A
HETATM   33  C6  UNL     1       3.395  28.898  76.353  1.00  0.00     0.000 A
HETATM   34  C7  UNL     1       4.208  29.584  75.469  1.00  0.00     0.001 A
HETATM   35  C8  UNL     1       4.659  30.813  75.854  1.00  0.00     0.015 A
ENDBRANCH   5  30
TORSDOF 5
ENDMDL