MODEL 4
REMARK VINA RESULT: -8.157592065      4.112      9.631
REMARK  6 active torsions:
REMARK  status: ('A' for Active; 'I' for Inactive)
REMARK    1  A    between atoms: C2_2  and  N1_4
REMARK    2  A    between atoms: C5_6  and  C6_7
REMARK    3  A    between atoms: C14_16  and  C15_17
REMARK    4  A    between atoms: C15_17  and  C16_18
REMARK    5  A    between atoms: C16_18  and  C17_19
REMARK    6  A    between atoms: C18_22  and  C19_23
ROOT
HETATM    1  C19 UNL     1       7.152  35.755  76.833  1.00  0.00    -0.034 A
HETATM    2  C20 UNL     1       6.363  36.493  75.977  1.00  0.00     0.011 A
HETATM    3  C21 UNL     1       6.796  37.615  75.307  1.00  0.00     0.023 A
HETATM    4  C22 UNL     1       8.106  38.026  75.507  1.00  0.00     0.044 A
HETATM    5  C23 UNL     1       8.535  39.189  74.803  1.00  0.00     0.099 C
HETATM    6  N3  UNL     1       8.880  40.140  74.235  1.00  0.00    -0.191 NA
HETATM    7  C24 UNL     1       8.907  37.302  76.357  1.00  0.00     0.023 A
HETATM    8  C25 UNL     1       8.444  36.169  77.024  1.00  0.00     0.011 A
ENDROOT
BRANCH   1   9
HETATM    9  C18 UNL     1       6.534  34.581  77.499  1.00  0.00     0.145 A
HETATM   10  N2  UNL     1       7.102  34.153  78.682  1.00  0.00    -0.384 N
HETATM   11  C17 UNL     1       7.466  33.052  78.228  1.00  0.00     0.011 A
ATOM     12  H2  UNL     1       7.191  34.585  79.602  1.00  0.00     0.160 HD
HETATM   13  C26 UNL     1       6.919  33.304  76.926  1.00  0.00     0.165 A
HETATM   14  C27 UNL     1       5.775  32.407  76.509  1.00  0.00     0.170 C
HETATM   15  C29 UNL     1       7.814  33.259  75.745  1.00  0.00     0.242 C
HETATM   16  O1  UNL     1       5.157  31.699  77.242  1.00  0.00    -0.294 OA
HETATM   17  C28 UNL     1       5.656  32.643  75.043  1.00  0.00     0.202 C
HETATM   18  N4  UNL     1       6.918  33.235  74.632  1.00  0.00    -0.353 N
ATOM     19  H4  UNL     1       7.131  33.579  73.695  1.00  0.00     0.162 HD
HETATM   20  O2  UNL     1       9.057  33.244  75.696  1.00  0.00    -0.272 OA
BRANCH  11  21
HETATM   21  C16 UNL     1       8.199  31.821  78.753  1.00  0.00     0.060 C
BRANCH  21  22
HETATM   22  C15 UNL     1       9.579  32.175  79.193  1.00  0.00     0.063 C
BRANCH  22  23
HETATM   23  C14 UNL     1      10.638  31.570  78.385  1.00  0.00     0.012 A
HETATM   24  N1  UNL     1      11.896  32.022  78.462  1.00  0.00    -0.355 N
HETATM   25  C4  UNL     1      12.851  31.442  77.712  1.00  0.00     0.103 A
HETATM   26  C5  UNL     1      12.581  30.381  76.850  1.00  0.00    -0.010 A
HETATM   27  C12 UNL     1      11.288  29.907  76.763  1.00  0.00     0.015 A
HETATM   28  C13 UNL     1      10.307  30.506  77.538  1.00  0.00     0.026 A
BRANCH  24  29
HETATM   29  C2  UNL     1      12.202  33.112  79.331  1.00  0.00     0.081 C
HETATM   30  C1  UNL     1      13.020  34.192  78.633  1.00  0.00     0.032 C
HETATM   31  C3  UNL     1      13.120  32.567  80.436  1.00  0.00     0.032 C
ENDBRANCH  24  29
BRANCH  26  32
HETATM   32  C6  UNL     1      13.630  29.766  76.046  1.00  0.00    -0.024 A
HETATM   33  C7  UNL     1      13.335  29.381  74.759  1.00  0.00     0.015 A
HETATM   34  C8  UNL     1      14.288  28.791  73.942  1.00  0.00     0.043 A
HETATM   35  C9  UNL     1      15.565  28.575  74.412  1.00  0.00     0.116 A
HETATM   36  F1  UNL     1      16.503  27.999  73.624  1.00  0.00    -0.206 F
HETATM   37  C10 UNL     1      15.843  28.967  75.707  1.00  0.00     0.043 A
HETATM   38  C11 UNL     1      14.901  29.550  76.510  1.00  0.00     0.015 A
ENDBRANCH  26  32
ENDBRANCH  22  23
ENDBRANCH  21  22
ENDBRANCH  11  21
ENDBRANCH   1   9
TORSDOF 6
ENDMDL