MODEL 4
REMARK VINA RESULT: -7.670650658      3.877      6.289
REMARK  6 active torsions:
REMARK  status: ('A' for Active; 'I' for Inactive)
REMARK    1  A    between atoms: C2_2  and  C3_3
REMARK    2  A    between atoms: C2_2  and  N3_13
REMARK    3  A    between atoms: C3_3  and  C4_4
REMARK    4  A    between atoms: C9_16  and  C10_17
REMARK    5  A    between atoms: C16_24  and  C17_25
REMARK    6  A    between atoms: C22_30  and  C23_31
ROOT
HETATM    1  N3  UNL     1       8.138  32.900  75.863  1.00  0.00    -0.282 N
HETATM    2  C8  UNL     1       7.871  32.086  76.991  1.00  0.00     0.236 C
HETATM    3  O2  UNL     1       6.947  32.378  77.810  1.00  0.00    -0.272 OA
HETATM    4  C9  UNL     1       8.825  30.983  76.939  1.00  0.00     0.129 C
HETATM    5  C16 UNL     1       9.978  31.479  76.022  1.00  0.00     0.129 C
HETATM    6  C27 UNL     1       9.162  32.247  75.095  1.00  0.00     0.236 C
HETATM    7  O3  UNL     1       9.266  32.359  73.845  1.00  0.00    -0.272 OA
ENDROOT
BRANCH   1   8
HETATM    8  C2  UNL     1       7.502  34.143  75.467  1.00  0.00     0.097 C
HETATM    9  C1  UNL     1       6.041  33.697  75.190  1.00  0.00     0.033 C
BRANCH   8  10
HETATM   10  C3  UNL     1       7.387  35.161  76.552  1.00  0.00     0.084 C
BRANCH  10  11
HETATM   11  C4  UNL     1       7.588  36.513  76.021  1.00  0.00     0.028 A
HETATM   12  C5  UNL     1       8.851  37.025  75.808  1.00  0.00     0.032 A
HETATM   13  C6  UNL     1       9.036  38.317  75.347  1.00  0.00     0.077 A
HETATM   14  C7  UNL     1       7.929  39.097  75.100  1.00  0.00     0.259 A
HETATM   15  O1  UNL     1       8.021  40.289  74.676  1.00  0.00    -0.267 OA
HETATM   16  N1  UNL     1       6.696  38.564  75.318  1.00  0.00    -0.266 N
HETATM   17  N2  UNL     1       6.559  37.322  75.762  1.00  0.00    -0.302 N
ATOM     18  H1  UNL     1       5.865  39.128  75.139  1.00  0.00     0.190 HD
ATOM     19  H2  UNL     1       5.616  36.966  75.913  1.00  0.00     0.186 HD
ENDBRANCH  10  11
ENDBRANCH   8  10
ENDBRANCH   1   8
BRANCH   4  20
HETATM   20  C10 UNL     1       8.227  29.752  76.355  1.00  0.00    -0.044 A
HETATM   21  C11 UNL     1       6.889  29.506  76.533  1.00  0.00     0.010 A
HETATM   22  C12 UNL     1       6.273  28.381  76.006  1.00  0.00     0.024 A
HETATM   23  C13 UNL     1       7.006  27.475  75.281  1.00  0.00     0.034 A
HETATM   24 CL1  UNL     1       6.306  26.020  74.575  1.00  0.00    -0.084 Cl
HETATM   25  C14 UNL     1       8.366  27.702  75.087  1.00  0.00     0.024 A
HETATM   26  C15 UNL     1       8.952  28.849  75.633  1.00  0.00     0.010 A
ENDBRANCH   4  20
BRANCH   5  27
HETATM   27  C17 UNL     1      10.995  32.042  76.870  1.00  0.00    -0.037 A
HETATM   28  C18 UNL     1      10.866  33.352  77.320  1.00  0.00     0.009 A
HETATM   29  C19 UNL     1      11.761  33.972  78.165  1.00  0.00     0.001 A
HETATM   30  C20 UNL     1      12.838  33.261  78.588  1.00  0.00     0.001 A
HETATM   31  C21 UNL     1      12.976  31.969  78.150  1.00  0.00     0.008 A
HETATM   32  C22 UNL     1      12.100  31.296  77.295  1.00  0.00    -0.043 A
BRANCH  32  33
HETATM   33  C23 UNL     1      12.388  29.925  76.871  1.00  0.00    -0.024 C
HETATM   34  C24 UNL     1      13.920  29.737  77.162  1.00  0.00     0.019 C
HETATM   35  C25 UNL     1      12.421  29.726  75.358  1.00  0.00     0.019 C
HETATM   36  C26 UNL     1      11.797  28.803  77.630  1.00  0.00     0.019 C
ENDBRANCH  32  33
ENDBRANCH   5  27
TORSDOF 6
ENDMDL