MODEL 5
REMARK VINA RESULT: -7.566412403      3.121      4.847
REMARK  5 active torsions:
REMARK  status: ('A' for Active; 'I' for Inactive)
REMARK    1  A    between atoms: O1_2  and  C2_3
REMARK    2  A    between atoms: C5_6  and  C6_7
REMARK    3  A    between atoms: C7_8  and  C8_9
REMARK    4  A    between atoms: C13_16  and  S1_17
REMARK    5  A    between atoms: S1_17  and  N2_20
ROOT
HETATM    1  C6  UNL     1       6.901  36.048  77.718  1.00  0.00    -0.032 C
HETATM    2  C7  UNL     1       7.680  35.939  76.618  1.00  0.00     0.029 C
HETATM    3  C18 UNL     1       8.243  37.225  76.249  1.00  0.00     0.161 C
HETATM    4  O4  UNL     1       8.668  37.713  75.191  1.00  0.00    -0.292 OA
HETATM    5  C19 UNL     1       8.222  37.990  77.552  1.00  0.00     0.088 C
HETATM    6  C20 UNL     1       6.935  37.449  78.170  1.00  0.00     0.048 C
ENDROOT
BRANCH   2   7
HETATM    7  C8  UNL     1       7.935  34.705  75.913  1.00  0.00     0.006 A
HETATM    8  C9  UNL     1       7.167  34.164  74.885  1.00  0.00     0.101 A
HETATM    9  N1  UNL     1       7.732  33.016  74.497  1.00  0.00    -0.364 N
HETATM   10  C10 UNL     1       8.842  32.749  75.210  1.00  0.00     0.043 A
ATOM     11  H1  UNL     1       7.368  32.418  73.755  1.00  0.00     0.165 HD
HETATM   12  C11 UNL     1       9.745  31.706  75.179  1.00  0.00     0.032 A
HETATM   13  C17 UNL     1       8.969  33.819  76.104  1.00  0.00     0.005 A
HETATM   14  C12 UNL     1      10.813  31.732  76.074  1.00  0.00     0.027 A
HETATM   15  C13 UNL     1      10.972  32.768  76.972  1.00  0.00     0.075 A
HETATM   16  C16 UNL     1      10.064  33.787  76.980  1.00  0.00     0.039 A
BRANCH  15  17
HETATM   17  S1  UNL     1      12.306  32.820  78.099  1.00  0.00     0.243 S
HETATM   18  O2  UNL     1      13.355  31.813  77.723  1.00  0.00    -0.206 OA
HETATM   19  O3  UNL     1      12.972  34.163  78.115  1.00  0.00    -0.206 OA
BRANCH  17  20
HETATM   20  N2  UNL     1      11.697  32.523  79.672  1.00  0.00    -0.215 NA
HETATM   21  C14 UNL     1      10.925  31.331  79.790  1.00  0.00     0.129 C
HETATM   22  C15 UNL     1      12.689  32.652  80.697  1.00  0.00     0.129 C
ENDBRANCH  17  20
ENDBRANCH  15  17
ENDBRANCH   2   7
BRANCH   1  23
HETATM   23  C5  UNL     1       6.201  34.930  78.363  1.00  0.00    -0.015 A
HETATM   24  C4  UNL     1       6.718  34.233  79.401  1.00  0.00     0.004 A
HETATM   25  C3  UNL     1       7.905  34.586  79.995  1.00  0.00     0.054 A
HETATM   26  C24 UNL     1       6.025  33.129  79.901  1.00  0.00     0.048 A
HETATM   27  C2  UNL     1       8.425  33.866  81.081  1.00  0.00     0.107 A
HETATM   28  C26 UNL     1       7.714  32.784  81.545  1.00  0.00     0.151 A
HETATM   29  C25 UNL     1       6.522  32.414  80.963  1.00  0.00     0.075 A
HETATM   30  F1  UNL     1       8.224  32.096  82.590  1.00  0.00    -0.203 F
HETATM   31  N3  UNL     1       4.850  32.727  79.391  1.00  0.00    -0.360 N
HETATM   32  C22 UNL     1       4.308  33.403  78.359  1.00  0.00     0.091 A
HETATM   33  C23 UNL     1       4.150  31.560  79.947  1.00  0.00     0.155 C
HETATM   34  C21 UNL     1       4.971  34.492  77.847  1.00  0.00     0.030 A
BRANCH  27  35
HETATM   35  O1  UNL     1       9.616  34.247  81.649  1.00  0.00    -0.353 OA
HETATM   36  C1  UNL     1       9.695  34.615  83.013  1.00  0.00     0.210 C
ENDBRANCH  27  35
ENDBRANCH   1  23
TORSDOF 5
ENDMDL