MODEL 1
REMARK VINA RESULT: -7.420467167      0.000      0.000
REMARK  5 active torsions:
REMARK  status: ('A' for Active; 'I' for Inactive)
REMARK    1  A    between atoms: S1_2  and  C2_4
REMARK    2  A    between atoms: C5_7  and  C6_8
REMARK    3  A    between atoms: C6_8  and  C7_9
REMARK    4  A    between atoms: C11_13  and  C12_14
REMARK    5  A    between atoms: C15_17  and  S2_18
ROOT
HETATM    1  C7  UNL     1       7.820  37.559  76.478  1.00  0.00     0.051 C
HETATM    2  C8  UNL     1       8.037  38.574  75.317  1.00  0.00     0.043 C
HETATM    3  C9  UNL     1       8.890  36.557  76.279  1.00  0.00     0.008 C
HETATM    4  C10 UNL     1       8.747  35.255  76.370  1.00  0.00    -0.055 C
HETATM    5  C11 UNL     1       9.205  33.814  76.325  1.00  0.00     0.050 C
HETATM    6  C18 UNL     1       7.793  33.369  76.291  1.00  0.00     0.037 C
HETATM    7  C19 UNL     1       7.408  34.712  76.782  1.00  0.00     0.062 C
HETATM    8  C20 UNL     1       7.137  34.744  78.272  1.00  0.00     0.030 C
HETATM    9  C21 UNL     1       6.428  35.526  76.005  1.00  0.00     0.231 C
HETATM   10  O4  UNL     1       5.591  35.063  75.227  1.00  0.00    -0.272 OA
HETATM   11  N1  UNL     1       6.528  36.951  76.232  1.00  0.00    -0.348 N
ATOM     12  H1  UNL     1       5.687  37.529  76.220  1.00  0.00     0.163 HD
ENDROOT
BRANCH   1  13
HETATM   13  C6  UNL     1       7.840  38.288  77.766  1.00  0.00     0.073 C
BRANCH  13  14
HETATM   14  C5  UNL     1       6.489  38.491  78.347  1.00  0.00    -0.055 A
HETATM   15  C4  UNL     1       5.674  39.511  77.912  1.00  0.00     0.009 A
HETATM   16  C3  UNL     1       4.412  39.720  78.443  1.00  0.00     0.021 A
HETATM   17  C2  UNL     1       3.919  38.902  79.441  1.00  0.00     0.031 A
HETATM   18  C23 UNL     1       4.754  37.887  79.860  1.00  0.00     0.021 A
HETATM   19  C22 UNL     1       6.007  37.670  79.342  1.00  0.00     0.009 A
BRANCH  17  20
HETATM   20  S1  UNL     1       2.326  39.154  80.123  1.00  0.00     0.045 S
HETATM   21  C1  UNL     1       2.016  37.994  81.436  1.00  0.00     0.133 C
HETATM   22  O1  UNL     1       2.303  40.695  80.834  1.00  0.00    -0.253 OA
ENDBRANCH  17  20
ENDBRANCH  13  14
ENDBRANCH   1  13
BRANCH   5  23
HETATM   23  C12 UNL     1      10.096  33.501  77.407  1.00  0.00    -0.050 A
HETATM   24  C13 UNL     1      11.189  34.213  77.835  1.00  0.00     0.009 A
HETATM   25  C14 UNL     1      12.003  33.845  78.879  1.00  0.00     0.025 A
HETATM   26  C15 UNL     1      11.734  32.694  79.562  1.00  0.00     0.074 A
HETATM   27  C16 UNL     1      10.647  31.940  79.176  1.00  0.00     0.025 A
HETATM   28  C17 UNL     1       9.844  32.325  78.127  1.00  0.00     0.009 A
BRANCH  26  29
HETATM   29  S2  UNL     1      12.710  32.136  80.910  1.00  0.00     0.262 S
HETATM   30  O2  UNL     1      13.817  33.086  81.197  1.00  0.00    -0.206 OA
HETATM   31  O3  UNL     1      11.825  31.947  82.112  1.00  0.00    -0.206 OA
HETATM   32 CL1  UNL     1      13.432  30.264  80.396  1.00  0.00     0.024 Cl
ENDBRANCH  26  29
ENDBRANCH   5  23
TORSDOF 5
ENDMDL