MODEL 2
REMARK VINA RESULT: -6.930857121      2.552      4.310
REMARK  8 active torsions:
REMARK  status: ('A' for Active; 'I' for Inactive)
REMARK    1  A    between atoms: N1_1  and  S1_4
REMARK    2  A    between atoms: S1_4  and  C1_7
REMARK    3  A    between atoms: C4_10  and  C5_11
REMARK    4  A    between atoms: C5_11  and  C6_12
REMARK    5  A    between atoms: C7_14  and  C8_15
REMARK    6  A    between atoms: C8_15  and  C9_16
REMARK    7  A    between atoms: N2_23  and  C15_24
REMARK    8  A    between atoms: C15_24  and  C16_25
ROOT
HETATM    1  C6  UNL     1       3.721  37.329  80.036  1.00  0.00     0.076 A
HETATM    2  S2  UNL     1       5.078  38.273  79.644  1.00  0.00    -0.067 SA
HETATM    3  C7  UNL     1       6.151  37.003  79.239  1.00  0.00     0.081 A
HETATM    4  N2  UNL     1       5.419  35.907  79.420  1.00  0.00    -0.303 N
HETATM    5  C22 UNL     1       4.183  36.056  79.826  1.00  0.00     0.266 A
HETATM    6  O3  UNL     1       3.349  35.089  80.053  1.00  0.00    -0.266 OA
ENDROOT
BRANCH   1   7
HETATM    7  C5  UNL     1       2.508  37.748  80.446  1.00  0.00     0.036 C
BRANCH   7   8
HETATM    8  C4  UNL     1       2.267  39.186  80.443  1.00  0.00    -0.035 A
HETATM    9  C3  UNL     1       2.707  40.012  79.426  1.00  0.00     0.013 A
HETATM   10  C2  UNL     1       2.449  41.376  79.475  1.00  0.00     0.026 A
HETATM   11  C1  UNL     1       1.753  41.949  80.523  1.00  0.00     0.079 A
HETATM   12  C24 UNL     1       1.312  41.120  81.538  1.00  0.00     0.026 A
HETATM   13  C23 UNL     1       1.574  39.751  81.489  1.00  0.00     0.013 A
BRANCH  11  14
HETATM   14  S1  UNL     1       1.418  43.661  80.601  1.00  0.00     0.256 S
HETATM   15  O1  UNL     1       0.452  44.063  79.515  1.00  0.00    -0.201 OA
HETATM   16  O2  UNL     1       2.709  44.414  80.365  1.00  0.00    -0.201 OA
BRANCH  14  17
HETATM   17  N1  UNL     1       0.821  44.049  82.159  1.00  0.00    -0.324 N
ATOM     18  H12 UNL     1       0.296  44.900  82.361  1.00  0.00     0.169 HD
ATOM     19  H11 UNL     1       1.057  43.332  82.845  1.00  0.00     0.169 HD
ENDBRANCH  14  17
ENDBRANCH  11  14
ENDBRANCH   7   8
ENDBRANCH   1   7
BRANCH   3  20
HETATM   20  C8  UNL     1       7.424  37.132  78.869  1.00  0.00     0.050 C
BRANCH  20  21
HETATM   21  C9  UNL     1       7.729  37.601  77.501  1.00  0.00    -0.012 A
HETATM   22  C10 UNL     1       6.857  38.382  76.817  1.00  0.00     0.013 A
HETATM   23  C11 UNL     1       7.162  38.819  75.521  1.00  0.00     0.001 A
HETATM   24  C12 UNL     1       8.353  38.470  74.905  1.00  0.00     0.002 A
HETATM   25  C13 UNL     1       9.222  37.676  75.623  1.00  0.00     0.024 A
HETATM   26  C14 UNL     1       8.917  37.239  76.918  1.00  0.00     0.044 A
HETATM   27 CL1  UNL     1      10.033  36.233  77.810  1.00  0.00    -0.083 Cl
ENDBRANCH  20  21
ENDBRANCH   3  20
BRANCH   4  28
HETATM   28  C15 UNL     1       5.977  34.561  79.144  1.00  0.00     0.171 C
BRANCH  28  29
HETATM   29  C16 UNL     1       6.447  34.382  77.757  1.00  0.00    -0.040 A
HETATM   30  C17 UNL     1       5.687  34.850  76.674  1.00  0.00     0.009 A
HETATM   31  C18 UNL     1       6.158  34.660  75.404  1.00  0.00     0.001 A
HETATM   32  C19 UNL     1       7.355  34.026  75.131  1.00  0.00     0.000 A
HETATM   33  C20 UNL     1       8.110  33.561  76.187  1.00  0.00     0.001 A
HETATM   34  C21 UNL     1       7.633  33.752  77.485  1.00  0.00     0.009 A
ENDBRANCH  28  29
ENDBRANCH   4  28
TORSDOF 8
ENDMDL