MODEL 2
REMARK VINA RESULT: -6.774348789      1.305      2.098
REMARK  8 active torsions:
REMARK  status: ('A' for Active; 'I' for Inactive)
REMARK    1  A    between atoms: C2_3  and  C3_4
REMARK    2  A    between atoms: C2_3  and  N4_15
REMARK       I    between atoms: C3_4  and  N2_6
REMARK    3  A    between atoms: N2_6  and  C4_8
REMARK    4  A    between atoms: N4_15  and  C7_16
REMARK    5  A    between atoms: N4_15  and  C8_18
REMARK    6  A    between atoms: C8_18  and  C9_19
REMARK    7  A    between atoms: C12_22  and  C13_23
REMARK    8  A    between atoms: C14_24  and  C15_25
ROOT
HETATM    1  N1  UNL     1      10.374  31.402  78.578  1.00  0.00    -0.195 NA
HETATM    2  C1  UNL     1       9.738  32.091  77.898  1.00  0.00     0.094 C
HETATM    3  C2  UNL     1       8.911  32.958  77.043  1.00  0.00     0.287 C
ENDROOT
BRANCH   3   4
HETATM    4  C3  UNL     1       7.525  32.975  77.567  1.00  0.00     0.260 C
HETATM    5  O1  UNL     1       6.578  32.875  76.751  1.00  0.00    -0.270 OA
HETATM    6  N2  UNL     1       7.249  33.101  78.947  1.00  0.00    -0.304 N
ATOM      7  H2  UNL     1       7.551  32.380  79.603  1.00  0.00     0.171 HD
BRANCH   6   8
HETATM    8  C4  UNL     1       6.594  34.164  79.374  1.00  0.00     0.152 A
HETATM    9  N3  UNL     1       7.103  35.251  79.947  1.00  0.00    -0.345 N
HETATM   10  C5  UNL     1       6.298  36.207  80.305  1.00  0.00     0.116 A
ATOM     11  H3  UNL     1       8.108  35.332  80.102  1.00  0.00     0.167 HD
HETATM   12  C6  UNL     1       4.959  36.034  80.067  1.00  0.00     0.070 A
HETATM   13 BR1  UNL     1       3.513  37.245  80.471  1.00  0.00    -0.042 Br
HETATM   14  S1  UNL     1       4.920  34.494  79.335  1.00  0.00    -0.045 SA
ENDBRANCH   6   8
ENDBRANCH   3   4
BRANCH   3  15
HETATM   15  N4  UNL     1       9.467  34.308  77.022  1.00  0.00    -0.330 N
BRANCH  15  16
HETATM   16  C7  UNL     1      10.329  34.656  78.083  1.00  0.00     0.352 C
HETATM   17  O2  UNL     1       9.813  35.028  79.178  1.00  0.00    -0.283 OA
ENDBRANCH  15  16
BRANCH  15  18
HETATM   18  C8  UNL     1       9.168  35.250  75.985  1.00  0.00     0.165 C
BRANCH  18  19
HETATM   19  C9  UNL     1       8.300  36.317  76.491  1.00  0.00    -0.040 A
HETATM   20  C10 UNL     1       8.722  37.435  77.161  1.00  0.00     0.010 A
HETATM   21  C11 UNL     1       7.827  38.399  77.603  1.00  0.00     0.021 A
HETATM   22  C12 UNL     1       6.480  38.280  77.390  1.00  0.00     0.018 A
HETATM   23  C21 UNL     1       6.064  37.148  76.713  1.00  0.00     0.021 A
HETATM   24  C22 UNL     1       6.933  36.191  76.272  1.00  0.00     0.010 A
BRANCH  22  25
HETATM   25  C13 UNL     1       5.571  39.291  77.857  1.00  0.00    -0.061 C
HETATM   26  C14 UNL     1       4.819  40.139  78.266  1.00  0.00    -0.061 C
BRANCH  26  27
HETATM   27  C15 UNL     1       3.939  41.166  78.748  1.00  0.00     0.018 A
HETATM   28  C16 UNL     1       2.703  40.826  79.273  1.00  0.00     0.020 A
HETATM   29  C17 UNL     1       1.840  41.792  79.741  1.00  0.00     0.001 A
HETATM   30  C18 UNL     1       2.186  43.137  79.701  1.00  0.00     0.000 A
HETATM   31  C19 UNL     1       3.407  43.484  79.184  1.00  0.00     0.001 A
HETATM   32  C20 UNL     1       4.249  42.507  78.723  1.00  0.00     0.020 A
ENDBRANCH  26  27
ENDBRANCH  22  25
ENDBRANCH  18  19
ENDBRANCH  15  18
ENDBRANCH   3  15
TORSDOF 8
ENDMDL