MODEL 2
REMARK VINA RESULT: -7.590761870      1.974      3.972
REMARK  16 active torsions:
REMARK  status: ('A' for Active; 'I' for Inactive)
REMARK    1  A    between atoms: N5_15  and  C6_16
REMARK    2  A    between atoms: C7_18  and  C8_19
REMARK    3  A    between atoms: C8_19  and  O2_20
REMARK    4  A    between atoms: C8_19  and  C9_22
REMARK    5  A    between atoms: C9_22  and  C10_24
REMARK    6  A    between atoms: C10_24  and  O4_25
REMARK    7  A    between atoms: C10_24  and  C11_27
REMARK    8  A    between atoms: C11_27  and  N6_28
REMARK    9  A    between atoms: C11_27  and  C12_32
REMARK   10  A    between atoms: C12_32  and  O5_33
REMARK   11  A    between atoms: C12_32  and  C13_35
REMARK   12  A    between atoms: C15_37  and  O6_38
REMARK   13  A    between atoms: C16_40  and  O7_41
REMARK   14  A    between atoms: C17_43  and  O8_44
REMARK   15  A    between atoms: C18_47  and  O10_48
REMARK   16  A    between atoms: C19_50  and  O11_51
ROOT
HETATM    1  C8  UNL     1      16.473 -19.888  -1.939  1.00  0.00     0.222 C
ENDROOT
BRANCH   1   2
HETATM    2  C7  UNL     1      15.332 -19.323  -2.753  1.00  0.00     0.191 C
HETATM    3  O1  UNL     1      15.679 -19.339  -4.076  1.00  0.00    -0.353 OA
HETATM    4  C6  UNL     1      14.951 -20.325  -4.733  1.00  0.00     0.262 C
HETATM    5  C19 UNL     1      13.602 -20.224  -4.060  1.00  0.00     0.198 C
HETATM    6  C18 UNL     1      14.069 -20.140  -2.596  1.00  0.00     0.183 C
BRANCH   4   7
HETATM    7  N5  UNL     1      14.902 -20.108  -6.141  1.00  0.00    -0.297 N
HETATM    8  C3  UNL     1      15.451 -20.787  -7.157  1.00  0.00     0.142 A
HETATM    9  N3  UNL     1      16.212 -21.870  -7.196  1.00  0.00    -0.336 N
HETATM   10  C4  UNL     1      15.120 -20.185  -8.362  1.00  0.00     0.122 A
HETATM   11  C2  UNL     1      16.646 -22.367  -8.357  1.00  0.00     0.183 A
ATOM     12  H3  UNL     1      16.471 -22.332  -6.324  1.00  0.00     0.168 HD
HETATM   13  N2  UNL     1      16.333 -21.796  -9.531  1.00  0.00    -0.337 N
HETATM   14  C1  UNL     1      15.555 -20.679  -9.576  1.00  0.00     0.131 A
ATOM     15  H2  UNL     1      16.681 -22.203 -10.399  1.00  0.00     0.168 HD
HETATM   16  N1  UNL     1      15.246 -20.119 -10.698  1.00  0.00    -0.383 N
ATOM     17  H12 UNL     1      15.568 -20.484 -11.595  1.00  0.00     0.157 HD
ATOM     18  H11 UNL     1      14.663 -19.282 -10.732  1.00  0.00     0.157 HD
HETATM   19  N4  UNL     1      14.365 -19.138  -8.050  1.00  0.00    -0.346 N
HETATM   20  C5  UNL     1      14.233 -19.091  -6.712  1.00  0.00     0.188 A
ATOM     21  H4  UNL     1      13.954 -18.481  -8.713  1.00  0.00     0.167 HD
ENDBRANCH   4   7
BRANCH   5  22
HETATM   22  O11 UNL     1      12.855 -21.391  -4.176  1.00  0.00    -0.388 OA
ATOM     23  H11 UNL     1      12.343 -21.577  -3.398  1.00  0.00     0.210 HD
ENDBRANCH   5  22
BRANCH   6  24
HETATM   24  O10 UNL     1      14.308 -21.422  -2.163  1.00  0.00    -0.390 OA
ATOM     25  H10 UNL     1      13.552 -21.990  -2.249  1.00  0.00     0.210 HD
ENDBRANCH   6  24
ENDBRANCH   1   2
BRANCH   1  26
HETATM   26  O2  UNL     1      17.287 -20.731  -2.660  1.00  0.00    -0.385 OA
ATOM     27  H2  UNL     1      17.858 -21.257  -2.113  1.00  0.00     0.210 HD
ENDBRANCH   1  26
BRANCH   1  28
HETATM   28  C9  UNL     1      17.270 -18.851  -1.260  1.00  0.00     0.188 C
HETATM   29  O3  UNL     1      17.866 -19.197  -0.256  1.00  0.00    -0.292 OA
BRANCH  28  30
HETATM   30  C10 UNL     1      17.384 -17.468  -1.708  1.00  0.00     0.223 C
BRANCH  30  31
HETATM   31  O4  UNL     1      17.330 -16.532  -0.641  1.00  0.00    -0.386 OA
ATOM     32  H4  UNL     1      16.591 -15.938  -0.704  1.00  0.00     0.210 HD
ENDBRANCH  30  31
BRANCH  30  33
HETATM   33  C11 UNL     1      18.587 -17.081  -2.489  1.00  0.00     0.250 C
BRANCH  33  34
HETATM   34  N6  UNL     1      19.771 -17.888  -2.209  1.00  0.00    -0.070 N
ATOM     35  H63 UNL     1      19.510 -18.749  -1.728  1.00  0.00     0.275 HD
ATOM     36  H62 UNL     1      20.148 -18.280  -3.074  1.00  0.00     0.275 HD
ATOM     37  H61 UNL     1      20.501 -17.398  -1.693  1.00  0.00     0.275 HD
ENDBRANCH  33  34
BRANCH  33  38
HETATM   38  C12 UNL     1      18.426 -16.790  -3.932  1.00  0.00     0.180 C
BRANCH  38  39
HETATM   39  O5  UNL     1      18.484 -15.498  -4.339  1.00  0.00    -0.391 OA
ATOM     40  H5  UNL     1      19.338 -15.097  -4.448  1.00  0.00     0.210 HD
ENDBRANCH  38  39
BRANCH  38  41
HETATM   41  C13 UNL     1      19.358 -17.714  -4.729  1.00  0.00     0.158 C
HETATM   42  C14 UNL     1      19.464 -17.269  -6.160  1.00  0.00     0.069 C
HETATM   43  C15 UNL     1      18.254 -17.793  -6.937  1.00  0.00     0.154 C
HETATM   44  C16 UNL     1      18.356 -19.287  -6.957  1.00  0.00     0.201 C
HETATM   45  C17 UNL     1      19.065 -19.778  -5.723  1.00  0.00     0.288 C
HETATM   46  O9  UNL     1      18.812 -18.989  -4.611  1.00  0.00    -0.351 OA
BRANCH  43  47
HETATM   47  O6  UNL     1      18.327 -17.354  -8.268  1.00  0.00    -0.393 OA
ATOM     48  H6  UNL     1      18.015 -16.458  -8.324  1.00  0.00     0.210 HD
ENDBRANCH  43  47
BRANCH  44  49
HETATM   49  O7  UNL     1      19.104 -19.682  -8.065  1.00  0.00    -0.388 OA
ATOM     50  H7  UNL     1      19.479 -20.540  -7.902  1.00  0.00     0.210 HD
ENDBRANCH  44  49
BRANCH  45  51
HETATM   51  O8  UNL     1      18.517 -21.048  -5.433  1.00  0.00    -0.369 OA
ATOM     52  H8  UNL     1      18.156 -20.986  -4.556  1.00  0.00     0.212 HD
ENDBRANCH  45  51
ENDBRANCH  38  41
ENDBRANCH  33  38
ENDBRANCH  30  33
ENDBRANCH  28  30
ENDBRANCH   1  28
TORSDOF 16
ENDMDL