MODEL 5
REMARK VINA RESULT: -7.794789014      2.292      3.065
REMARK  11 active torsions:
REMARK  status: ('A' for Active; 'I' for Inactive)
REMARK    1  A    between atoms: N1_1  and  C1_4
REMARK    2  A    between atoms: C6_17  and  O3_18
REMARK    3  A    between atoms: C6_17  and  C13_36
REMARK    4  A    between atoms: O3_18  and  C7_19
REMARK    5  A    between atoms: C7_19  and  C8_20
REMARK    6  A    between atoms: C8_20  and  O4_21
REMARK    7  A    between atoms: O4_21  and  C9_22
REMARK    8  A    between atoms: C10_27  and  O5_28
REMARK    9  A    between atoms: C11_30  and  O6_31
REMARK   10  A    between atoms: C12_33  and  O7_34
REMARK   11  A    between atoms: N8_43  and  O11_44
ROOT
HETATM    1  C1  UNL     1      12.912 -19.559  -7.368  1.00  0.00     0.679 A
HETATM    2  N2  UNL     1      13.737 -19.753  -8.411  1.00  0.00    -0.154 N
ATOM      3  H2  UNL     1      13.349 -19.987  -9.325  1.00  0.00     0.187 HD
HETATM    4  C2  UNL     1      15.095 -19.639  -8.262  1.00  0.00     0.290 A
HETATM    5  O1  UNL     1      15.845 -19.816  -9.239  1.00  0.00    -0.265 OA
HETATM    6  C3  UNL     1      15.606 -19.329  -7.045  1.00  0.00     0.156 A
HETATM    7  C4  UNL     1      14.726 -19.140  -6.019  1.00  0.00     0.152 A
HETATM    8  N3  UNL     1      13.382 -19.247  -6.142  1.00  0.00    -0.184 N
ATOM      9  H3  UNL     1      12.758 -19.100  -5.350  1.00  0.00     0.184 HD
HETATM   10  C5  UNL     1      15.444 -18.807  -4.920  1.00  0.00     0.295 A
HETATM   11  O2  UNL     1      15.111 -18.542  -3.756  1.00  0.00    -0.264 OA
HETATM   12  N4  UNL     1      16.762 -18.810  -5.343  1.00  0.00    -0.199 N
HETATM   13  N5  UNL     1      16.893 -19.115  -6.566  1.00  0.00    -0.226 N
HETATM   14  C6  UNL     1      18.289 -19.045  -6.592  1.00  0.00     0.308 A
HETATM   15  C14 UNL     1      18.131 -18.563  -5.146  1.00  0.00     0.306 A
HETATM   16  O10 UNL     1      18.720 -19.382  -4.206  1.00  0.00    -0.345 OA
HETATM   17  C15 UNL     1      20.050 -19.197  -4.000  1.00  0.00     0.194 C
HETATM   18  C16 UNL     1      20.596 -17.826  -4.036  1.00  0.00     0.185 C
HETATM   19  N8  UNL     1      19.828 -16.838  -4.729  1.00  0.00    -0.222 N
HETATM   20  C17 UNL     1      18.446 -17.150  -4.962  1.00  0.00     0.307 C
HETATM   21  O12 UNL     1      17.589 -16.241  -4.997  1.00  0.00    -0.265 OA
ENDROOT
BRANCH  14  22
HETATM   22  O3  UNL     1      19.134 -20.062  -6.646  1.00  0.00    -0.344 OA
BRANCH  22  23
HETATM   23  C7  UNL     1      19.356 -20.867  -7.650  1.00  0.00     0.198 C
BRANCH  23  24
HETATM   24  C8  UNL     1      18.850 -22.278  -7.667  1.00  0.00     0.197 C
BRANCH  24  25
HETATM   25  O4  UNL     1      17.634 -22.410  -8.293  1.00  0.00    -0.361 OA
BRANCH  25  26
HETATM   26  C9  UNL     1      17.656 -22.515  -9.676  1.00  0.00     0.267 C
HETATM   27  N6  UNL     1      16.338 -22.676 -10.228  1.00  0.00    -0.307 N
HETATM   28  N7  UNL     1      15.996 -23.875 -10.751  1.00  0.00    -0.307 N
ATOM     29  H6  UNL     1      15.675 -21.902 -10.224  1.00  0.00     0.183 HD
HETATM   30  C10 UNL     1      16.990 -24.466 -11.619  1.00  0.00     0.264 C
ATOM     31  H7  UNL     1      15.105 -24.329 -10.550  1.00  0.00     0.182 HD
HETATM   32  C11 UNL     1      18.176 -24.753 -10.760  1.00  0.00     0.201 C
HETATM   33  C12 UNL     1      18.667 -23.499 -10.142  1.00  0.00     0.201 C
BRANCH  30  34
HETATM   34  O5  UNL     1      16.433 -25.610 -12.183  1.00  0.00    -0.373 OA
ATOM     35  H5  UNL     1      16.770 -25.690 -13.067  1.00  0.00     0.212 HD
ENDBRANCH  30  34
BRANCH  32  36
HETATM   36  O6  UNL     1      17.892 -25.739  -9.821  1.00  0.00    -0.388 OA
ATOM     37  H6  UNL     1      18.607 -26.361  -9.748  1.00  0.00     0.210 HD
ENDBRANCH  32  36
BRANCH  33  38
HETATM   38  O7  UNL     1      19.604 -22.924 -11.019  1.00  0.00    -0.388 OA
ATOM     39  H7  UNL     1      20.464 -22.845 -10.624  1.00  0.00     0.210 HD
ENDBRANCH  33  38
ENDBRANCH  25  26
ENDBRANCH  24  25
ENDBRANCH  23  24
ENDBRANCH  22  23
ENDBRANCH  14  22
BRANCH  14  40
HETATM   40  C13 UNL     1      18.809 -17.926  -7.482  1.00  0.00     0.239 C
HETATM   41  O8  UNL     1      17.961 -17.276  -8.128  1.00  0.00    -0.644 OA
HETATM   42  O9  UNL     1      20.122 -17.599  -7.610  1.00  0.00    -0.644 OA
ENDBRANCH  14  40
BRANCH  19  43
HETATM   43  O11 UNL     1      20.363 -15.670  -5.140  1.00  0.00    -0.285 OA
ATOM     44  H11 UNL     1      20.998 -15.194  -4.619  1.00  0.00     0.245 HD
ENDBRANCH  19  43
BRANCH   1  45
HETATM   45  N1  UNL     1      11.639 -19.664  -7.495  1.00  0.00    -0.234 N
ATOM     46  H12 UNL     1      11.295 -20.371  -8.145  1.00  0.00     0.174 HD
ATOM     47  H11 UNL     1      11.002 -19.067  -6.969  1.00  0.00     0.174 HD
ENDBRANCH   1  45
TORSDOF 11
ENDMDL