MODEL 3
REMARK VINA RESULT: -7.839242354      0.795      1.382
REMARK  15 active torsions:
REMARK  status: ('A' for Active; 'I' for Inactive)
REMARK    1  A    between atoms: O1_2  and  C2_3
REMARK    2  A    between atoms: C3_6  and  O2_7
REMARK    3  A    between atoms: C3_6  and  C4_9
REMARK       I    between atoms: C4_9  and  N2_11
REMARK    4  A    between atoms: N2_11  and  C5_13
REMARK    5  A    between atoms: C6_15  and  O5_16
REMARK    6  A    between atoms: O5_16  and  C7_17
REMARK    7  A    between atoms: N3_21  and  C10_22
REMARK    8  A    between atoms: C10_22  and  O7_23
REMARK    9  A    between atoms: C12_29  and  O9_30
REMARK   10  A    between atoms: C13_32  and  C14_33
REMARK   11  A    between atoms: C14_33  and  O10_34
REMARK   12  A    between atoms: C14_33  and  O11_36
REMARK   13  A    between atoms: O11_36  and  N5_37
REMARK   14  A    between atoms: C16_41  and  O12_42
REMARK   15  A    between atoms: C17_44  and  O13_45
ROOT
HETATM    1  C5  UNL     1      15.934 -21.028  -7.628  1.00  0.00     0.238 C
HETATM    2  O4  UNL     1      16.914 -20.877  -6.649  1.00  0.00    -0.333 OA
HETATM    3  C6  UNL     1      16.695 -19.592  -6.091  1.00  0.00     0.298 C
HETATM    4  C12 UNL     1      16.397 -18.733  -7.338  1.00  0.00     0.186 C
HETATM    5  C13 UNL     1      15.775 -19.685  -8.303  1.00  0.00     0.125 C
ENDROOT
BRANCH   1   6
HETATM    6  N2  UNL     1      16.331 -21.981  -8.639  1.00  0.00    -0.330 N
HETATM    7  C4  UNL     1      17.637 -22.038  -9.191  1.00  0.00     0.275 C
HETATM    8  O3  UNL     1      18.530 -21.231  -8.807  1.00  0.00    -0.268 OA
ATOM      9  H2  UNL     1      15.636 -22.649  -8.974  1.00  0.00     0.165 HD
BRANCH   7  10
HETATM   10  C3  UNL     1      18.037 -23.016 -10.225  1.00  0.00     0.215 C
HETATM   11  N1  UNL     1      18.203 -24.301  -9.618  1.00  0.00    -0.356 N
HETATM   12  C2  UNL     1      18.356 -25.386 -10.534  1.00  0.00     0.250 C
ATOM     13  H1  UNL     1      18.212 -24.433  -8.607  1.00  0.00     0.159 HD
HETATM   14  C17 UNL     1      17.311 -25.402 -11.623  1.00  0.00     0.195 C
HETATM   15  C16 UNL     1      17.258 -24.046 -12.314  1.00  0.00     0.156 C
HETATM   16  C15 UNL     1      16.913 -23.029 -11.263  1.00  0.00     0.105 C
BRANCH  12  17
HETATM   17  O1  UNL     1      18.228 -26.585  -9.822  1.00  0.00    -0.369 OA
HETATM   18  C1  UNL     1      18.202 -26.379  -8.451  1.00  0.00     0.204 C
ENDBRANCH  12  17
BRANCH  14  19
HETATM   19  O13 UNL     1      17.671 -26.349 -12.578  1.00  0.00    -0.389 OA
ATOM     20  H13 UNL     1      17.684 -25.935 -13.432  1.00  0.00     0.210 HD
ENDBRANCH  14  19
BRANCH  15  21
HETATM   21  O12 UNL     1      16.224 -24.107 -13.247  1.00  0.00    -0.393 OA
ATOM     22  H12 UNL     1      15.820 -24.966 -13.209  1.00  0.00     0.210 HD
ENDBRANCH  15  21
BRANCH  10  23
HETATM   23  O2  UNL     1      19.195 -22.644 -10.893  1.00  0.00    -0.363 OA
ATOM     24  H2  UNL     1      18.981 -22.225 -11.717  1.00  0.00     0.213 HD
ENDBRANCH  10  23
ENDBRANCH   7  10
ENDBRANCH   1   6
BRANCH   5  25
HETATM   25  C14 UNL     1      14.325 -19.374  -8.595  1.00  0.00     0.295 C
BRANCH  25  26
HETATM   26  O10 UNL     1      13.498 -20.012  -7.674  1.00  0.00    -0.368 OA
ATOM     27  H10 UNL     1      12.639 -19.607  -7.667  1.00  0.00     0.212 HD
ENDBRANCH  25  26
BRANCH  25  28
HETATM   28  O11 UNL     1      13.967 -19.683  -9.884  1.00  0.00    -0.254 OA
BRANCH  28  29
HETATM   29  N5  UNL     1      12.726 -19.306 -10.206  1.00  0.00    -0.308 N
ATOM     30  H52 UNL     1      12.207 -18.622  -9.657  1.00  0.00     0.184 HD
ATOM     31  H51 UNL     1      12.359 -19.764 -11.040  1.00  0.00     0.184 HD
ENDBRANCH  28  29
ENDBRANCH  25  28
ENDBRANCH   5  25
BRANCH   3  32
HETATM   32  O5  UNL     1      15.644 -19.618  -5.217  1.00  0.00    -0.312 OA
BRANCH  32  33
HETATM   33  C7  UNL     1      15.466 -19.357  -3.915  1.00  0.00     0.146 A
HETATM   34  C8  UNL     1      14.670 -20.254  -3.185  1.00  0.00     0.118 A
HETATM   35  C9  UNL     1      14.457 -20.037  -1.857  1.00  0.00     0.266 A
HETATM   36  O6  UNL     1      13.740 -20.853  -1.220  1.00  0.00    -0.266 OA
HETATM   37  N3  UNL     1      14.973 -18.998  -1.189  1.00  0.00    -0.231 N
HETATM   38  N4  UNL     1      15.713 -18.164  -1.863  1.00  0.00    -0.257 N
HETATM   39  C11 UNL     1      15.972 -18.312  -3.190  1.00  0.00     0.293 A
ATOM     40  H4  UNL     1      16.115 -17.365  -1.373  1.00  0.00     0.190 HD
HETATM   41  O8  UNL     1      16.695 -17.456  -3.748  1.00  0.00    -0.264 OA
BRANCH  37  42
HETATM   42  C10 UNL     1      14.691 -18.847   0.232  1.00  0.00     0.317 C
BRANCH  42  43
HETATM   43  O7  UNL     1      13.554 -18.026   0.317  1.00  0.00    -0.380 OA
ATOM     44  H7  UNL     1      13.008 -18.402   0.998  1.00  0.00     0.211 HD
ENDBRANCH  42  43
ENDBRANCH  37  42
ENDBRANCH  32  33
ENDBRANCH   3  32
BRANCH   4  45
HETATM   45  O9  UNL     1      17.618 -18.299  -7.830  1.00  0.00    -0.390 OA
ATOM     46  H9  UNL     1      18.201 -18.214  -7.084  1.00  0.00     0.210 HD
ENDBRANCH   4  45
TORSDOF 15
ENDMDL