MODEL 2
REMARK VINA RESULT: -7.311864936      1.034      1.170
REMARK  15 active torsions:
REMARK  status: ('A' for Active; 'I' for Inactive)
REMARK    1  A    between atoms: N1_2  and  C2_3
REMARK    2  A    between atoms: N1_2  and  C4_7
REMARK    3  A    between atoms: C2_3  and  C3_4
REMARK    4  A    between atoms: C4_7  and  C5_8
REMARK    5  A    between atoms: C7_10  and  N2_11
REMARK    6  A    between atoms: N2_11  and  C8_13
REMARK    7  A    between atoms: C8_13  and  O3_14
REMARK    8  A    between atoms: C8_13  and  C9_16
REMARK    9  A    between atoms: C10_17  and  O4_18
REMARK   10  A    between atoms: C11_20  and  N3_21
REMARK   11  A    between atoms: C14_30  and  N7_31
REMARK   12  A    between atoms: N9_37  and  O6_38
REMARK   13  A    between atoms: C15_40  and  O7_41
REMARK   14  A    between atoms: C16_43  and  O8_44
REMARK   15  A    between atoms: C17_46  and  O9_47
ROOT
HETATM    1  C9  UNL     1      14.488 -19.841  -7.003  1.00  0.00     0.243 C
HETATM    2  C10 UNL     1      15.564 -20.970  -7.011  1.00  0.00     0.222 C
HETATM    3  C11 UNL     1      16.350 -20.597  -8.214  1.00  0.00     0.139 C
HETATM    4  N8  UNL     1      16.199 -19.319  -8.430  1.00  0.00    -0.264 N
ATOM      5  H8  UNL     1      16.626 -18.791  -9.191  1.00  0.00     0.190 HD
HETATM    6  N9  UNL     1      15.324 -18.771  -7.411  1.00  0.00    -0.184 N
ENDROOT
BRANCH   1   7
HETATM    7  C8  UNL     1      13.678 -19.844  -5.796  1.00  0.00     0.142 C
BRANCH   7   8
HETATM    8  N2  UNL     1      14.196 -20.209  -4.580  1.00  0.00    -0.365 N
ATOM      9  H2  UNL     1      14.482 -21.183  -4.477  1.00  0.00     0.161 HD
BRANCH   8  10
HETATM   10  C7  UNL     1      14.373 -19.371  -3.455  1.00  0.00     0.115 C
HETATM   11  C6  UNL     1      15.514 -18.429  -3.820  1.00  0.00     0.036 C
HETATM   12  C5  UNL     1      16.272 -17.841  -2.698  1.00  0.00     0.037 C
HETATM   13  C17 UNL     1      16.158 -18.553  -1.388  1.00  0.00     0.155 C
HETATM   14  C16 UNL     1      15.914 -20.024  -1.556  1.00  0.00     0.178 C
HETATM   15  C15 UNL     1      14.614 -20.218  -2.258  1.00  0.00     0.172 C
BRANCH  12  16
HETATM   16  C4  UNL     1      17.731 -17.771  -3.153  1.00  0.00     0.129 C
BRANCH  16  17
HETATM   17  N1  UNL     1      18.179 -16.492  -3.487  1.00  0.00    -0.388 N
HETATM   18  C1  UNL     1      18.456 -15.589  -2.463  1.00  0.00     0.149 C
BRANCH  17  19
HETATM   19  C2  UNL     1      17.876 -16.066  -4.779  1.00  0.00     0.170 C
BRANCH  19  20
HETATM   20  C3  UNL     1      18.735 -16.569  -5.874  1.00  0.00     0.214 C
HETATM   21  O1  UNL     1      19.833 -16.013  -6.111  1.00  0.00    -0.644 OA
HETATM   22  O2  UNL     1      18.309 -17.653  -6.625  1.00  0.00    -0.644 OA
ENDBRANCH  19  20
ENDBRANCH  17  19
ENDBRANCH  16  17
ENDBRANCH  12  16
BRANCH  13  23
HETATM   23  O9  UNL     1      15.045 -18.031  -0.714  1.00  0.00    -0.392 OA
ATOM     24  H9  UNL     1      14.742 -18.692  -0.102  1.00  0.00     0.210 HD
ENDBRANCH  13  23
BRANCH  14  25
HETATM   25  O8  UNL     1      16.967 -20.632  -2.193  1.00  0.00    -0.390 OA
ATOM     26  H8  UNL     1      17.019 -21.565  -2.022  1.00  0.00     0.210 HD
ENDBRANCH  14  25
BRANCH  15  27
HETATM   27  O7  UNL     1      13.585 -19.955  -1.322  1.00  0.00    -0.391 OA
ATOM     28  H7  UNL     1      13.790 -20.422  -0.520  1.00  0.00     0.210 HD
ENDBRANCH  15  27
ENDBRANCH   8  10
ENDBRANCH   7   8
BRANCH   7  29
HETATM   29  O3  UNL     1      12.372 -20.308  -6.109  1.00  0.00    -0.348 OA
ATOM     30  H3  UNL     1      11.685 -19.655  -6.173  1.00  0.00     0.219 HD
ENDBRANCH   7  29
ENDBRANCH   1   7
BRANCH   2  31
HETATM   31  O4  UNL     1      16.265 -21.011  -5.847  1.00  0.00    -0.385 OA
ATOM     32  H4  UNL     1      16.418 -21.902  -5.557  1.00  0.00     0.210 HD
ENDBRANCH   2  31
BRANCH   6  33
HETATM   33  O6  UNL     1      15.369 -17.511  -6.990  1.00  0.00    -0.271 OA
ATOM     34  H6  UNL     1      15.925 -16.793  -7.268  1.00  0.00     0.246 HD
ENDBRANCH   6  33
BRANCH   3  35
HETATM   35  N3  UNL     1      17.106 -21.512  -9.033  1.00  0.00    -0.239 N
HETATM   36  C12 UNL     1      16.643 -21.873 -10.303  1.00  0.00     0.333 A
HETATM   37  O5  UNL     1      15.484 -21.560 -10.705  1.00  0.00    -0.246 OA
HETATM   38  N4  UNL     1      17.507 -22.626 -11.170  1.00  0.00    -0.282 N
HETATM   39  C13 UNL     1      18.795 -23.009 -10.730  1.00  0.00     0.195 A
ATOM     40  H4  UNL     1      17.191 -22.885 -12.104  1.00  0.00     0.173 HD
HETATM   41  N5  UNL     1      19.674 -23.724 -11.614  1.00  0.00    -0.063 NA
HETATM   42  N6  UNL     1      19.165 -22.704  -9.550  1.00  0.00    -0.320 N
HETATM   43  C14 UNL     1      18.392 -21.993  -8.561  1.00  0.00     0.400 A
ATOM     44  H6  UNL     1      20.105 -22.991  -9.277  1.00  0.00     0.166 HD
BRANCH  43  45
HETATM   45  N7  UNL     1      18.084 -22.931  -7.456  1.00  0.00    -0.040 N
ATOM     46  H73 UNL     1      18.905 -23.402  -7.078  1.00  0.00     0.279 HD
ATOM     47  H72 UNL     1      17.803 -22.467  -6.591  1.00  0.00     0.279 HD
ATOM     48  H71 UNL     1      17.380 -23.569  -7.826  1.00  0.00     0.279 HD
ENDBRANCH  43  45
ENDBRANCH   3  35
TORSDOF 15
ENDMDL