MODEL 4
REMARK VINA RESULT: -6.777026249      2.413      3.546
REMARK  17 active torsions:
REMARK  status: ('A' for Active; 'I' for Inactive)
REMARK    1  A    between atoms: N1_1  and  O1_4
REMARK    2  A    between atoms: O1_4  and  C1_5
REMARK    3  A    between atoms: C2_6  and  O2_7
REMARK    4  A    between atoms: N2_13  and  C6_14
REMARK    5  A    between atoms: C7_16  and  C8_17
REMARK    6  A    between atoms: C8_17  and  O5_18
REMARK    7  A    between atoms: C9_20  and  O6_21
REMARK    8  A    between atoms: C10_23  and  N3_24
REMARK       I    between atoms: N3_24  and  C11_26
REMARK       I    between atoms: C11_26  and  N4_28
REMARK    9  A    between atoms: N4_28  and  N5_30
REMARK   10  A    between atoms: N5_30  and  O8_31
REMARK       I    between atoms: N5_30  and  C12_33
REMARK   11  A    between atoms: C12_33  and  C13_35
REMARK   12  A    between atoms: C13_35  and  N6_36
REMARK   13  A    between atoms: C13_35  and  C14_40
REMARK   14  A    between atoms: C14_40  and  O10_41
REMARK   15  A    between atoms: C14_40  and  C15_43
REMARK   16  A    between atoms: C15_43  and  O11_44
REMARK   17  A    between atoms: C15_43  and  O12_46
ROOT
HETATM    1  C6  UNL     1      15.599 -18.916  -5.545  1.00  0.00     0.302 C
HETATM    2  O4  UNL     1      14.322 -18.747  -6.027  1.00  0.00    -0.349 OA
HETATM    3  C7  UNL     1      14.187 -18.826  -7.396  1.00  0.00     0.179 C
HETATM    4  C9  UNL     1      15.202 -19.584  -8.139  1.00  0.00     0.179 C
HETATM    5  C10 UNL     1      15.954 -20.633  -7.361  1.00  0.00     0.192 C
HETATM    6  C16 UNL     1      16.281 -20.110  -6.017  1.00  0.00     0.200 C
HETATM    7  O13 UNL     1      17.100 -20.683  -5.358  1.00  0.00    -0.291 OA
ENDROOT
BRANCH   5   8
HETATM    8  N3  UNL     1      17.216 -20.883  -8.025  1.00  0.00    -0.328 N
HETATM    9  C11 UNL     1      17.463 -21.935  -8.916  1.00  0.00     0.337 C
HETATM   10  O7  UNL     1      16.530 -22.733  -9.175  1.00  0.00    -0.245 OA
HETATM   11  N4  UNL     1      18.709 -22.144  -9.540  1.00  0.00    -0.222 N
ATOM     12  H4  UNL     1      19.475 -21.500  -9.338  1.00  0.00     0.194 HD
ATOM     13  H3  UNL     1      17.986 -20.244  -7.829  1.00  0.00     0.165 HD
BRANCH  11  14
HETATM   14  N5  UNL     1      18.934 -23.203 -10.427  1.00  0.00    -0.121 N
HETATM   15  C12 UNL     1      19.528 -24.421 -10.023  1.00  0.00     0.297 C
HETATM   16  O9  UNL     1      19.851 -24.507  -8.793  1.00  0.00    -0.267 OA
BRANCH  14  17
HETATM   17  O8  UNL     1      18.573 -23.073 -11.747  1.00  0.00    -0.265 OA
ATOM     18  H8  UNL     1      19.120 -23.456 -12.424  1.00  0.00     0.247 HD
ENDBRANCH  14  17
BRANCH  15  19
HETATM   19  C13 UNL     1      19.795 -25.573 -10.891  1.00  0.00     0.312 C
BRANCH  19  20
HETATM   20  N6  UNL     1      20.824 -26.414 -10.319  1.00  0.00    -0.064 N
ATOM     21  H63 UNL     1      20.687 -26.550  -9.318  1.00  0.00     0.275 HD
ATOM     22  H62 UNL     1      20.729 -27.385 -10.620  1.00  0.00     0.275 HD
ATOM     23  H61 UNL     1      21.750 -26.041 -10.528  1.00  0.00     0.275 HD
ENDBRANCH  19  20
BRANCH  19  24
HETATM   24  C14 UNL     1      18.592 -26.468 -11.112  1.00  0.00     0.212 C
BRANCH  24  25
HETATM   25  O10 UNL     1      18.438 -27.228  -9.927  1.00  0.00    -0.388 OA
ATOM     26  H10 UNL     1      18.175 -28.098 -10.200  1.00  0.00     0.210 HD
ENDBRANCH  24  25
BRANCH  24  27
HETATM   27  C15 UNL     1      18.822 -27.494 -12.206  1.00  0.00     0.285 C
BRANCH  27  28
HETATM   28  O11 UNL     1      17.702 -27.489 -13.030  1.00  0.00    -0.369 OA
ATOM     29  H11 UNL     1      17.044 -26.942 -12.620  1.00  0.00     0.212 HD
ENDBRANCH  27  28
BRANCH  27  30
HETATM   30  O12 UNL     1      19.900 -27.064 -13.000  1.00  0.00    -0.369 OA
ATOM     31  H12 UNL     1      20.538 -27.767 -13.047  1.00  0.00     0.212 HD
ENDBRANCH  27  30
ENDBRANCH  24  27
ENDBRANCH  19  24
ENDBRANCH  15  19
ENDBRANCH  11  14
ENDBRANCH   5   8
BRANCH   4  32
HETATM   32  O6  UNL     1      14.656 -20.203  -9.266  1.00  0.00    -0.390 OA
ATOM     33  H6  UNL     1      14.557 -21.139  -9.136  1.00  0.00     0.210 HD
ENDBRANCH   4  32
BRANCH   3  34
HETATM   34  C8  UNL     1      12.756 -19.235  -7.666  1.00  0.00     0.198 C
BRANCH  34  35
HETATM   35  O5  UNL     1      12.119 -19.794  -6.572  1.00  0.00    -0.398 OA
ATOM     36  H5  UNL     1      11.217 -19.513  -6.468  1.00  0.00     0.209 HD
ENDBRANCH  34  35
ENDBRANCH   3  34
BRANCH   1  37
HETATM   37  N2  UNL     1      15.536 -18.786  -4.096  1.00  0.00    -0.299 N
HETATM   38  C1  UNL     1      14.730 -19.517  -3.342  1.00  0.00     0.211 A
HETATM   39  C2  UNL     1      14.701 -19.366  -1.979  1.00  0.00     0.170 A
HETATM   40  C3  UNL     1      15.518 -18.445  -1.371  1.00  0.00     0.210 A
HETATM   41  O3  UNL     1      15.490 -18.309  -0.120  1.00  0.00    -0.285 OA
HETATM   42  C4  UNL     1      16.357 -17.683  -2.151  1.00  0.00     0.075 A
HETATM   43  C5  UNL     1      16.342 -17.879  -3.517  1.00  0.00     0.100 A
BRANCH  38  44
HETATM   44  O1  UNL     1      13.908 -20.449  -3.985  1.00  0.00    -0.223 OA
BRANCH  44  45
HETATM   45  N1  UNL     1      12.563 -20.528  -3.844  1.00  0.00    -0.303 N
ATOM     46  H12 UNL     1      12.217 -20.738  -2.908  1.00  0.00     0.184 HD
ATOM     47  H11 UNL     1      11.887 -20.394  -4.596  1.00  0.00     0.184 HD
ENDBRANCH  44  45
ENDBRANCH  38  44
BRANCH  39  48
HETATM   48  O2  UNL     1      13.827 -20.169  -1.237  1.00  0.00    -0.354 OA
ATOM     49  H2  UNL     1      13.322 -20.831  -1.693  1.00  0.00     0.218 HD
ENDBRANCH  39  48
ENDBRANCH   1  37
TORSDOF 17
ENDMDL