MODEL 1
REMARK VINA RESULT: -7.864039042      0.000      0.000
REMARK  16 active torsions:
REMARK  status: ('A' for Active; 'I' for Inactive)
REMARK    1  A    between atoms: N1_2  and  C2_3
REMARK    2  A    between atoms: N1_2  and  C16_41
REMARK    3  A    between atoms: C2_3  and  O1_4
REMARK    4  A    between atoms: C2_3  and  C3_6
REMARK    5  A    between atoms: N2_9  and  C6_10
REMARK    6  A    between atoms: C7_11  and  O2_12
REMARK    7  A    between atoms: C8_14  and  O3_15
REMARK    8  A    between atoms: C9_17  and  O4_18
REMARK       I    between atoms: N3_20  and  C10_21
REMARK    9  A    between atoms: C10_21  and  C11_23
REMARK   10  A    between atoms: C11_23  and  O6_24
REMARK   11  A    between atoms: C13_29  and  N5_30
REMARK   12  A    between atoms: C16_41  and  O8_42
REMARK   13  A    between atoms: C16_41  and  C17_44
REMARK   14  A    between atoms: C17_44  and  O9_45
REMARK   15  A    between atoms: C17_44  and  C18_47
REMARK   16  A    between atoms: C18_47  and  O10_48
ROOT
HETATM    1  C3  UNL     1      17.062 -21.881  -8.264  1.00  0.00     0.078 A
HETATM    2  C4  UNL     1      16.151 -21.544  -7.271  1.00  0.00     0.081 A
HETATM    3  C5  UNL     1      16.506 -20.322  -6.736  1.00  0.00     0.135 A
HETATM    4  N2  UNL     1      16.158 -19.400  -5.814  1.00  0.00    -0.290 N
HETATM    5  C12 UNL     1      17.084 -18.423  -5.922  1.00  0.00     0.161 A
HETATM    6  N4  UNL     1      17.287 -17.248  -5.289  1.00  0.00    -0.174 N
ATOM      7  H4  UNL     1      16.637 -16.972  -4.554  1.00  0.00     0.186 HD
HETATM    8  C13 UNL     1      18.310 -16.428  -5.586  1.00  0.00     0.680 A
HETATM    9  N6  UNL     1      19.206 -16.731  -6.541  1.00  0.00    -0.154 N
ATOM     10  H6  UNL     1      19.979 -16.100  -6.755  1.00  0.00     0.187 HD
HETATM   11  C14 UNL     1      19.055 -17.883  -7.202  1.00  0.00     0.292 A
HETATM   12  O7  UNL     1      19.882 -18.176  -8.094  1.00  0.00    -0.265 OA
HETATM   13  C15 UNL     1      18.013 -18.732  -6.911  1.00  0.00     0.171 A
HETATM   14  N7  UNL     1      17.609 -19.935  -7.394  1.00  0.00    -0.230 N
HETATM   15  N8  UNL     1      17.940 -20.865  -8.305  1.00  0.00    -0.291 N
ATOM     16  H8  UNL     1      18.741 -20.809  -8.935  1.00  0.00     0.187 HD
ENDROOT
BRANCH   4  17
HETATM   17  C6  UNL     1      15.047 -19.423  -4.895  1.00  0.00     0.232 C
HETATM   18  C7  UNL     1      15.244 -20.242  -3.680  1.00  0.00     0.194 C
HETATM   19  C8  UNL     1      13.985 -21.031  -3.463  1.00  0.00     0.199 C
HETATM   20  C9  UNL     1      13.070 -20.584  -4.569  1.00  0.00     0.256 C
HETATM   21  N3  UNL     1      13.794 -19.767  -5.485  1.00  0.00    -0.296 N
HETATM   22  C10 UNL     1      13.384 -19.351  -6.767  1.00  0.00     0.247 C
HETATM   23  O5  UNL     1      14.190 -18.634  -7.480  1.00  0.00    -0.271 OA
BRANCH  18  24
HETATM   24  O2  UNL     1      15.422 -19.448  -2.520  1.00  0.00    -0.389 OA
ATOM     25  H2  UNL     1      15.826 -18.610  -2.715  1.00  0.00     0.210 HD
ENDBRANCH  18  24
BRANCH  19  26
HETATM   26  O3  UNL     1      13.446 -20.828  -2.192  1.00  0.00    -0.388 OA
ATOM     27  H3  UNL     1      13.505 -19.920  -1.917  1.00  0.00     0.210 HD
ENDBRANCH  19  26
BRANCH  20  28
HETATM   28  O4  UNL     1      12.048 -19.842  -3.917  1.00  0.00    -0.374 OA
ATOM     29  H4  UNL     1      11.632 -19.341  -4.609  1.00  0.00     0.212 HD
ENDBRANCH  20  28
BRANCH  22  30
HETATM   30  C11 UNL     1      12.083 -19.663  -7.399  1.00  0.00     0.267 C
BRANCH  30  31
HETATM   31  O6  UNL     1      12.080 -19.671  -8.773  1.00  0.00    -0.392 OA
ATOM     32  H6  UNL     1      12.211 -18.826  -9.186  1.00  0.00     0.210 HD
ENDBRANCH  30  31
ENDBRANCH  22  30
ENDBRANCH   4  17
BRANCH   1  33
HETATM   33  C2  UNL     1      17.039 -23.122  -9.092  1.00  0.00     0.270 C
BRANCH  33  34
HETATM   34  N1  UNL     1      17.674 -22.925 -10.351  1.00  0.00    -0.359 N
HETATM   35  C1  UNL     1      19.063 -22.875 -10.364  1.00  0.00     0.148 C
BRANCH  34  36
HETATM   36  C16 UNL     1      16.895 -22.919 -11.499  1.00  0.00     0.248 C
BRANCH  36  37
HETATM   37  O8  UNL     1      15.539 -23.092 -11.125  1.00  0.00    -0.374 OA
ATOM     38  H8  UNL     1      15.387 -24.014 -10.956  1.00  0.00     0.212 HD
ENDBRANCH  36  37
BRANCH  36  39
HETATM   39  C17 UNL     1      17.202 -23.821 -12.627  1.00  0.00     0.190 C
BRANCH  39  40
HETATM   40  O9  UNL     1      16.020 -23.911 -13.412  1.00  0.00    -0.389 OA
ATOM     41  H9  UNL     1      16.135 -23.321 -14.148  1.00  0.00     0.210 HD
ENDBRANCH  39  40
BRANCH  39  42
HETATM   42  C18 UNL     1      17.499 -25.256 -12.247  1.00  0.00     0.200 C
BRANCH  42  43
HETATM   43  O10 UNL     1      16.358 -26.009 -12.089  1.00  0.00    -0.398 OA
ATOM     44  H10 UNL     1      16.254 -26.663 -12.769  1.00  0.00     0.209 HD
ENDBRANCH  42  43
ENDBRANCH  39  42
ENDBRANCH  36  39
ENDBRANCH  34  36
ENDBRANCH  33  34
BRANCH  33  45
HETATM   45  O1  UNL     1      17.608 -24.157  -8.358  1.00  0.00    -0.371 OA
ATOM     46  H1  UNL     1      16.962 -24.759  -8.009  1.00  0.00     0.212 HD
ENDBRANCH  33  45
ENDBRANCH   1  33
BRANCH   8  47
HETATM   47  N5  UNL     1      18.480 -15.308  -4.963  1.00  0.00    -0.234 N
ATOM     48  H52 UNL     1      19.441 -15.047  -4.740  1.00  0.00     0.174 HD
ATOM     49  H51 UNL     1      17.690 -14.717  -4.706  1.00  0.00     0.174 HD
ENDBRANCH   8  47
TORSDOF 16
ENDMDL