MODEL 5
REMARK VINA RESULT: -6.816005628      2.717      7.274
REMARK  16 active torsions:
REMARK  status: ('A' for Active; 'I' for Inactive)
REMARK    1  A    between atoms: N1_1  and  C1_4
REMARK    2  A    between atoms: N3_9  and  C3_10
REMARK    3  A    between atoms: C4_12  and  C5_13
REMARK    4  A    between atoms: C5_13  and  O2_14
REMARK    5  A    between atoms: O2_14  and  C6_15
REMARK    6  A    between atoms: C6_15  and  C7_17
REMARK    7  A    between atoms: C7_17  and  N4_18
REMARK    8  A    between atoms: C7_17  and  O4_22
REMARK    9  A    between atoms: O4_22  and  C8_23
REMARK   10  A    between atoms: C9_26  and  O6_27
REMARK   11  A    between atoms: O6_27  and  C10_28
REMARK   12  A    between atoms: C11_30  and  N6_31
REMARK   13  A    between atoms: N6_31  and  N7_32
REMARK   14  A    between atoms: C12_38  and  O8_39
REMARK   15  A    between atoms: C13_41  and  O9_42
REMARK   16  A    between atoms: C14_44  and  O10_45
ROOT
HETATM    1  C3  UNL     1      19.729 -16.621  -3.977  1.00  0.00     0.206 C
HETATM    2  S1  UNL     1      18.750 -17.593  -2.760  1.00  0.00    -0.129 SA
HETATM    3  C4  UNL     1      17.545 -18.287  -3.966  1.00  0.00     0.105 C
HETATM    4  C9  UNL     1      18.196 -17.854  -5.254  1.00  0.00     0.172 C
HETATM    5  C14 UNL     1      18.654 -16.428  -5.032  1.00  0.00     0.183 C
ENDROOT
BRANCH   4   6
HETATM    6  O6  UNL     1      17.419 -18.028  -6.360  1.00  0.00    -0.349 OA
BRANCH   6   7
HETATM    7  C10 UNL     1      17.649 -19.255  -6.928  1.00  0.00     0.297 C
HETATM    8  O7  UNL     1      16.897 -19.445  -8.105  1.00  0.00    -0.312 OA
HETATM    9  C11 UNL     1      16.962 -20.789  -8.414  1.00  0.00     0.442 C
HETATM   10  N8  UNL     1      18.295 -21.166  -8.886  1.00  0.00    -0.004 N
HETATM   11  C12 UNL     1      19.207 -20.928  -7.805  1.00  0.00     0.357 C
ATOM     12  H82 UNL     1      18.338 -22.121  -9.243  1.00  0.00     0.285 HD
ATOM     13  H81 UNL     1      18.563 -20.692  -9.748  1.00  0.00     0.285 HD
HETATM   14  C13 UNL     1      19.090 -19.494  -7.311  1.00  0.00     0.229 C
BRANCH   9  15
HETATM   15  N6  UNL     1      15.979 -21.226  -9.356  1.00  0.00    -0.087 NA
BRANCH  15  16
HETATM   16  N7  UNL     1      15.017 -20.217  -9.474  1.00  0.00    -0.344 N
ATOM     17  H72 UNL     1      15.054 -19.310  -9.009  1.00  0.00     0.172 HD
ATOM     18  H71 UNL     1      14.285 -20.551 -10.102  1.00  0.00     0.172 HD
ENDBRANCH  15  16
ENDBRANCH   9  15
BRANCH  11  19
HETATM   19  O8  UNL     1      20.539 -21.125  -8.226  1.00  0.00    -0.368 OA
ATOM     20  H8  UNL     1      20.911 -20.313  -8.550  1.00  0.00     0.212 HD
ENDBRANCH  11  19
BRANCH  14  21
HETATM   21  O9  UNL     1      19.487 -18.676  -8.374  1.00  0.00    -0.386 OA
ATOM     22  H9  UNL     1      20.388 -18.391  -8.283  1.00  0.00     0.210 HD
ENDBRANCH  14  21
ENDBRANCH   6   7
ENDBRANCH   4   6
BRANCH   3  23
HETATM   23  C5  UNL     1      16.191 -17.723  -3.743  1.00  0.00     0.197 C
BRANCH  23  24
HETATM   24  O2  UNL     1      15.249 -18.673  -4.266  1.00  0.00    -0.317 OA
BRANCH  24  25
HETATM   25  C6  UNL     1      14.425 -19.419  -3.457  1.00  0.00     0.316 C
HETATM   26  O3  UNL     1      14.419 -19.161  -2.224  1.00  0.00    -0.260 OA
BRANCH  25  27
HETATM   27  C7  UNL     1      13.553 -20.509  -3.993  1.00  0.00     0.428 C
BRANCH  27  28
HETATM   28  N4  UNL     1      12.892 -21.137  -2.865  1.00  0.00    -0.043 N
ATOM     29  H43 UNL     1      13.190 -20.754  -1.967  1.00  0.00     0.278 HD
ATOM     30  H42 UNL     1      11.906 -20.889  -2.795  1.00  0.00     0.278 HD
ATOM     31  H41 UNL     1      13.046 -22.142  -2.938  1.00  0.00     0.278 HD
ENDBRANCH  27  28
BRANCH  27  32
HETATM   32  O4  UNL     1      12.590 -20.014  -4.870  1.00  0.00    -0.263 OA
BRANCH  32  33
HETATM   33  C8  UNL     1      12.756 -20.114  -6.228  1.00  0.00     0.375 C
HETATM   34  N5  UNL     1      11.741 -19.705  -7.153  1.00  0.00    -0.032 NA
HETATM   35  O5  UNL     1      13.812 -20.573  -6.752  1.00  0.00    -0.242 OA
ENDBRANCH  32  33
ENDBRANCH  27  32
ENDBRANCH  25  27
ENDBRANCH  24  25
ENDBRANCH  23  24
ENDBRANCH   3  23
BRANCH   5  36
HETATM   36  O10 UNL     1      19.105 -15.821  -6.162  1.00  0.00    -0.390 OA
ATOM     37  H10 UNL     1      18.799 -16.232  -6.962  1.00  0.00     0.210 HD
ENDBRANCH   5  36
BRANCH   1  38
HETATM   38  N3  UNL     1      20.216 -15.411  -3.425  1.00  0.00    -0.210 N
HETATM   39  C2  UNL     1      21.286 -15.269  -2.628  1.00  0.00     0.357 A
HETATM   40  N2  UNL     1      21.412 -13.965  -2.322  1.00  0.00    -0.139 N
HETATM   41  O1  UNL     1      22.007 -16.229  -2.262  1.00  0.00    -0.244 OA
HETATM   42  C1  UNL     1      20.414 -13.281  -2.934  1.00  0.00     0.694 A
ATOM     43  H2  UNL     1      22.137 -13.558  -1.730  1.00  0.00     0.189 HD
HETATM   44  N9  UNL     1      19.688 -14.212  -3.612  1.00  0.00    -0.125 N
ATOM     45  H9  UNL     1      18.863 -14.015  -4.179  1.00  0.00     0.206 HD
BRANCH  42  46
HETATM   46  N1  UNL     1      20.221 -12.006  -2.865  1.00  0.00    -0.233 N
ATOM     47  H12 UNL     1      19.528 -11.497  -2.315  1.00  0.00     0.174 HD
ATOM     48  H11 UNL     1      20.751 -11.296  -3.370  1.00  0.00     0.174 HD
ENDBRANCH  42  46
ENDBRANCH   1  38
TORSDOF 16
ENDMDL