MODEL 5
REMARK VINA RESULT: -7.209648320      1.968      2.719
REMARK  17 active torsions:
REMARK  status: ('A' for Active; 'I' for Inactive)
REMARK    1  A    between atoms: N1_1  and  C1_5
REMARK    2  A    between atoms: C1_5  and  N2_6
REMARK    3  A    between atoms: C1_5  and  C2_10
REMARK    4  A    between atoms: C4_16  and  C5_17
REMARK    5  A    between atoms: C5_17  and  O4_19
REMARK    6  A    between atoms: O4_19  and  C6_20
REMARK    7  A    between atoms: C6_20  and  C7_22
REMARK    8  A    between atoms: C7_22  and  N4_23
REMARK    9  A    between atoms: C7_22  and  C15_43
REMARK   10  A    between atoms: N4_23  and  C8_25
REMARK   11  A    between atoms: C9_27  and  C10_28
REMARK   12  A    between atoms: C10_28  and  O7_29
REMARK   13  A    between atoms: C10_28  and  C11_31
REMARK   14  A    between atoms: C12_34  and  O10_35
REMARK   15  A    between atoms: C13_37  and  O11_38
REMARK   16  A    between atoms: C14_40  and  O12_41
REMARK   17  A    between atoms: C16_46  and  O15_47
ROOT
HETATM    1  C6  UNL     1      14.273 -19.397  -7.725  1.00  0.00     0.299 C
HETATM    2  O5  UNL     1      13.555 -19.220  -8.732  1.00  0.00    -0.262 OA
ENDROOT
BRANCH   1   3
HETATM    3  O4  UNL     1      13.774 -18.925  -6.513  1.00  0.00    -0.237 OA
BRANCH   3   4
HETATM    4  C5  UNL     1      13.432 -19.741  -5.439  1.00  0.00     0.328 C
HETATM    5  O3  UNL     1      12.495 -20.543  -5.639  1.00  0.00    -0.256 OA
BRANCH   4   6
HETATM    6  C4  UNL     1      14.145 -19.635  -4.179  1.00  0.00     0.191 A
HETATM    7  O2  UNL     1      14.978 -18.601  -4.028  1.00  0.00    -0.252 OA
HETATM    8  C3  UNL     1      15.678 -18.397  -2.942  1.00  0.00     0.370 A
HETATM    9  N3  UNL     1      15.567 -19.262  -1.911  1.00  0.00    -0.300 N
HETATM   10  O1  UNL     1      16.461 -17.392  -2.844  1.00  0.00    -0.238 OA
HETATM   11  C2  UNL     1      14.764 -20.330  -1.956  1.00  0.00     0.108 A
ATOM     12  H3  UNL     1      16.115 -19.095  -1.067  1.00  0.00     0.171 HD
HETATM   13  C16 UNL     1      14.028 -20.520  -3.135  1.00  0.00     0.133 A
BRANCH  11  14
HETATM   14  C1  UNL     1      14.650 -21.249  -0.844  1.00  0.00     0.430 C
BRANCH  14  15
HETATM   15  N1  UNL     1      15.635 -22.330  -1.024  1.00  0.00    -0.045 N
ATOM     16  H13 UNL     1      15.386 -23.197  -0.548  1.00  0.00     0.277 HD
ATOM     17  H12 UNL     1      15.655 -22.715  -1.969  1.00  0.00     0.277 HD
ATOM     18  H11 UNL     1      16.527 -21.938  -0.723  1.00  0.00     0.277 HD
ENDBRANCH  14  15
BRANCH  14  19
HETATM   19  N2  UNL     1      14.938 -20.680   0.444  1.00  0.00    -0.045 N
ATOM     20  H23 UNL     1      14.126 -20.628   1.060  1.00  0.00     0.277 HD
ATOM     21  H22 UNL     1      15.503 -21.283   1.042  1.00  0.00     0.277 HD
ATOM     22  H21 UNL     1      15.366 -19.774   0.251  1.00  0.00     0.277 HD
ENDBRANCH  14  19
ENDBRANCH  11  14
BRANCH  13  23
HETATM   23  O15 UNL     1      13.225 -21.600  -3.161  1.00  0.00    -0.356 OA
ATOM     24  H15 UNL     1      12.550 -21.633  -2.493  1.00  0.00     0.218 HD
ENDBRANCH  13  23
ENDBRANCH   4   6
ENDBRANCH   3   4
ENDBRANCH   1   3
BRANCH   1  25
HETATM   25  C7  UNL     1      15.575 -20.064  -7.788  1.00  0.00     0.282 C
BRANCH  25  26
HETATM   26  N4  UNL     1      16.076 -20.583  -8.975  1.00  0.00    -0.373 N
ATOM     27  H4  UNL     1      16.293 -19.957  -9.751  1.00  0.00     0.157 HD
BRANCH  26  28
HETATM   28  C8  UNL     1      16.286 -21.969  -9.113  1.00  0.00     0.249 C
HETATM   29  O6  UNL     1      17.285 -22.409  -8.218  1.00  0.00    -0.353 OA
HETATM   30  C9  UNL     1      18.563 -22.317  -8.710  1.00  0.00     0.194 C
HETATM   31  C12 UNL     1      18.807 -23.374  -9.765  1.00  0.00     0.181 C
HETATM   32  C13 UNL     1      17.455 -23.774 -10.326  1.00  0.00     0.182 C
HETATM   33  C14 UNL     1      16.610 -22.459 -10.476  1.00  0.00     0.197 C
BRANCH  30  34
HETATM   34  C10 UNL     1      19.535 -22.437  -7.536  1.00  0.00     0.250 C
BRANCH  34  35
HETATM   35  O7  UNL     1      18.731 -22.288  -6.383  1.00  0.00    -0.382 OA
ATOM     36  H7  UNL     1      18.139 -21.575  -6.589  1.00  0.00     0.210 HD
ENDBRANCH  34  35
BRANCH  34  37
HETATM   37  C11 UNL     1      20.573 -21.410  -7.586  1.00  0.00     0.205 C
HETATM   38  O8  UNL     1      20.828 -20.741  -6.530  1.00  0.00    -0.646 OA
HETATM   39  O9  UNL     1      21.268 -21.166  -8.754  1.00  0.00    -0.646 OA
ENDBRANCH  34  37
ENDBRANCH  30  34
BRANCH  31  40
HETATM   40  O10 UNL     1      19.567 -22.830 -10.823  1.00  0.00    -0.390 OA
ATOM     41  H10 UNL     1      20.432 -22.593 -10.510  1.00  0.00     0.210 HD
ENDBRANCH  31  40
BRANCH  32  42
HETATM   42  O11 UNL     1      16.737 -24.610  -9.489  1.00  0.00    -0.390 OA
ATOM     43  H11 UNL     1      15.901 -24.880  -9.852  1.00  0.00     0.210 HD
ENDBRANCH  32  42
BRANCH  33  44
HETATM   44  O12 UNL     1      15.524 -22.876 -11.236  1.00  0.00    -0.389 OA
ATOM     45  H12 UNL     1      14.750 -22.329 -11.178  1.00  0.00     0.210 HD
ENDBRANCH  33  44
ENDBRANCH  26  28
ENDBRANCH  25  26
BRANCH  25  46
HETATM   46  C15 UNL     1      16.618 -19.188  -7.086  1.00  0.00     0.206 C
HETATM   47  O13 UNL     1      17.331 -19.658  -6.168  1.00  0.00    -0.646 OA
HETATM   48  O14 UNL     1      16.791 -17.863  -7.448  1.00  0.00    -0.646 OA
ENDBRANCH  25  46
ENDBRANCH   1  25
TORSDOF 17
ENDMDL