MODEL 4
REMARK VINA RESULT: -6.792558081      2.511      6.632
REMARK  13 active torsions:
REMARK  status: ('A' for Active; 'I' for Inactive)
REMARK    1  A    between atoms: C2_5  and  C3_6
REMARK    2  A    between atoms: C3_6  and  N3_7
REMARK    3  A    between atoms: C3_6  and  C10_29
REMARK       I    between atoms: N3_7  and  C4_9
REMARK       I    between atoms: C4_9  and  N4_11
REMARK    4  A    between atoms: N4_11  and  C5_13
REMARK    5  A    between atoms: C6_15  and  C7_16
REMARK    6  A    between atoms: C7_16  and  N5_17
REMARK    7  A    between atoms: C8_21  and  N6_22
REMARK    8  A    between atoms: C9_26  and  O3_27
REMARK    9  A    between atoms: C10_29  and  N7_30
REMARK   10  A    between atoms: C10_29  and  C11_34
REMARK   11  A    between atoms: C11_34  and  O4_35
REMARK   12  A    between atoms: C11_34  and  C12_37
REMARK   13  A    between atoms: C15_45  and  N11_46
ROOT
HETATM    1  C3  UNL     1      19.063 -20.631  -7.028  1.00  0.00     0.093 C
ENDROOT
BRANCH   1   2
HETATM    2  C2  UNL     1      18.344 -21.152  -8.179  1.00  0.00     0.155 A
HETATM    3  N2  UNL     1      18.927 -22.060  -9.040  1.00  0.00    -0.279 N
HETATM    4  N1  UNL     1      18.343 -22.577 -10.078  1.00  0.00    -0.257 N
ATOM      5  H2  UNL     1      19.887 -22.346  -8.847  1.00  0.00     0.189 HD
HETATM    6  C1  UNL     1      19.054 -23.521 -10.911  1.00  0.00     0.181 C
HETATM    7  C18 UNL     1      17.088 -22.258 -10.402  1.00  0.00     0.306 A
HETATM    8  C13 UNL     1      16.454 -21.355  -9.576  1.00  0.00     0.187 A
HETATM    9  O6  UNL     1      16.482 -22.732 -11.397  1.00  0.00    -0.262 OA
HETATM   10  N9  UNL     1      17.089 -20.823  -8.487  1.00  0.00    -0.259 N
HETATM   11  N10 UNL     1      15.201 -20.872  -9.655  1.00  0.00    -0.331 N
HETATM   12  C17 UNL     1      16.170 -20.015  -7.928  1.00  0.00     0.147 A
HETATM   13  C14 UNL     1      14.992 -20.037  -8.646  1.00  0.00     0.123 A
HETATM   14  N13 UNL     1      16.204 -19.247  -6.855  1.00  0.00    -0.336 N
HETATM   15  C15 UNL     1      13.943 -19.264  -8.199  1.00  0.00     0.131 A
HETATM   16  N12 UNL     1      14.073 -18.512  -7.092  1.00  0.00    -0.337 N
HETATM   17  C16 UNL     1      15.214 -18.487  -6.391  1.00  0.00     0.183 A
ATOM     18  H12 UNL     1      13.284 -17.948  -6.779  1.00  0.00     0.168 HD
ATOM     19  H13 UNL     1      17.077 -19.235  -6.328  1.00  0.00     0.168 HD
ATOM     20  H10 UNL     1      14.520 -21.110 -10.376  1.00  0.00     0.168 HD
BRANCH  15  21
HETATM   21  N11 UNL     1      12.836 -19.280  -8.868  1.00  0.00    -0.383 N
ATOM     22 2H11 UNL     1      12.214 -18.471  -8.874  1.00  0.00     0.157 HD
ATOM     23 1H11 UNL     1      12.596 -20.121  -9.392  1.00  0.00     0.157 HD
ENDBRANCH  15  21
ENDBRANCH   1   2
BRANCH   1  24
HETATM   24  N3  UNL     1      18.992 -21.347  -5.792  1.00  0.00    -0.307 N
HETATM   25  C4  UNL     1      18.546 -20.714  -4.601  1.00  0.00     0.322 C
HETATM   26  O1  UNL     1      18.210 -19.519  -4.618  1.00  0.00    -0.247 OA
HETATM   27  N4  UNL     1      18.485 -21.437  -3.402  1.00  0.00    -0.314 N
ATOM     28  H4  UNL     1      18.764 -22.419  -3.402  1.00  0.00     0.167 HD
ATOM     29  H3  UNL     1      19.266 -22.330  -5.765  1.00  0.00     0.170 HD
BRANCH  27  30
HETATM   30  C5  UNL     1      18.038 -20.833  -2.163  1.00  0.00     0.256 C
HETATM   31  O2  UNL     1      16.689 -20.471  -2.361  1.00  0.00    -0.355 OA
HETATM   32  C6  UNL     1      16.218 -20.198  -1.078  1.00  0.00     0.182 C
HETATM   33  C8  UNL     1      16.860 -21.217  -0.168  1.00  0.00     0.246 C
HETATM   34  C9  UNL     1      17.944 -21.819  -1.044  1.00  0.00     0.200 C
BRANCH  32  35
HETATM   35  C7  UNL     1      14.729 -20.325  -0.974  1.00  0.00     0.263 C
BRANCH  35  36
HETATM   36  N5  UNL     1      14.329 -21.482  -1.755  1.00  0.00    -0.077 N
ATOM     37  H53 UNL     1      13.536 -21.980  -1.349  1.00  0.00     0.274 HD
ATOM     38  H52 UNL     1      13.891 -21.231  -2.641  1.00  0.00     0.274 HD
ATOM     39  H51 UNL     1      15.151 -22.074  -1.874  1.00  0.00     0.274 HD
ENDBRANCH  35  36
ENDBRANCH  32  35
BRANCH  33  40
HETATM   40  N6  UNL     1      17.431 -20.509   0.964  1.00  0.00    -0.070 N
ATOM     41  H63 UNL     1      18.374 -20.167   0.781  1.00  0.00     0.274 HD
ATOM     42  H62 UNL     1      16.987 -19.605   1.129  1.00  0.00     0.274 HD
ATOM     43  H61 UNL     1      17.385 -21.125   1.776  1.00  0.00     0.274 HD
ENDBRANCH  33  40
BRANCH  34  44
HETATM   44  O3  UNL     1      17.527 -23.062  -1.527  1.00  0.00    -0.389 OA
ATOM     45  H3  UNL     1      18.206 -23.451  -2.065  1.00  0.00     0.210 HD
ENDBRANCH  34  44
ENDBRANCH  27  30
ENDBRANCH   1  24
BRANCH   1  46
HETATM   46  C10 UNL     1      20.350 -19.908  -7.301  1.00  0.00     0.274 C
BRANCH  46  47
HETATM   47  N7  UNL     1      21.169 -19.839  -6.100  1.00  0.00    -0.067 N
ATOM     48  H73 UNL     1      22.044 -19.340  -6.268  1.00  0.00     0.275 HD
ATOM     49  H72 UNL     1      20.766 -19.212  -5.403  1.00  0.00     0.275 HD
ATOM     50  H71 UNL     1      21.334 -20.770  -5.720  1.00  0.00     0.275 HD
ENDBRANCH  46  47
BRANCH  46  51
HETATM   51  C11 UNL     1      20.116 -18.451  -7.687  1.00  0.00     0.243 C
BRANCH  51  52
HETATM   52  O4  UNL     1      19.077 -17.876  -6.998  1.00  0.00    -0.384 OA
ATOM     53  H4  UNL     1      18.255 -18.338  -7.115  1.00  0.00     0.210 HD
ENDBRANCH  51  52
BRANCH  51  54
HETATM   54  C12 UNL     1      21.413 -17.747  -7.417  1.00  0.00     0.262 C
HETATM   55  N8  UNL     1      22.614 -18.073  -8.099  1.00  0.00    -0.060 NA
HETATM   56  O5  UNL     1      21.464 -16.828  -6.560  1.00  0.00    -0.274 OA
ENDBRANCH  51  54
ENDBRANCH  46  51
ENDBRANCH   1  46
TORSDOF 13
ENDMDL