MODEL 5
REMARK VINA RESULT: -5.740446562      1.277      1.383
REMARK  17 active torsions:
REMARK  status: ('A' for Active; 'I' for Inactive)
REMARK    1  A    between atoms: O1_2  and  C2_3
REMARK    2  A    between atoms: C3_5  and  O3_6
REMARK    3  A    between atoms: C3_5  and  C4_8
REMARK    4  A    between atoms: C4_8  and  N1_9
REMARK    5  A    between atoms: C8_15  and  O4_16
REMARK    6  A    between atoms: C8_15  and  C9_18
REMARK    7  A    between atoms: C9_18  and  O5_19
REMARK    8  A    between atoms: C9_18  and  C10_21
REMARK    9  A    between atoms: C10_21  and  O6_22
REMARK   10  A    between atoms: C11_24  and  O7_25
REMARK   11  A    between atoms: C12_27  and  O8_28
REMARK   12  A    between atoms: C12_27  and  C13_30
REMARK   13  A    between atoms: C14_33  and  C15_34
REMARK   14  A    between atoms: C14_33  and  C16_37
REMARK   15  A    between atoms: C15_34  and  O11_35
REMARK   16  A    between atoms: C17_40  and  O14_41
REMARK   17  A    between atoms: C18_43  and  O15_44
ROOT
HETATM    1  N1  UNL     1      17.629 -21.782  -7.143  1.00  0.00    -0.337 N
HETATM    2  C5  UNL     1      18.941 -21.908  -6.778  1.00  0.00     0.183 A
HETATM    3  N2  UNL     1      19.238 -21.006  -5.896  1.00  0.00    -0.353 N
ATOM      4  H2  UNL     1      20.146 -20.873  -5.453  1.00  0.00     0.166 HD
HETATM    5  C6  UNL     1      18.110 -20.265  -5.669  1.00  0.00     0.061 A
HETATM    6  C7  UNL     1      17.109 -20.768  -6.463  1.00  0.00     0.077 A
HETATM    7  C8  UNL     1      15.799 -20.082  -6.377  1.00  0.00     0.159 C
HETATM    8  C11 UNL     1      15.973 -18.641  -6.055  1.00  0.00     0.208 C
HETATM    9  C12 UNL     1      16.804 -18.297  -4.857  1.00  0.00     0.200 C
HETATM   10  C14 UNL     1      18.015 -19.111  -4.702  1.00  0.00     0.157 C
ENDROOT
BRANCH   1  11
HETATM   11  C4  UNL     1      17.012 -22.688  -8.084  1.00  0.00     0.201 C
BRANCH  11  12
HETATM   12  C3  UNL     1      17.514 -22.676  -9.469  1.00  0.00     0.210 C
HETATM   13  O2  UNL     1      18.280 -23.808  -9.788  1.00  0.00    -0.318 OA
HETATM   14  C2  UNL     1      18.716 -23.528 -11.072  1.00  0.00     0.294 C
HETATM   15  C18 UNL     1      17.606 -22.791 -11.778  1.00  0.00     0.207 C
HETATM   16  C17 UNL     1      16.615 -22.536 -10.611  1.00  0.00     0.215 C
BRANCH  14  17
HETATM   17  O1  UNL     1      19.885 -22.799 -10.990  1.00  0.00    -0.363 OA
HETATM   18  C1  UNL     1      21.013 -23.509 -11.325  1.00  0.00     0.204 C
ENDBRANCH  14  17
BRANCH  15  19
HETATM   19  O15 UNL     1      16.958 -23.541 -12.727  1.00  0.00    -0.388 OA
ATOM     20  H15 UNL     1      16.130 -23.171 -13.010  1.00  0.00     0.210 HD
ENDBRANCH  15  19
BRANCH  16  21
HETATM   21  O14 UNL     1      16.206 -21.188 -10.721  1.00  0.00    -0.387 OA
ATOM     22  H14 UNL     1      15.290 -21.117 -10.480  1.00  0.00     0.210 HD
ENDBRANCH  16  21
BRANCH  12  23
HETATM   23  O3  UNL     1      18.438 -21.590  -9.540  1.00  0.00    -0.362 OA
ATOM     24  H3  UNL     1      18.007 -20.948 -10.091  1.00  0.00     0.213 HD
ENDBRANCH  12  23
ENDBRANCH  11  12
ENDBRANCH   1  11
BRANCH   7  25
HETATM   25  O4  UNL     1      15.047 -20.750  -5.392  1.00  0.00    -0.378 OA
ATOM     26  H4  UNL     1      14.406 -20.131  -5.063  1.00  0.00     0.211 HD
ENDBRANCH   7  25
BRANCH   7  27
HETATM   27  C9  UNL     1      14.952 -20.142  -7.620  1.00  0.00     0.185 C
BRANCH  27  28
HETATM   28  O5  UNL     1      15.535 -19.491  -8.726  1.00  0.00    -0.390 OA
ATOM     29  H5  UNL     1      14.913 -18.985  -9.236  1.00  0.00     0.210 HD
ENDBRANCH  27  28
BRANCH  27  30
HETATM   30  C10 UNL     1      13.692 -19.282  -7.367  1.00  0.00     0.199 C
BRANCH  30  31
HETATM   31  O6  UNL     1      12.561 -20.023  -7.195  1.00  0.00    -0.398 OA
ATOM     32  H6  UNL     1      11.933 -19.617  -6.608  1.00  0.00     0.209 HD
ENDBRANCH  30  31
ENDBRANCH  27  30
ENDBRANCH   7  27
BRANCH  10  33
HETATM   33  C15 UNL     1      19.261 -18.223  -5.073  1.00  0.00     0.195 C
BRANCH  33  34
HETATM   34  O11 UNL     1      19.393 -18.152  -6.455  1.00  0.00    -0.399 OA
ATOM     35  H11 UNL     1      20.308 -18.040  -6.685  1.00  0.00     0.209 HD
ENDBRANCH  33  34
ENDBRANCH  10  33
BRANCH  10  36
HETATM   36  C16 UNL     1      18.375 -19.568  -3.344  1.00  0.00     0.194 C
HETATM   37  O12 UNL     1      19.093 -18.972  -2.567  1.00  0.00    -0.647 OA
HETATM   38  O13 UNL     1      17.836 -20.804  -2.912  1.00  0.00    -0.647 OA
ENDBRANCH  10  36
BRANCH   8  39
HETATM   39  O7  UNL     1      16.417 -17.972  -7.187  1.00  0.00    -0.388 OA
ATOM     40  H7  UNL     1      15.722 -17.960  -7.835  1.00  0.00     0.210 HD
ENDBRANCH   8  39
BRANCH   9  41
HETATM   41  O8  UNL     1      17.280 -16.966  -5.148  1.00  0.00    -0.375 OA
ATOM     42  H8  UNL     1      16.801 -16.420  -4.536  1.00  0.00     0.211 HD
ENDBRANCH   9  41
BRANCH   9  43
HETATM   43  C13 UNL     1      15.938 -18.102  -3.677  1.00  0.00     0.213 C
HETATM   44  O9  UNL     1      14.815 -18.639  -3.527  1.00  0.00    -0.646 OA
HETATM   45  O10 UNL     1      16.305 -17.275  -2.587  1.00  0.00    -0.646 OA
ENDBRANCH   9  43
TORSDOF 17
ENDMDL