MODEL 4
REMARK VINA RESULT: -7.901596954      2.009      3.160
REMARK  14 active torsions:
REMARK  status: ('A' for Active; 'I' for Inactive)
REMARK    1  A    between atoms: N1_1  and  C1_4
REMARK    2  A    between atoms: N3_8  and  C3_9
REMARK    3  A    between atoms: C3_9  and  C4_10
REMARK    4  A    between atoms: C4_10  and  C5_11
REMARK    5  A    between atoms: C5_11  and  C6_12
REMARK    6  A    between atoms: C6_12  and  N4_13
REMARK    7  A    between atoms: N4_13  and  C7_16
REMARK    8  A    between atoms: C7_16  and  C8_17
REMARK    9  A    between atoms: C8_17  and  C9_18
REMARK   10  A    between atoms: C10_19  and  C11_20
REMARK   11  A    between atoms: C11_20  and  N5_21
REMARK   12  A    between atoms: N5_21  and  C12_23
REMARK   13  A    between atoms: C12_23  and  C13_24
REMARK   14  A    between atoms: C19_32  and  N6_33
ROOT
HETATM    1  N4  UNL     1      -1.875 -34.571  19.043  1.00  0.00    -0.075 N
ATOM      2  H41 UNL     1      -1.147 -33.858  19.078  1.00  0.00     0.277 HD
ATOM      3  H42 UNL     1      -2.662 -33.969  19.288  1.00  0.00     0.277 HD
ENDROOT
BRANCH   1   4
HETATM    4  C6  UNL     1      -1.665 -35.646  19.995  1.00  0.00     0.232 C
BRANCH   4   5
HETATM    5  C5  UNL     1      -0.774 -36.746  19.515  1.00  0.00     0.029 C
BRANCH   5   6
HETATM    6  C4  UNL     1      -0.163 -37.475  20.671  1.00  0.00     0.022 C
BRANCH   6   7
HETATM    7  C3  UNL     1      -0.699 -38.849  20.826  1.00  0.00     0.148 C
BRANCH   7   8
HETATM    8  N3  UNL     1       0.228 -39.836  21.289  1.00  0.00    -0.179 N
HETATM    9  C2  UNL     1       1.465 -39.855  20.769  1.00  0.00     0.218 A
HETATM   10  N2  UNL     1       2.439 -40.728  21.168  1.00  0.00    -0.187 N
HETATM   11  C1  UNL     1       2.119 -41.591  22.123  1.00  0.00     0.691 A
ATOM     12  H2  UNL     1       3.370 -40.716  20.751  1.00  0.00     0.185 HD
HETATM   13  N7  UNL     1       0.894 -41.592  22.662  1.00  0.00    -0.023 N
HETATM   14  C19 UNL     1      -0.065 -40.731  22.262  1.00  0.00     0.693 A
ATOM     15  H7  UNL     1       0.678 -42.265  23.398  1.00  0.00     0.203 HD
BRANCH  11  16
HETATM   16  N1  UNL     1       3.012 -42.418  22.562  1.00  0.00    -0.234 N
ATOM     17  H12 UNL     1       3.496 -42.220  23.438  1.00  0.00     0.174 HD
ATOM     18  H11 UNL     1       3.244 -43.248  22.015  1.00  0.00     0.174 HD
ENDBRANCH  11  16
BRANCH  14  19
HETATM   19  N6  UNL     1      -1.236 -40.794  22.800  1.00  0.00    -0.234 N
ATOM     20  H62 UNL     1      -1.539 -40.049  23.427  1.00  0.00     0.174 HD
ATOM     21  H61 UNL     1      -1.865 -41.578  22.628  1.00  0.00     0.174 HD
ENDBRANCH  14  19
ENDBRANCH   7   8
ENDBRANCH   6   7
ENDBRANCH   5   6
ENDBRANCH   4   5
ENDBRANCH   1   4
BRANCH   1  22
HETATM   22  C7  UNL     1      -2.014 -35.189  17.707  1.00  0.00     0.236 C
BRANCH  22  23
HETATM   23  C8  UNL     1      -1.252 -34.400  16.682  1.00  0.00     0.054 C
BRANCH  23  24
HETATM   24  C9  UNL     1      -1.972 -33.300  16.004  1.00  0.00    -0.024 C
HETATM   25  C10 UNL     1      -1.391 -32.136  15.425  1.00  0.00     0.013 C
BRANCH  25  26
HETATM   26  C11 UNL     1      -0.437 -31.152  15.897  1.00  0.00     0.083 C
BRANCH  26  27
HETATM   27  N5  UNL     1      -0.099 -31.064  17.260  1.00  0.00    -0.395 N
ATOM     28  H5  UNL     1      -0.813 -30.932  17.976  1.00  0.00     0.159 HD
BRANCH  27  29
HETATM   29  C12 UNL     1       1.302 -31.171  17.608  1.00  0.00     0.159 C
BRANCH  29  30
HETATM   30  C13 UNL     1       1.628 -32.477  18.232  1.00  0.00    -0.017 A
HETATM   31  C14 UNL     1       1.254 -32.732  19.537  1.00  0.00     0.034 A
HETATM   32  C15 UNL     1       1.605 -33.893  20.187  1.00  0.00     0.034 A
HETATM   33 CL1  UNL     1       1.172 -34.211  21.854  1.00  0.00    -0.084 Cl
HETATM   34  C16 UNL     1       2.363 -34.809  19.447  1.00  0.00     0.025 A
HETATM   35  C17 UNL     1       2.731 -34.548  18.150  1.00  0.00     0.026 A
HETATM   36  C18 UNL     1       2.377 -33.388  17.511  1.00  0.00     0.042 A
HETATM   37 CL2  UNL     1       2.795 -33.078  15.839  1.00  0.00    -0.084 Cl
ENDBRANCH  29  30
ENDBRANCH  27  29
ENDBRANCH  26  27
ENDBRANCH  25  26
ENDBRANCH  23  24
ENDBRANCH  22  23
ENDBRANCH   1  22
TORSDOF 14
ENDMDL