MODEL 1
REMARK VINA RESULT: -6.868340452      0.000      0.000
REMARK  14 active torsions:
REMARK  status: ('A' for Active; 'I' for Inactive)
REMARK    1  A    between atoms: O1_1  and  C1_3
REMARK    2  A    between atoms: C1_3  and  N1_4
REMARK    3  A    between atoms: C1_3  and  N4_27
REMARK    4  A    between atoms: N1_4  and  C2_7
REMARK    5  A    between atoms: C2_7  and  C3_8
REMARK    6  A    between atoms: C3_8  and  N2_9
REMARK    7  A    between atoms: N2_9  and  C4_12
REMARK    8  A    between atoms: C4_12  and  C5_13
REMARK    9  A    between atoms: C5_13  and  C6_14
REMARK   10  A    between atoms: C6_14  and  C7_15
REMARK   11  A    between atoms: C7_15  and  C8_16
REMARK   12  A    between atoms: C8_16  and  N3_17
REMARK   13  A    between atoms: N3_17  and  C9_19
REMARK   14  A    between atoms: N4_27  and  C15_29
ROOT
HETATM    1  N2  UNL     1      -1.564 -36.082  16.027  1.00  0.00    -0.074 N
ATOM      2  H21 UNL     1      -0.702 -35.552  16.159  1.00  0.00     0.277 HD
ATOM      3  H22 UNL     1      -1.943 -36.024  16.972  1.00  0.00     0.277 HD
ENDROOT
BRANCH   1   4
HETATM    4  C3  UNL     1      -1.274 -37.458  15.671  1.00  0.00     0.260 C
BRANCH   4   5
HETATM    5  C2  UNL     1      -0.424 -38.029  16.791  1.00  0.00     0.265 C
BRANCH   5   6
HETATM    6  N1  UNL     1       0.975 -37.928  16.523  1.00  0.00    -0.029 N
ATOM      7  H12 UNL     1       1.135 -37.390  15.671  1.00  0.00     0.282 HD
ATOM      8  H11 UNL     1       1.347 -38.832  16.232  1.00  0.00     0.282 HD
BRANCH   6   9
HETATM    9  C1  UNL     1       1.746 -37.397  17.597  1.00  0.00     0.427 C
BRANCH   9  10
HETATM   10  O1  UNL     1       2.785 -38.303  17.915  1.00  0.00    -0.354 OA
ATOM     11  H1  UNL     1       3.598 -37.991  17.535  1.00  0.00     0.214 HD
ENDBRANCH   9  10
BRANCH   9  12
HETATM   12  N4  UNL     1       1.025 -37.123  18.785  1.00  0.00    -0.328 N
ATOM     13  H4  UNL     1       0.235 -37.713  19.044  1.00  0.00     0.165 HD
BRANCH  12  14
HETATM   14  C15 UNL     1       1.393 -36.037  19.616  1.00  0.00     0.103 A
HETATM   15  C16 UNL     1       2.294 -35.054  19.235  1.00  0.00     0.048 A
HETATM   16  C17 UNL     1       2.644 -34.010  20.060  1.00  0.00     0.005 A
HETATM   17  C18 UNL     1       2.081 -33.939  21.308  1.00  0.00     0.017 A
HETATM   18  C19 UNL     1       1.175 -34.925  21.697  1.00  0.00     0.089 A
HETATM   19  N5  UNL     1       0.869 -35.910  20.868  1.00  0.00    -0.352 N
ATOM     20  H5  UNL     1       0.202 -36.615  21.184  1.00  0.00     0.166 HD
ENDBRANCH  12  14
ENDBRANCH   9  12
ENDBRANCH   6   9
ENDBRANCH   5   6
ENDBRANCH   4   5
ENDBRANCH   1   4
BRANCH   1  21
HETATM   21  C4  UNL     1      -2.424 -35.428  15.093  1.00  0.00     0.232 C
BRANCH  21  22
HETATM   22  C5  UNL     1      -3.028 -34.137  15.593  1.00  0.00     0.027 C
BRANCH  22  23
HETATM   23  C6  UNL     1      -2.418 -33.032  14.724  1.00  0.00     0.003 C
BRANCH  23  24
HETATM   24  C7  UNL     1      -1.672 -32.040  15.528  1.00  0.00     0.020 C
BRANCH  24  25
HETATM   25  C8  UNL     1      -0.270 -32.490  15.815  1.00  0.00     0.120 C
BRANCH  25  26
HETATM   26  N3  UNL     1      -0.046 -33.034  17.098  1.00  0.00    -0.389 N
ATOM     27  H3  UNL     1       0.190 -34.026  17.126  1.00  0.00     0.159 HD
BRANCH  26  28
HETATM   28  C9  UNL     1      -0.107 -32.375  18.358  1.00  0.00     0.051 A
HETATM   29  C10 UNL     1       0.560 -31.211  18.645  1.00  0.00     0.054 A
HETATM   30  C11 UNL     1       0.475 -30.552  19.844  1.00  0.00     0.036 A
HETATM   31 CL1  UNL     1       1.362 -29.053  20.143  1.00  0.00    -0.084 Cl
HETATM   32  C12 UNL     1      -0.331 -31.081  20.830  1.00  0.00     0.026 A
HETATM   33  C13 UNL     1      -1.019 -32.253  20.573  1.00  0.00     0.028 A
HETATM   34  C14 UNL     1      -0.922 -32.898  19.373  1.00  0.00     0.060 A
HETATM   35 CL2  UNL     1      -1.808 -34.387  19.067  1.00  0.00    -0.082 Cl
ENDBRANCH  26  28
ENDBRANCH  25  26
ENDBRANCH  24  25
ENDBRANCH  23  24
ENDBRANCH  22  23
ENDBRANCH  21  22
ENDBRANCH   1  21
TORSDOF 14
ENDMDL