MODEL 4
REMARK VINA RESULT: -6.914768575      2.442      3.178
REMARK  13 active torsions:
REMARK  status: ('A' for Active; 'I' for Inactive)
REMARK    1  A    between atoms: N1_1  and  C1_4
REMARK    2  A    between atoms: C2_9  and  S1_10
REMARK    3  A    between atoms: S1_10  and  C3_11
REMARK    4  A    between atoms: C3_11  and  C4_12
REMARK    5  A    between atoms: C4_12  and  N4_13
REMARK    6  A    between atoms: N4_13  and  C5_15
REMARK    7  A    between atoms: C5_15  and  C6_16
REMARK    8  A    between atoms: C6_16  and  C7_17
REMARK    9  A    between atoms: C7_17  and  C8_18
REMARK   10  A    between atoms: C8_18  and  C9_19
REMARK   11  A    between atoms: C9_19  and  N5_20
REMARK   12  A    between atoms: N5_20  and  C10_22
REMARK   13  A    between atoms: C10_22  and  C11_23
ROOT
HETATM    1  N4  UNL     1       1.550 -36.083  20.514  1.00  0.00    -0.401 N
ATOM      2  H4  UNL     1       1.707 -36.243  21.508  1.00  0.00     0.158 HD
ENDROOT
BRANCH   1   3
HETATM    3  C4  UNL     1       0.681 -36.932  19.793  1.00  0.00     0.129 C
BRANCH   3   4
HETATM    4  C3  UNL     1       0.730 -38.341  20.371  1.00  0.00     0.102 C
BRANCH   4   5
HETATM    5  S1  UNL     1      -0.934 -39.038  20.548  1.00  0.00    -0.090 SA
BRANCH   5   6
HETATM    6  C2  UNL     1      -0.860 -40.583  21.464  1.00  0.00     0.174 A
HETATM    7  N3  UNL     1      -0.984 -40.762  22.771  1.00  0.00    -0.265 N
HETATM    8  N2  UNL     1      -0.848 -42.074  23.063  1.00  0.00    -0.130 N
ATOM      9  H3  UNL     1      -1.155 -40.022  23.452  1.00  0.00     0.189 HD
HETATM   10  C1  UNL     1      -0.630 -42.740  21.896  1.00  0.00     0.692 A
ATOM     11  H2  UNL     1      -0.900 -42.491  23.992  1.00  0.00     0.205 HD
HETATM   12  N6  UNL     1      -0.640 -41.813  20.930  1.00  0.00    -0.168 N
ATOM     13  H6  UNL     1      -0.503 -42.003  19.937  1.00  0.00     0.186 HD
BRANCH  10  14
HETATM   14  N1  UNL     1      -0.448 -44.016  21.826  1.00  0.00    -0.233 N
ATOM     15  H12 UNL     1      -0.002 -44.655  22.484  1.00  0.00     0.174 HD
ATOM     16  H11 UNL     1      -0.762 -44.588  21.042  1.00  0.00     0.174 HD
ENDBRANCH  10  14
ENDBRANCH   5   6
ENDBRANCH   4   5
ENDBRANCH   3   4
ENDBRANCH   1   3
BRANCH   1  17
HETATM   17  C5  UNL     1       2.199 -35.015  19.863  1.00  0.00     0.055 C
BRANCH  17  18
HETATM   18  C6  UNL     1       2.295 -35.047  18.368  1.00  0.00     0.044 C
BRANCH  18  19
HETATM   19  C7  UNL     1       2.984 -33.800  17.882  1.00  0.00     0.010 C
BRANCH  19  20
HETATM   20  C8  UNL     1       2.600 -33.469  16.482  1.00  0.00     0.044 C
BRANCH  20  21
HETATM   21  C9  UNL     1       2.277 -32.006  16.313  1.00  0.00     0.056 C
BRANCH  21  22
HETATM   22  N5  UNL     1       0.939 -31.623  16.189  1.00  0.00    -0.398 N
ATOM     23  H5  UNL     1       0.416 -31.855  15.344  1.00  0.00     0.158 HD
BRANCH  22  24
HETATM   24  C10 UNL     1       0.319 -30.919  17.226  1.00  0.00     0.159 C
BRANCH  24  25
HETATM   25  C11 UNL     1      -0.047 -31.794  18.428  1.00  0.00    -0.010 A
HETATM   26  C12 UNL     1      -0.810 -32.909  18.330  1.00  0.00     0.042 A
HETATM   27  C13 UNL     1      -1.170 -33.512  19.512  1.00  0.00     0.076 A
HETATM   28 CL1  UNL     1      -2.180 -34.970  19.700  1.00  0.00    -0.076 Cl
HETATM   29  S2  UNL     1      -0.450 -32.532  20.700  1.00  0.00    -0.065 SA
HETATM   30  C14 UNL     1       0.291 -31.380  19.686  1.00  0.00     0.084 A
HETATM   31 CL2  UNL     1       1.285 -29.971  20.131  1.00  0.00    -0.076 Cl
ENDBRANCH  24  25
ENDBRANCH  22  24
ENDBRANCH  21  22
ENDBRANCH  20  21
ENDBRANCH  19  20
ENDBRANCH  18  19
ENDBRANCH  17  18
ENDBRANCH   1  17
TORSDOF 13
ENDMDL