MODEL 4
REMARK VINA RESULT: -6.886624535      1.934      3.359
REMARK  14 active torsions:
REMARK  status: ('A' for Active; 'I' for Inactive)
REMARK    1  A    between atoms: N1_1  and  C1_4
REMARK    2  A    between atoms: C4_13  and  S1_14
REMARK    3  A    between atoms: S1_14  and  S2_15
REMARK    4  A    between atoms: S2_15  and  C5_16
REMARK    5  A    between atoms: C5_16  and  C6_17
REMARK    6  A    between atoms: C6_17  and  N5_18
REMARK    7  A    between atoms: N5_18  and  C7_21
REMARK    8  A    between atoms: C7_21  and  C8_22
REMARK    9  A    between atoms: C8_22  and  C9_23
REMARK   10  A    between atoms: C9_23  and  C10_24
REMARK   11  A    between atoms: C10_24  and  N6_25
REMARK   12  A    between atoms: N6_25  and  C11_28
REMARK   13  A    between atoms: C11_28  and  C12_29
REMARK   14  A    between atoms: C12_29  and  C13_30
ROOT
HETATM    1  S2  UNL     1      -1.631 -36.754  18.311  1.00  0.00    -0.088 SA
ENDROOT
BRANCH   1   2
HETATM    2  S1  UNL     1      -1.334 -36.787  20.391  1.00  0.00    -0.021 SA
BRANCH   2   3
HETATM    3  C4  UNL     1      -0.332 -38.218  20.822  1.00  0.00     0.157 A
HETATM    4  N4  UNL     1       0.949 -38.476  20.528  1.00  0.00    -0.320 N
HETATM    5  C3  UNL     1       1.300 -39.665  21.045  1.00  0.00     0.139 A
ATOM      6  H4  UNL     1       1.565 -37.863  19.994  1.00  0.00     0.169 HD
HETATM    7  N3  UNL     1       2.459 -40.376  21.032  1.00  0.00    -0.337 N
HETATM    8  C14 UNL     1       0.205 -40.199  21.699  1.00  0.00     0.123 A
HETATM    9  C2  UNL     1       2.512 -41.561  21.646  1.00  0.00     0.183 A
ATOM     10  H3  UNL     1       3.283 -40.006  20.557  1.00  0.00     0.168 HD
HETATM   11  N2  UNL     1       1.486 -42.109  22.284  1.00  0.00    -0.337 N
HETATM   12  C1  UNL     1       0.322 -41.445  22.323  1.00  0.00     0.131 A
ATOM     13  H2  UNL     1       1.581 -43.019  22.736  1.00  0.00     0.168 HD
HETATM   14  N7  UNL     1      -0.769 -39.295  21.546  1.00  0.00    -0.330 N
ATOM     15  H7  UNL     1      -1.714 -39.396  21.918  1.00  0.00     0.168 HD
BRANCH  12  16
HETATM   16  N1  UNL     1      -0.697 -41.945  22.926  1.00  0.00    -0.383 N
ATOM     17  H12 UNL     1      -1.312 -42.584  22.422  1.00  0.00     0.157 HD
ATOM     18  H11 UNL     1      -0.889 -41.713  23.901  1.00  0.00     0.157 HD
ENDBRANCH  12  16
ENDBRANCH   2   3
ENDBRANCH   1   2
BRANCH   1  19
HETATM   19  C5  UNL     1      -1.507 -35.080  17.665  1.00  0.00     0.114 C
BRANCH  19  20
HETATM   20  C6  UNL     1      -0.199 -34.830  17.009  1.00  0.00     0.243 C
BRANCH  20  21
HETATM   21  N5  UNL     1       0.904 -35.620  17.504  1.00  0.00    -0.074 N
ATOM     22  H52 UNL     1       0.696 -36.047  18.407  1.00  0.00     0.277 HD
ATOM     23  H51 UNL     1       1.036 -36.474  16.965  1.00  0.00     0.277 HD
BRANCH  21  24
HETATM   24  C7  UNL     1       2.091 -34.820  17.547  1.00  0.00     0.232 C
BRANCH  24  25
HETATM   25  C8  UNL     1       2.791 -34.923  18.896  1.00  0.00     0.029 C
BRANCH  25  26
HETATM   26  C9  UNL     1       2.221 -33.877  19.809  1.00  0.00     0.029 C
BRANCH  26  27
HETATM   27  C10 UNL     1       1.719 -34.449  21.104  1.00  0.00     0.232 C
BRANCH  27  28
HETATM   28  N6  UNL     1       0.753 -33.564  21.694  1.00  0.00    -0.075 N
ATOM     29  H62 UNL     1       0.217 -34.034  22.422  1.00  0.00     0.277 HD
ATOM     30  H61 UNL     1       1.205 -32.848  22.263  1.00  0.00     0.277 HD
BRANCH  28  31
HETATM   31  C11 UNL     1      -0.121 -32.968  20.699  1.00  0.00     0.235 C
BRANCH  31  32
HETATM   32  C12 UNL     1      -0.442 -31.540  21.105  1.00  0.00     0.063 C
BRANCH  32  33
HETATM   33  C13 UNL     1      -0.201 -30.602  19.924  1.00  0.00     0.179 C
HETATM   34 CL1  UNL     1      -0.070 -31.530  18.415  1.00  0.00    -0.108 Cl
HETATM   35 CL2  UNL     1       1.293 -29.696  20.246  1.00  0.00    -0.108 Cl
ENDBRANCH  32  33
ENDBRANCH  31  32
ENDBRANCH  28  31
ENDBRANCH  27  28
ENDBRANCH  26  27
ENDBRANCH  25  26
ENDBRANCH  24  25
ENDBRANCH  21  24
ENDBRANCH  20  21
ENDBRANCH  19  20
ENDBRANCH   1  19
TORSDOF 14
ENDMDL