MODEL 1
REMARK VINA RESULT: -6.954822980      0.000      0.000
REMARK  15 active torsions:
REMARK  status: ('A' for Active; 'I' for Inactive)
REMARK    1  A    between atoms: N1_1  and  C1_5
REMARK    2  A    between atoms: C1_5  and  C2_6
REMARK    3  A    between atoms: C2_6  and  C3_7
REMARK    4  A    between atoms: C3_7  and  C4_8
REMARK    5  A    between atoms: C4_8  and  C5_9
REMARK    6  A    between atoms: C5_9  and  C6_10
REMARK    7  A    between atoms: C6_10  and  N2_11
REMARK    8  A    between atoms: C6_10  and  C16_30
REMARK    9  A    between atoms: N2_11  and  C7_13
REMARK   10  A    between atoms: C7_13  and  O1_14
REMARK   11  A    between atoms: C7_13  and  C8_16
REMARK   12  A    between atoms: C8_16  and  N3_17
REMARK   13  A    between atoms: C8_16  and  C9_21
REMARK   14  A    between atoms: C9_21  and  S1_22
REMARK   15  A    between atoms: S1_22  and  C10_23
ROOT
HETATM    1  N2  UNL     1      -0.786 -36.122  18.243  1.00  0.00    -0.363 N
ATOM      2  H2  UNL     1      -0.371 -36.654  17.478  1.00  0.00     0.162 HD
ENDROOT
BRANCH   1   3
HETATM    3  C6  UNL     1      -0.860 -34.787  17.950  1.00  0.00     0.043 C
BRANCH   3   4
HETATM    4  C5  UNL     1      -2.095 -34.267  17.271  1.00  0.00     0.060 C
BRANCH   4   5
HETATM    5  C4  UNL     1      -2.505 -35.114  16.098  1.00  0.00     0.006 C
BRANCH   5   6
HETATM    6  C3  UNL     1      -2.527 -34.310  14.828  1.00  0.00     0.002 C
BRANCH   6   7
HETATM    7  C2  UNL     1      -2.502 -32.837  15.174  1.00  0.00     0.027 C
BRANCH   7   8
HETATM    8  C1  UNL     1      -1.418 -32.097  14.423  1.00  0.00     0.229 C
BRANCH   8   9
HETATM    9  N1  UNL     1      -0.982 -30.910  15.107  1.00  0.00    -0.079 N
ATOM     10  H13 UNL     1      -1.538 -30.746  15.946  1.00  0.00     0.274 HD
ATOM     11  H12 UNL     1      -0.069 -31.050  15.539  1.00  0.00     0.274 HD
ATOM     12  H11 UNL     1      -0.980 -30.087  14.503  1.00  0.00     0.274 HD
ENDBRANCH   8   9
ENDBRANCH   7   8
ENDBRANCH   6   7
ENDBRANCH   5   6
ENDBRANCH   4   5
ENDBRANCH   3   4
BRANCH   3  13
HETATM   13  C16 UNL     1       0.375 -34.181  17.355  1.00  0.00     0.118 A
HETATM   14  C17 UNL     1       1.595 -34.752  17.093  1.00  0.00     0.132 A
HETATM   15  N4  UNL     1       2.425 -33.809  16.547  1.00  0.00    -0.310 N
HETATM   16  C18 UNL     1       1.681 -32.682  16.492  1.00  0.00     0.370 A
ATOM     17  H4  UNL     1       3.392 -33.932  16.247  1.00  0.00     0.170 HD
HETATM   18  O2  UNL     1       2.049 -31.569  16.059  1.00  0.00    -0.238 OA
HETATM   19  O3  UNL     1       0.509 -32.936  16.965  1.00  0.00    -0.258 OA
ENDBRANCH   3  13
ENDBRANCH   1   3
BRANCH   1  20
HETATM   20  C7  UNL     1      -1.117 -36.912  19.273  1.00  0.00     0.249 C
BRANCH  20  21
HETATM   21  O1  UNL     1      -2.242 -36.837  20.037  1.00  0.00    -0.375 OA
ATOM     22  H1  UNL     1      -2.515 -37.444  20.714  1.00  0.00     0.212 HD
ENDBRANCH  20  21
BRANCH  20  23
HETATM   23  C8  UNL     1       0.041 -37.010  20.317  1.00  0.00     0.241 C
BRANCH  23  24
HETATM   24  N3  UNL     1      -0.104 -38.131  21.190  1.00  0.00    -0.070 N
ATOM     25  H33 UNL     1      -0.622 -37.876  22.032  1.00  0.00     0.274 HD
ATOM     26  H32 UNL     1      -0.751 -38.817  20.802  1.00  0.00     0.274 HD
ATOM     27  H31 UNL     1       0.790 -38.561  21.425  1.00  0.00     0.274 HD
ENDBRANCH  23  24
BRANCH  23  28
HETATM   28  C9  UNL     1      -0.105 -35.785  21.233  1.00  0.00     0.116 C
BRANCH  28  29
HETATM   29  S1  UNL     1       1.356 -34.731  21.216  1.00  0.00    -0.128 SA
BRANCH  29  30
HETATM   30  C10 UNL     1       0.967 -33.039  20.833  1.00  0.00     0.000 A
HETATM   31  C11 UNL     1       1.793 -32.187  20.130  1.00  0.00     0.020 A
HETATM   32  C12 UNL     1       1.425 -30.903  19.837  1.00  0.00     0.025 A
HETATM   33  C13 UNL     1       0.207 -30.412  20.236  1.00  0.00     0.034 A
HETATM   34 CL1  UNL     1      -0.304 -28.779  19.872  1.00  0.00    -0.084 Cl
HETATM   35  C14 UNL     1      -0.632 -31.235  20.936  1.00  0.00     0.025 A
HETATM   36  C15 UNL     1      -0.253 -32.537  21.231  1.00  0.00     0.020 A
ENDBRANCH  29  30
ENDBRANCH  28  29
ENDBRANCH  23  28
ENDBRANCH  20  23
ENDBRANCH   1  20
TORSDOF 15
ENDMDL