MODEL 4
REMARK VINA RESULT: -7.273924760      1.633      5.101
REMARK  12 active torsions:
REMARK  status: ('A' for Active; 'I' for Inactive)
REMARK       I    between atoms: N1_1  and  C1_5
REMARK       I    between atoms: C1_5  and  N2_6
REMARK       I    between atoms: C1_5  and  N3_10
REMARK    1  A    between atoms: N3_10  and  C2_12
REMARK    2  A    between atoms: C2_12  and  C3_13
REMARK    3  A    between atoms: C3_13  and  C4_14
REMARK    4  A    between atoms: C4_14  and  C5_15
REMARK    5  A    between atoms: C5_15  and  C6_16
REMARK    6  A    between atoms: C6_16  and  C7_17
REMARK    7  A    between atoms: C7_17  and  C8_18
REMARK    8  A    between atoms: C8_18  and  C9_19
REMARK    9  A    between atoms: C9_19  and  N4_20
REMARK   10  A    between atoms: N4_20  and  C10_23
REMARK   11  A    between atoms: C10_23  and  C11_24
REMARK   12  A    between atoms: C12_29  and  C13_30
ROOT
HETATM    1  N4  UNL     1      -1.871 -32.756  14.359  1.00  0.00    -0.069 N
ATOM      2  H41 UNL     1      -1.036 -33.312  14.171  1.00  0.00     0.277 HD
ATOM      3  H42 UNL     1      -2.117 -32.559  13.389  1.00  0.00     0.277 HD
ENDROOT
BRANCH   1   4
HETATM    4  C9  UNL     1      -1.598 -31.560  15.133  1.00  0.00     0.232 C
BRANCH   4   5
HETATM    5  C8  UNL     1      -0.138 -31.684  15.601  1.00  0.00     0.027 C
BRANCH   5   6
HETATM    6  C7  UNL     1      -0.134 -31.724  17.074  1.00  0.00     0.002 C
BRANCH   6   7
HETATM    7  C6  UNL     1       0.746 -30.824  17.834  1.00  0.00     0.000 C
BRANCH   7   8
HETATM    8  C5  UNL     1       0.262 -30.058  18.978  1.00  0.00     0.000 C
BRANCH   8   9
HETATM    9  C4  UNL     1       0.598 -30.471  20.359  1.00  0.00     0.005 C
BRANCH   9  10
HETATM   10  C3  UNL     1      -0.535 -31.181  21.085  1.00  0.00     0.044 C
BRANCH  10  11
HETATM   11  C2  UNL     1      -0.395 -32.660  20.920  1.00  0.00     0.059 C
BRANCH  11  12
HETATM   12  N3  UNL     1       0.716 -33.284  21.503  1.00  0.00    -0.354 N
HETATM   13  C1  UNL     1       1.074 -34.601  21.168  1.00  0.00     0.479 C
HETATM   14  N1  UNL     1       0.185 -35.638  21.601  1.00  0.00    -0.033 N
HETATM   15  N2  UNL     1       2.434 -34.941  21.604  1.00  0.00    -0.033 N
ATOM     16  H13 UNL     1       0.478 -36.562  21.284  1.00  0.00     0.278 HD
ATOM     17  H12 UNL     1       0.243 -35.809  22.605  1.00  0.00     0.278 HD
ATOM     18  H11 UNL     1      -0.760 -35.402  21.298  1.00  0.00     0.278 HD
ATOM     19  H23 UNL     1       2.491 -35.113  22.608  1.00  0.00     0.278 HD
ATOM     20  H22 UNL     1       2.727 -35.866  21.287  1.00  0.00     0.278 HD
ATOM     21  H21 UNL     1       3.067 -34.203  21.296  1.00  0.00     0.278 HD
ATOM     22  H3  UNL     1       1.276 -32.772  22.185  1.00  0.00     0.162 HD
ENDBRANCH  11  12
ENDBRANCH  10  11
ENDBRANCH   9  10
ENDBRANCH   8   9
ENDBRANCH   7   8
ENDBRANCH   6   7
ENDBRANCH   5   6
ENDBRANCH   4   5
ENDBRANCH   1   4
BRANCH   1  23
HETATM   23  C10 UNL     1      -2.893 -33.490  15.064  1.00  0.00     0.309 C
BRANCH  23  24
HETATM   24  C11 UNL     1      -2.417 -34.839  15.473  1.00  0.00     0.123 A
HETATM   25  N5  UNL     1      -2.434 -35.989  14.814  1.00  0.00    -0.286 N
HETATM   26  N6  UNL     1      -1.909 -36.927  15.565  1.00  0.00    -0.283 N
ATOM     27  H5  UNL     1      -2.799 -36.123  13.870  1.00  0.00     0.188 HD
HETATM   28  C12 UNL     1      -1.516 -36.408  16.782  1.00  0.00     0.134 A
ATOM     29  H6  UNL     1      -1.806 -37.903  15.289  1.00  0.00     0.188 HD
HETATM   30  N8  UNL     1      -1.845 -35.121  16.686  1.00  0.00    -0.328 N
ATOM     31  H8  UNL     1      -1.691 -34.432  17.422  1.00  0.00     0.169 HD
BRANCH  28  32
HETATM   32  C13 UNL     1      -0.900 -37.192  17.834  1.00  0.00     0.046 A
HETATM   33  C14 UNL     1      -1.721 -37.910  18.709  1.00  0.00     0.106 A
HETATM   34  N7  UNL     1      -1.213 -38.656  19.707  1.00  0.00    -0.356 N
HETATM   35  C15 UNL     1       0.097 -38.773  19.945  1.00  0.00     0.104 A
ATOM     36  H7  UNL     1      -1.861 -39.159  20.314  1.00  0.00     0.166 HD
HETATM   37 CL1  UNL     1       0.719 -39.762  21.265  1.00  0.00    -0.065 Cl
HETATM   38  C16 UNL     1       0.946 -38.085  19.112  1.00  0.00     0.067 A
HETATM   39  C17 UNL     1       0.436 -37.299  18.062  1.00  0.00     0.052 A
HETATM   40 CL2  UNL     1       1.630 -36.481  17.084  1.00  0.00    -0.083 Cl
ENDBRANCH  28  32
ENDBRANCH  23  24
ENDBRANCH   1  23
TORSDOF 12
ENDMDL