MODEL 1
REMARK VINA RESULT: -8.221026990      0.000      0.000
REMARK  15 active torsions:
REMARK  status: ('A' for Active; 'I' for Inactive)
REMARK    1  A    between atoms: N1_1  and  C1_5
REMARK    2  A    between atoms: C1_5  and  N2_6
REMARK    3  A    between atoms: C1_5  and  C2_10
REMARK    4  A    between atoms: C3_11  and  N3_12
REMARK    5  A    between atoms: N3_12  and  C4_14
REMARK    6  A    between atoms: C4_14  and  C5_15
REMARK    7  A    between atoms: C5_15  and  C6_16
REMARK    8  A    between atoms: C6_16  and  C7_17
REMARK    9  A    between atoms: C7_17  and  C8_18
REMARK   10  A    between atoms: C8_18  and  C9_19
REMARK   11  A    between atoms: C9_19  and  C10_20
REMARK   12  A    between atoms: C10_20  and  C11_21
REMARK   13  A    between atoms: C11_21  and  C12_22
REMARK   14  A    between atoms: C12_22  and  N4_23
REMARK   15  A    between atoms: N4_23  and  C13_25
ROOT
HETATM    1  N3  UNL     1      -0.094 -38.544  21.594  1.00  0.00    -0.376 N
ATOM      2  H3  UNL     1       0.414 -38.199  22.409  1.00  0.00     0.161 HD
ENDROOT
BRANCH   1   3
HETATM    3  C3  UNL     1      -0.527 -39.895  21.546  1.00  0.00     0.117 A
HETATM    4  C2  UNL     1       0.340 -40.948  21.476  1.00  0.00     0.110 A
HETATM    5  C19 UNL     1      -0.190 -42.226  21.447  1.00  0.00     0.260 A
HETATM    6  N7  UNL     1      -1.520 -42.414  21.484  1.00  0.00    -0.319 N
HETATM    7  O1  UNL     1       0.608 -43.191  21.384  1.00  0.00    -0.267 OA
HETATM    8  C18 UNL     1      -2.357 -41.357  21.552  1.00  0.00     0.184 A
ATOM      9  H7  UNL     1      -1.900 -43.361  21.461  1.00  0.00     0.169 HD
HETATM   10  N6  UNL     1      -1.884 -40.104  21.583  1.00  0.00    -0.338 N
ATOM     11  H6  UNL     1      -2.526 -39.313  21.634  1.00  0.00     0.168 HD
BRANCH   4  12
HETATM   12  C1  UNL     1       1.785 -40.782  21.423  1.00  0.00     0.420 C
BRANCH  12  13
HETATM   13  N1  UNL     1       2.363 -41.312  20.190  1.00  0.00    -0.046 N
ATOM     14  H13 UNL     1       3.349 -41.556  20.276  1.00  0.00     0.277 HD
ATOM     15  H12 UNL     1       2.024 -42.245  19.953  1.00  0.00     0.277 HD
ATOM     16  H11 UNL     1       2.179 -40.618  19.466  1.00  0.00     0.277 HD
ENDBRANCH  12  13
BRANCH  12  17
HETATM   17  N2  UNL     1       2.479 -41.439  22.513  1.00  0.00    -0.046 N
ATOM     18  H23 UNL     1       2.334 -42.449  22.536  1.00  0.00     0.277 HD
ATOM     19  H22 UNL     1       3.492 -41.461  22.395  1.00  0.00     0.277 HD
ATOM     20  H21 UNL     1       2.181 -40.969  23.367  1.00  0.00     0.277 HD
ENDBRANCH  12  17
ENDBRANCH   4  12
ENDBRANCH   1   3
BRANCH   1  21
HETATM   21  C4  UNL     1      -0.373 -37.654  20.487  1.00  0.00     0.121 C
BRANCH  21  22
HETATM   22  C5  UNL     1       0.656 -36.573  20.440  1.00  0.00     0.020 C
BRANCH  22  23
HETATM   23  C6  UNL     1       0.202 -35.315  21.133  1.00  0.00     0.002 C
BRANCH  23  24
HETATM   24  C7  UNL     1       1.370 -34.428  21.446  1.00  0.00     0.000 C
BRANCH  24  25
HETATM   25  C8  UNL     1       1.148 -33.050  20.887  1.00  0.00     0.000 C
BRANCH  25  26
HETATM   26  C9  UNL     1      -0.189 -32.465  21.241  1.00  0.00     0.000 C
BRANCH  26  27
HETATM   27  C10 UNL     1      -0.187 -30.998  20.874  1.00  0.00     0.002 C
BRANCH  27  28
HETATM   28  C11 UNL     1       0.902 -30.707  19.832  1.00  0.00     0.020 C
BRANCH  28  29
HETATM   29  C12 UNL     1       0.264 -30.372  18.526  1.00  0.00     0.120 C
BRANCH  29  30
HETATM   30  N4  UNL     1       0.404 -31.382  17.505  1.00  0.00    -0.388 N
ATOM     31  H4  UNL     1       1.286 -31.407  16.993  1.00  0.00     0.159 HD
BRANCH  30  32
HETATM   32  C13 UNL     1      -0.570 -32.337  17.151  1.00  0.00     0.056 A
HETATM   33  C14 UNL     1      -0.879 -33.461  17.887  1.00  0.00     0.048 A
HETATM   34  C15 UNL     1      -1.855 -34.345  17.485  1.00  0.00     0.092 A
HETATM   35  N5  UNL     1      -2.550 -34.153  16.361  1.00  0.00    -0.341 N
HETATM   36  C16 UNL     1      -2.285 -33.078  15.618  1.00  0.00     0.212 A
ATOM     37  H5  UNL     1      -3.271 -34.816  16.076  1.00  0.00     0.167 HD
HETATM   38  F1  UNL     1      -2.991 -32.888  14.480  1.00  0.00    -0.184 F
HETATM   39  C17 UNL     1      -1.301 -32.164  15.998  1.00  0.00     0.116 A
HETATM   40 CL1  UNL     1      -1.029 -30.800  14.970  1.00  0.00    -0.077 Cl
ENDBRANCH  30  32
ENDBRANCH  29  30
ENDBRANCH  28  29
ENDBRANCH  27  28
ENDBRANCH  26  27
ENDBRANCH  25  26
ENDBRANCH  24  25
ENDBRANCH  23  24
ENDBRANCH  22  23
ENDBRANCH  21  22
ENDBRANCH   1  21
TORSDOF 15
ENDMDL