MODEL 3
REMARK VINA RESULT: -7.568801540      1.150      1.352
REMARK  16 active torsions:
REMARK  status: ('A' for Active; 'I' for Inactive)
REMARK    1  A    between atoms: N1_1  and  C1_4
REMARK    2  A    between atoms: C2_7  and  C3_8
REMARK    3  A    between atoms: C3_8  and  C4_9
REMARK    4  A    between atoms: C4_9  and  C5_10
REMARK    5  A    between atoms: C5_10  and  C6_11
REMARK    6  A    between atoms: C6_11  and  C7_12
REMARK    7  A    between atoms: C7_12  and  C8_13
REMARK    8  A    between atoms: C8_13  and  C9_14
REMARK    9  A    between atoms: N5_19  and  C10_20
REMARK   10  A    between atoms: C10_20  and  C11_21
REMARK   11  A    between atoms: C11_21  and  C12_22
REMARK   12  A    between atoms: C12_22  and  C13_23
REMARK   13  A    between atoms: C13_23  and  C14_24
REMARK   14  A    between atoms: C14_24  and  C15_25
REMARK   15  A    between atoms: C16_27  and  O1_28
REMARK   16  A    between atoms: C18_32  and  N6_33
ROOT
HETATM    1  C6  UNL     1      -0.263 -34.450  20.648  1.00  0.00     0.000 C
ENDROOT
BRANCH   1   2
HETATM    2  C5  UNL     1       0.344 -35.708  20.114  1.00  0.00     0.000 C
BRANCH   2   3
HETATM    3  C4  UNL     1       0.071 -36.943  20.880  1.00  0.00     0.006 C
BRANCH   3   4
HETATM    4  C3  UNL     1       0.488 -38.191  20.143  1.00  0.00     0.059 C
BRANCH   4   5
HETATM    5  C2  UNL     1       0.384 -39.434  20.904  1.00  0.00     0.052 A
HETATM    6  N2  UNL     1       1.567 -39.983  21.353  1.00  0.00    -0.194 N
HETATM    7  C1  UNL     1       1.519 -41.072  22.124  1.00  0.00     0.677 A
ATOM      8  H2  UNL     1       2.462 -39.566  21.100  1.00  0.00     0.184 HD
HETATM    9  N7  UNL     1       0.352 -41.636  22.468  1.00  0.00    -0.176 N
HETATM   10  C18 UNL     1      -0.808 -41.126  22.047  1.00  0.00     0.138 A
ATOM     11  H7  UNL     1       0.350 -42.467  23.059  1.00  0.00     0.186 HD
HETATM   12  C17 UNL     1      -0.810 -39.992  21.238  1.00  0.00     0.101 A
HETATM   13 CL2  UNL     1      -2.376 -39.436  20.633  1.00  0.00    -0.078 Cl
BRANCH   7  14
HETATM   14  N1  UNL     1       2.626 -41.629  22.575  1.00  0.00    -0.234 N
ATOM     15  H12 UNL     1       3.303 -41.960  21.888  1.00  0.00     0.174 HD
ATOM     16  H11 UNL     1       2.793 -41.723  23.576  1.00  0.00     0.174 HD
ENDBRANCH   7  14
BRANCH  10  17
HETATM   17  N6  UNL     1      -1.946 -41.661  22.376  1.00  0.00    -0.384 N
ATOM     18  H62 UNL     1      -1.994 -42.500  22.955  1.00  0.00     0.157 HD
ATOM     19  H61 UNL     1      -2.806 -41.225  22.045  1.00  0.00     0.157 HD
ENDBRANCH  10  17
ENDBRANCH   4   5
ENDBRANCH   3   4
ENDBRANCH   2   3
ENDBRANCH   1   2
BRANCH   1  20
HETATM   20  C7  UNL     1       0.565 -33.381  21.193  1.00  0.00     0.006 C
BRANCH  20  21
HETATM   21  C8  UNL     1       1.657 -32.761  20.438  1.00  0.00     0.063 C
BRANCH  21  22
HETATM   22  C9  UNL     1       1.282 -32.141  19.145  1.00  0.00     0.079 A
HETATM   23  N3  UNL     1       0.607 -31.037  18.833  1.00  0.00    -0.286 N
HETATM   24  N4  UNL     1       0.552 -30.935  17.493  1.00  0.00    -0.238 N
ATOM     25  H3  UNL     1       0.199 -30.379  19.498  1.00  0.00     0.188 HD
HETATM   26  N5  UNL     1       1.181 -31.956  16.956  1.00  0.00    -0.252 N
ATOM     27  H4  UNL     1       0.095 -30.185  16.976  1.00  0.00     0.208 HD
HETATM   28  C16 UNL     1       1.646 -32.721  17.941  1.00  0.00     0.183 A
BRANCH  26  29
HETATM   29  C10 UNL     1       1.357 -32.248  15.507  1.00  0.00     0.180 C
BRANCH  29  30
HETATM   30  C11 UNL     1       0.276 -31.541  14.820  1.00  0.00    -0.009 C
BRANCH  30  31
HETATM   31  C12 UNL     1      -0.969 -32.167  14.414  1.00  0.00    -0.029 C
BRANCH  31  32
HETATM   32  C13 UNL     1      -2.128 -32.338  15.282  1.00  0.00     0.028 C
BRANCH  32  33
HETATM   33  C14 UNL     1      -2.978 -33.553  15.083  1.00  0.00     0.019 C
BRANCH  33  34
HETATM   34  C15 UNL     1      -2.856 -34.493  16.282  1.00  0.00     0.115 C
HETATM   35 CL1  UNL     1      -1.803 -33.834  17.523  1.00  0.00    -0.130 Cl
ENDBRANCH  33  34
ENDBRANCH  32  33
ENDBRANCH  31  32
ENDBRANCH  30  31
ENDBRANCH  29  30
ENDBRANCH  26  29
BRANCH  28  36
HETATM   36  O1  UNL     1       2.368 -33.895  17.735  1.00  0.00    -0.344 OA
ATOM     37  H1  UNL     1       3.308 -33.998  17.651  1.00  0.00     0.219 HD
ENDBRANCH  28  36
ENDBRANCH  21  22
ENDBRANCH  20  21
ENDBRANCH   1  20
TORSDOF 16
ENDMDL