MODEL 5
REMARK VINA RESULT: -7.430614475      1.728      2.026
REMARK  16 active torsions:
REMARK  status: ('A' for Active; 'I' for Inactive)
REMARK    1  A    between atoms: O1_1  and  N1_3
REMARK    2  A    between atoms: N1_3  and  N2_5
REMARK    3  A    between atoms: N2_5  and  C1_6
REMARK    4  A    between atoms: N2_5  and  C3_9
REMARK    5  A    between atoms: C1_6  and  C2_7
REMARK    6  A    between atoms: C3_9  and  C4_10
REMARK    7  A    between atoms: C4_10  and  C5_11
REMARK    8  A    between atoms: C5_11  and  N3_12
REMARK    9  A    between atoms: N3_12  and  C6_14
REMARK   10  A    between atoms: C6_14  and  O2_15
REMARK   11  A    between atoms: C6_14  and  C7_17
REMARK   12  A    between atoms: C8_20  and  O3_21
REMARK   13  A    between atoms: C10_24  and  N5_25
REMARK   14  A    between atoms: N5_25  and  N6_27
REMARK   15  A    between atoms: N6_27  and  C11_29
REMARK   16  A    between atoms: C11_29  and  C12_30
ROOT
HETATM    1  C7  UNL     1       1.785 -35.769  19.320  1.00  0.00     0.088 A
HETATM    2  N4  UNL     1       1.180 -35.821  20.532  1.00  0.00    -0.335 N
ATOM      3  H4  UNL     1       0.495 -36.525  20.805  1.00  0.00     0.168 HD
HETATM    4  C8  UNL     1       1.597 -34.833  21.318  1.00  0.00     0.142 A
HETATM    5  C9  UNL     1       2.517 -34.073  20.625  1.00  0.00     0.088 A
HETATM    6  C10 UNL     1       2.636 -34.649  19.384  1.00  0.00     0.079 A
ENDROOT
BRANCH   1   7
HETATM    7  C6  UNL     1       1.609 -36.696  18.192  1.00  0.00     0.270 C
BRANCH   7   8
HETATM    8  N3  UNL     1       0.787 -37.807  18.315  1.00  0.00    -0.372 N
ATOM      9  H3  UNL     1      -0.111 -37.652  18.773  1.00  0.00     0.161 HD
BRANCH   8  10
HETATM   10  C5  UNL     1       1.037 -39.085  17.894  1.00  0.00     0.060 C
BRANCH  10  11
HETATM   11  C4  UNL     1       1.273 -40.148  18.918  1.00  0.00     0.065 C
BRANCH  11  12
HETATM   12  C3  UNL     1      -0.029 -40.415  19.636  1.00  0.00     0.149 C
BRANCH  12  13
HETATM   13  N2  UNL     1       0.012 -40.238  21.048  1.00  0.00    -0.307 N
BRANCH  13  14
HETATM   14  N1  UNL     1      -0.001 -38.946  21.573  1.00  0.00    -0.212 N
ATOM     15  H1  UNL     1       0.540 -38.763  22.418  1.00  0.00     0.215 HD
BRANCH  14  16
HETATM   16  O1  UNL     1      -0.633 -38.012  21.070  1.00  0.00    -0.275 OA
ATOM     17  H1  UNL     1      -1.402 -38.133  20.526  1.00  0.00     0.246 HD
ENDBRANCH  14  16
ENDBRANCH  13  14
BRANCH  13  18
HETATM   18  C1  UNL     1       0.069 -41.362  21.981  1.00  0.00     0.159 C
BRANCH  18  19
HETATM   19  C2  UNL     1       1.083 -42.377  21.526  1.00  0.00     0.136 C
HETATM   20 CL1  UNL     1       2.705 -41.817  21.990  1.00  0.00    -0.129 Cl
ENDBRANCH  18  19
ENDBRANCH  13  18
ENDBRANCH  12  13
ENDBRANCH  11  12
ENDBRANCH  10  11
ENDBRANCH   8  10
ENDBRANCH   7   8
BRANCH   7  21
HETATM   21  O2  UNL     1       2.899 -37.233  17.895  1.00  0.00    -0.371 OA
ATOM     22  H2  UNL     1       3.483 -36.810  18.514  1.00  0.00     0.212 HD
ENDBRANCH   7  21
ENDBRANCH   1   7
BRANCH   6  23
HETATM   23  N5  UNL     1       3.398 -34.177  18.271  1.00  0.00    -0.299 N
ATOM     24  H5  UNL     1       4.396 -34.376  18.325  1.00  0.00     0.187 HD
BRANCH  23  25
HETATM   25  N6  UNL     1       3.015 -33.508  17.157  1.00  0.00    -0.311 N
ATOM     26  H6  UNL     1       3.327 -33.799  16.231  1.00  0.00     0.186 HD
BRANCH  25  27
HETATM   27  C11 UNL     1       2.174 -32.403  17.329  1.00  0.00     0.118 C
BRANCH  27  28
HETATM   28  C12 UNL     1       0.812 -32.621  16.708  1.00  0.00    -0.019 A
HETATM   29  C13 UNL     1       0.518 -32.067  15.488  1.00  0.00     0.014 A
HETATM   30  C14 UNL     1      -0.723 -32.268  14.890  1.00  0.00     0.024 A
HETATM   31  C15 UNL     1      -1.693 -33.033  15.516  1.00  0.00     0.034 A
HETATM   32 CL2  UNL     1      -3.270 -33.314  14.794  1.00  0.00    -0.084 Cl
HETATM   33  C16 UNL     1      -1.401 -33.583  16.729  1.00  0.00     0.024 A
HETATM   34  C17 UNL     1      -0.163 -33.371  17.303  1.00  0.00     0.014 A
ENDBRANCH  27  28
ENDBRANCH  25  27
ENDBRANCH  23  25
ENDBRANCH   6  23
BRANCH   4  35
HETATM   35  O3  UNL     1       1.216 -34.540  22.639  1.00  0.00    -0.346 OA
ATOM     36  H3  UNL     1       0.392 -34.191  22.956  1.00  0.00     0.219 HD
ENDBRANCH   4  35
TORSDOF 16
ENDMDL