MODEL 3
REMARK VINA RESULT: -5.974789879      4.076      7.476
REMARK  15 active torsions:
REMARK  status: ('A' for Active; 'I' for Inactive)
REMARK    1  A    between atoms: O1_1  and  C1_3
REMARK    2  A    between atoms: C3_5  and  C4_6
REMARK    3  A    between atoms: C4_6  and  N1_7
REMARK    4  A    between atoms: N1_7  and  C5_10
REMARK    5  A    between atoms: C5_10  and  C6_11
REMARK    6  A    between atoms: C6_11  and  C7_12
REMARK    7  A    between atoms: C7_12  and  N2_13
REMARK    8  A    between atoms: N2_13  and  C8_16
REMARK    9  A    between atoms: C8_16  and  C9_17
REMARK   10  A    between atoms: C9_17  and  C10_18
REMARK   11  A    between atoms: C10_18  and  N3_19
REMARK   12  A    between atoms: N3_19  and  C11_22
REMARK   13  A    between atoms: C11_22  and  C12_23
REMARK   14  A    between atoms: C12_23  and  N4_24
REMARK   15  A    between atoms: N4_24  and  C13_26
ROOT
HETATM    1  C8  UNL     1       0.083 -34.552  20.707  1.00  0.00     0.233 C
ENDROOT
BRANCH   1   2
HETATM    2  N2  UNL     1      -1.145 -34.253  20.027  1.00  0.00    -0.075 N
ATOM      3  H22 UNL     1      -0.992 -33.668  19.205  1.00  0.00     0.277 HD
ATOM      4  H21 UNL     1      -1.729 -33.611  20.562  1.00  0.00     0.277 HD
BRANCH   2   5
HETATM    5  C7  UNL     1      -1.848 -35.476  19.697  1.00  0.00     0.233 C
BRANCH   5   6
HETATM    6  C6  UNL     1      -0.825 -36.621  19.623  1.00  0.00     0.055 C
BRANCH   6   7
HETATM    7  C5  UNL     1      -1.377 -37.824  20.370  1.00  0.00     0.234 C
BRANCH   7   8
HETATM    8  N1  UNL     1      -0.438 -38.361  21.322  1.00  0.00    -0.071 N
ATOM      9  H12 UNL     1      -0.543 -37.927  22.238  1.00  0.00     0.277 HD
ATOM     10  H11 UNL     1       0.515 -38.064  21.115  1.00  0.00     0.277 HD
BRANCH   8  11
HETATM   11  C4  UNL     1      -0.536 -39.783  21.403  1.00  0.00     0.271 C
BRANCH  11  12
HETATM   12  C3  UNL     1       0.863 -40.368  21.242  1.00  0.00    -0.023 A
HETATM   13  C2  UNL     1       1.365 -41.243  22.134  1.00  0.00     0.053 A
HETATM   14  C1  UNL     1       2.627 -41.717  21.901  1.00  0.00     0.107 A
HETATM   15  S1  UNL     1       3.077 -40.938  20.457  1.00  0.00    -0.077 SA
HETATM   16  C18 UNL     1       1.663 -40.032  20.181  1.00  0.00     0.061 A
BRANCH  14  17
HETATM   17  O1  UNL     1       3.374 -42.632  22.674  1.00  0.00    -0.354 OA
ATOM     18  H1  UNL     1       3.984 -42.446  23.377  1.00  0.00     0.218 HD
ENDBRANCH  14  17
ENDBRANCH  11  12
ENDBRANCH   8  11
ENDBRANCH   7   8
ENDBRANCH   6   7
ENDBRANCH   5   6
ENDBRANCH   2   5
ENDBRANCH   1   2
BRANCH   1  19
HETATM   19  C9  UNL     1       0.624 -33.196  21.203  1.00  0.00     0.055 C
BRANCH  19  20
HETATM   20  C10 UNL     1      -0.392 -32.131  20.853  1.00  0.00     0.234 C
BRANCH  20  21
HETATM   21  N3  UNL     1       0.229 -30.859  20.832  1.00  0.00    -0.074 N
ATOM     22  H32 UNL     1       0.061 -30.356  21.704  1.00  0.00     0.277 HD
ATOM     23  H31 UNL     1       1.245 -30.947  20.884  1.00  0.00     0.277 HD
BRANCH  21  24
HETATM   24  C11 UNL     1      -0.158 -30.070  19.703  1.00  0.00     0.251 C
BRANCH  24  25
HETATM   25  C12 UNL     1       0.916 -30.067  18.655  1.00  0.00     0.148 C
BRANCH  25  26
HETATM   26  N4  UNL     1       0.597 -30.900  17.532  1.00  0.00    -0.373 N
ATOM     27  H4  UNL     1       0.081 -30.491  16.753  1.00  0.00     0.161 HD
BRANCH  26  28
HETATM   28  C13 UNL     1       0.965 -32.261  17.454  1.00  0.00     0.123 A
HETATM   29  N5  UNL     1       2.130 -32.755  17.902  1.00  0.00    -0.350 N
HETATM   30  C14 UNL     1       2.460 -34.054  17.813  1.00  0.00     0.113 A
ATOM     31  H5  UNL     1       2.797 -32.114  18.331  1.00  0.00     0.166 HD
HETATM   32  C15 UNL     1       1.632 -34.999  17.252  1.00  0.00     0.051 A
HETATM   33 CL1  UNL     1       2.045 -36.695  17.125  1.00  0.00    -0.083 Cl
HETATM   34  C16 UNL     1       0.417 -34.535  16.776  1.00  0.00     0.053 A
HETATM   35  C17 UNL     1       0.102 -33.203  16.878  1.00  0.00     0.079 A
HETATM   36 CL2  UNL     1      -1.447 -32.624  16.272  1.00  0.00    -0.080 Cl
ENDBRANCH  26  28
ENDBRANCH  25  26
ENDBRANCH  24  25
ENDBRANCH  21  24
ENDBRANCH  20  21
ENDBRANCH  19  20
ENDBRANCH   1  19
TORSDOF 15
ENDMDL