MODEL 2
REMARK VINA RESULT: -9.133511666      1.304      1.519
REMARK  17 active torsions:
REMARK  status: ('A' for Active; 'I' for Inactive)
REMARK       I    between atoms: C2_2  and  N1_4
REMARK    1  A    between atoms: N1_4  and  C3_6
REMARK    2  A    between atoms: C3_6  and  C4_7
REMARK    3  A    between atoms: C4_7  and  C5_8
REMARK    4  A    between atoms: C5_8  and  C6_9
REMARK    5  A    between atoms: C6_9  and  C7_10
REMARK    6  A    between atoms: C7_10  and  C8_11
REMARK    7  A    between atoms: C8_11  and  N2_12
REMARK    8  A    between atoms: C8_11  and  C26_41
REMARK       I    between atoms: N2_12  and  C9_14
REMARK    9  A    between atoms: C9_14  and  C10_16
REMARK   10  A    between atoms: C12_18  and  C13_19
REMARK   11  A    between atoms: C13_19  and  O3_20
REMARK   12  A    between atoms: C13_19  and  N3_22
REMARK   13  A    between atoms: N3_22  and  C14_24
REMARK   14  A    between atoms: C14_24  and  C15_25
REMARK   15  A    between atoms: C14_24  and  C20_35
REMARK       I    between atoms: C15_25  and  N4_27
REMARK   16  A    between atoms: N4_27  and  C16_29
REMARK   17  A    between atoms: C16_29  and  C17_30
ROOT
HETATM    1  C10 UNL     1      30.245   5.603   9.981  1.00  0.00     0.090 A
HETATM    2  C11 UNL     1      31.056   6.660   9.367  1.00  0.00     0.028 A
HETATM    3  C12 UNL     1      31.330   5.299   8.918  1.00  0.00     0.074 A
ENDROOT
BRANCH   3   4
HETATM    4  C13 UNL     1      30.758   4.643   7.733  1.00  0.00     0.120 C
BRANCH   4   5
HETATM    5  O3  UNL     1      29.941   3.663   8.024  1.00  0.00    -0.349 OA
ATOM      6  H3  UNL     1      30.001   2.930   7.423  1.00  0.00     0.219 HD
ENDBRANCH   4   5
BRANCH   4   7
HETATM    7  N3  UNL     1      30.943   4.894   6.430  1.00  0.00    -0.339 N
ATOM      8  H3  UNL     1      30.068   4.580   6.012  1.00  0.00     0.167 HD
BRANCH   7   9
HETATM    9  C14 UNL     1      31.569   5.285   5.479  1.00  0.00     0.083 C
BRANCH   9  10
HETATM   10  C15 UNL     1      33.047   5.172   5.537  1.00  0.00     0.265 C
HETATM   11  O4  UNL     1      33.683   5.994   6.212  1.00  0.00    -0.266 OA
HETATM   12  N4  UNL     1      33.723   4.142   4.835  1.00  0.00    -0.338 N
ATOM     13  H4  UNL     1      33.192   3.473   4.278  1.00  0.00     0.164 HD
BRANCH  12  14
HETATM   14  C16 UNL     1      35.181   4.037   4.907  1.00  0.00     0.112 A
HETATM   15  C18 UNL     1      35.727   3.644   6.253  1.00  0.00     0.043 A
HETATM   16  C19 UNL     1      35.730   2.655   5.163  1.00  0.00     0.043 A
BRANCH  14  17
HETATM   17  C17 UNL     1      35.962   4.925   4.017  1.00  0.00     0.259 C
HETATM   18  N5  UNL     1      36.324   4.490   2.729  1.00  0.00    -0.060 NA
HETATM   19  O5  UNL     1      36.300   6.057   4.409  1.00  0.00    -0.274 OA
ENDBRANCH  14  17
ENDBRANCH  12  14
ENDBRANCH   9  10
BRANCH   9  20
HETATM   20  C20 UNL     1      30.989   5.861   4.245  1.00  0.00     0.041 C
HETATM   21  C21 UNL     1      29.524   6.205   4.378  1.00  0.00     0.011 C
HETATM   22  C22 UNL     1      29.132   7.128   3.259  1.00  0.00     0.001 C
HETATM   23  C23 UNL     1      29.932   6.896   1.993  1.00  0.00     0.000 C
HETATM   24  C24 UNL     1      31.405   7.190   2.235  1.00  0.00     0.001 C
HETATM   25  C25 UNL     1      31.715   7.075   3.727  1.00  0.00     0.011 C
ENDBRANCH   9  20
ENDBRANCH   7   9
ENDBRANCH   4   7
ENDBRANCH   3   4
BRANCH   1  26
HETATM   26  C9  UNL     1      30.529   4.940  11.257  1.00  0.00     0.223 C
HETATM   27  N2  UNL     1      30.664   5.634  12.492  1.00  0.00    -0.353 N
ATOM     28  H2  UNL     1      30.550   6.647  12.514  1.00  0.00     0.163 HD
HETATM   29  O2  UNL     1      30.672   3.690  11.285  1.00  0.00    -0.273 OA
BRANCH  27  30
HETATM   30  C8  UNL     1      30.971   4.902  13.755  1.00  0.00     0.111 C
BRANCH  30  31
HETATM   31  C7  UNL     1      29.771   4.863  14.616  1.00  0.00    -0.006 C
BRANCH  31  32
HETATM   32  C6  UNL     1      28.441   5.166  14.120  1.00  0.00    -0.029 C
BRANCH  32  33
HETATM   33  C5  UNL     1      27.290   4.271  14.184  1.00  0.00     0.028 C
BRANCH  33  34
HETATM   34  C4  UNL     1      25.924   4.879  14.124  1.00  0.00     0.023 C
BRANCH  34  35
HETATM   35  C3  UNL     1      24.902   4.095  13.375  1.00  0.00     0.123 C
BRANCH  35  36
HETATM   36  N1  UNL     1      23.550   4.291  13.851  1.00  0.00    -0.361 N
HETATM   37  C2  UNL     1      22.521   3.339  13.644  1.00  0.00     0.213 C
HETATM   38  C1  UNL     1      21.146   3.542  14.128  1.00  0.00     0.117 C
HETATM   39  O1  UNL     1      22.798   2.279  13.021  1.00  0.00    -0.274 OA
ATOM     40  H1  UNL     1      23.328   5.149  14.357  1.00  0.00     0.162 HD
ENDBRANCH  35  36
ENDBRANCH  34  35
ENDBRANCH  33  34
ENDBRANCH  32  33
ENDBRANCH  31  32
ENDBRANCH  30  31
BRANCH  30  41
HETATM   41  C26 UNL     1      32.097   5.666  14.358  1.00  0.00     0.012 C
HETATM   42  C27 UNL     1      32.543   6.887  13.504  1.00  0.00     0.007 C
HETATM   43  C28 UNL     1      32.970   7.491  14.852  1.00  0.00     0.001 C
HETATM   44  C29 UNL     1      31.793   6.672  15.439  1.00  0.00     0.007 C
ENDBRANCH  30  41
ENDBRANCH  27  30
ENDBRANCH   1  26
TORSDOF 17
ENDMDL