MODEL 5
REMARK VINA RESULT: -8.308257343      1.615      2.873
REMARK  14 active torsions:
REMARK  status: ('A' for Active; 'I' for Inactive)
REMARK    1  A    between atoms: C2_2  and  C3_3
REMARK    2  A    between atoms: C3_3  and  C4_4
REMARK       I    between atoms: N1_10  and  C10_12
REMARK    3  A    between atoms: C10_12  and  C11_14
REMARK    4  A    between atoms: N2_18  and  C15_19
REMARK    5  A    between atoms: C15_19  and  C16_20
REMARK    6  A    between atoms: C15_19  and  C28_40
REMARK    7  A    between atoms: C16_20  and  C17_21
REMARK    8  A    between atoms: C17_21  and  C18_22
REMARK    9  A    between atoms: C18_22  and  N3_23
REMARK       I    between atoms: N3_23  and  C19_25
REMARK   10  A    between atoms: C19_25  and  C20_27
REMARK   11  A    between atoms: C20_27  and  C25_37
REMARK       I    between atoms: N4_28  and  C21_30
REMARK   12  A    between atoms: C21_30  and  C22_32
REMARK   13  A    between atoms: C22_32  and  C23_33
REMARK   14  A    between atoms: C23_33  and  C24_34
ROOT
HETATM    1  C15 UNL     1      28.475   8.582  11.369  1.00  0.00     0.312 C
ENDROOT
BRANCH   1   2
HETATM    2  N2  UNL     1      27.870   8.630  12.718  1.00  0.00     0.115 N
HETATM    3  C11 UNL     1      26.563   8.091  12.791  1.00  0.00     0.315 A
HETATM    4  C12 UNL     1      25.710   9.024  13.593  1.00  0.00     0.047 A
HETATM    5  C13 UNL     1      26.595  10.190  13.922  1.00  0.00     0.033 A
HETATM    6  C14 UNL     1      27.933   9.917  13.315  1.00  0.00     0.275 A
BRANCH   3   7
HETATM    7  C10 UNL     1      26.634   6.809  13.589  1.00  0.00     0.255 C
HETATM    8  N1  UNL     1      27.808   6.401  14.255  1.00  0.00    -0.333 N
HETATM    9  C2  UNL     1      28.118   5.190  14.576  1.00  0.00    -0.014 C
ATOM     10  H1  UNL     1      28.474   7.131  14.507  1.00  0.00     0.168 HD
HETATM   11  C1  UNL     1      27.206   4.056  14.249  1.00  0.00     0.063 C
HETATM   12  O1  UNL     1      25.612   6.092  13.660  1.00  0.00    -0.271 OA
BRANCH   9  13
HETATM   13  C3  UNL     1      29.382   4.916  15.261  1.00  0.00     0.056 C
BRANCH  13  14
HETATM   14  C4  UNL     1      30.590   5.524  14.631  1.00  0.00    -0.009 C
HETATM   15  C5  UNL     1      31.447   4.520  13.960  1.00  0.00     0.005 C
HETATM   16  C6  UNL     1      32.687   5.182  13.382  1.00  0.00     0.000 C
HETATM   17  C7  UNL     1      32.691   6.665  13.642  1.00  0.00     0.000 C
HETATM   18  C8  UNL     1      32.550   6.958  15.125  1.00  0.00     0.000 C
HETATM   19  C9  UNL     1      31.366   6.275  15.718  1.00  0.00     0.005 C
ENDBRANCH  13  14
ENDBRANCH   9  13
ENDBRANCH   3   7
ENDBRANCH   1   2
BRANCH   1  20
HETATM   20  C16 UNL     1      28.429   9.950  10.808  1.00  0.00     0.047 C
BRANCH  20  21
HETATM   21  C17 UNL     1      27.591  10.220   9.600  1.00  0.00     0.022 C
BRANCH  21  22
HETATM   22  C18 UNL     1      27.233   8.935   8.926  1.00  0.00     0.123 C
BRANCH  22  23
HETATM   23  N3  UNL     1      28.030   8.621   7.793  1.00  0.00    -0.356 N
HETATM   24  C19 UNL     1      28.837   7.477   7.566  1.00  0.00     0.264 C
HETATM   25  O2  UNL     1      28.826   6.619   8.510  1.00  0.00    -0.266 OA
ATOM     26  H3  UNL     1      28.021   9.311   7.042  1.00  0.00     0.162 HD
BRANCH  24  27
HETATM   27  C20 UNL     1      29.625   7.267   6.369  1.00  0.00     0.083 C
HETATM   28  N4  UNL     1      30.812   6.939   6.339  1.00  0.00    -0.326 N
HETATM   29  C21 UNL     1      31.841   6.648   7.191  1.00  0.00     0.222 C
ATOM     30  H4  UNL     1      31.127   6.859   5.372  1.00  0.00     0.168 HD
HETATM   31  O3  UNL     1      32.032   7.261   8.265  1.00  0.00    -0.273 OA
BRANCH  29  32
HETATM   32  C22 UNL     1      32.826   5.555   6.877  1.00  0.00     0.112 C
BRANCH  32  33
HETATM   33  C23 UNL     1      33.989   6.134   6.081  1.00  0.00     0.109 C
BRANCH  33  34
HETATM   34  C24 UNL     1      33.834   5.805   4.641  1.00  0.00     0.231 C
HETATM   35  N5  UNL     1      32.915   6.512   3.853  1.00  0.00    -0.062 NA
HETATM   36  O4  UNL     1      34.528   4.892   4.138  1.00  0.00    -0.277 OA
ENDBRANCH  33  34
ENDBRANCH  32  33
ENDBRANCH  29  32
BRANCH  27  37
HETATM   37  C25 UNL     1      28.933   7.434   5.033  1.00  0.00     0.033 C
HETATM   38  C26 UNL     1      29.113   6.224   4.172  1.00  0.00     0.016 C
HETATM   39  C27 UNL     1      29.336   8.726   4.363  1.00  0.00     0.016 C
ENDBRANCH  27  37
ENDBRANCH  24  27
ENDBRANCH  22  23
ENDBRANCH  21  22
ENDBRANCH  20  21
ENDBRANCH   1  20
BRANCH   1  40
HETATM   40  C28 UNL     1      29.794   7.953  11.433  1.00  0.00     0.264 C
HETATM   41  N6  UNL     1      31.017   8.638  11.232  1.00  0.00    -0.060 NA
HETATM   42  O5  UNL     1      29.887   6.729  11.679  1.00  0.00    -0.274 OA
ENDBRANCH   1  40
TORSDOF 14
ENDMDL