MODEL 1
REMARK VINA RESULT: -9.104474337      0.000      0.000
REMARK  16 active torsions:
REMARK  status: ('A' for Active; 'I' for Inactive)
REMARK    1  A    between atoms: C2_2  and  C3_3
REMARK    2  A    between atoms: C2_2  and  C8_9
REMARK    3  A    between atoms: C3_3  and  C4_4
REMARK    4  A    between atoms: C4_4  and  N1_5
REMARK       I    between atoms: C8_9  and  N2_11
REMARK    5  A    between atoms: N2_11  and  C9_13
REMARK    6  A    between atoms: C9_13  and  C10_14
REMARK       I    between atoms: C10_14  and  N3_16
REMARK    7  A    between atoms: N3_16  and  C11_18
REMARK    8  A    between atoms: C11_18  and  C12_19
REMARK    9  A    between atoms: C12_19  and  C13_20
REMARK   10  A    between atoms: C13_20  and  C14_21
REMARK   11  A    between atoms: C14_21  and  C15_22
REMARK   12  A    between atoms: C15_22  and  N4_23
REMARK   13  A    between atoms: C16_27  and  O3_28
REMARK   14  A    between atoms: C16_27  and  N5_30
REMARK   15  A    between atoms: C24_38  and  C25_39
REMARK   16  A    between atoms: C25_39  and  N6_40
REMARK       I    between atoms: N6_40  and  C26_42
ROOT
HETATM    1  C9  UNL     1      31.402   4.579   6.962  1.00  0.00     0.155 C
HETATM    2  C16 UNL     1      30.686   4.597   8.215  1.00  0.00     0.175 C
ENDROOT
BRANCH   1   3
HETATM    3  N2  UNL     1      30.514   4.943   5.860  1.00  0.00    -0.315 N
HETATM    4  C8  UNL     1      30.137   6.269   5.635  1.00  0.00     0.251 C
HETATM    5  O1  UNL     1      30.517   7.259   6.315  1.00  0.00    -0.268 OA
ATOM      6  H2  UNL     1      30.161   4.212   5.241  1.00  0.00     0.169 HD
BRANCH   4   7
HETATM    7  C2  UNL     1      29.225   6.599   4.526  1.00  0.00     0.002 C
HETATM    8  C1  UNL     1      28.004   6.150   4.499  1.00  0.00     0.024 C
BRANCH   7   9
HETATM    9  C3  UNL     1      29.708   7.446   3.413  1.00  0.00     0.071 C
BRANCH   9  10
HETATM   10  C4  UNL     1      30.975   6.988   2.777  1.00  0.00     0.240 C
BRANCH  10  11
HETATM   11  N1  UNL     1      31.974   8.059   2.889  1.00  0.00    -0.078 N
HETATM   12  C5  UNL     1      31.378   9.253   3.450  1.00  0.00     0.271 C
HETATM   13  C6  UNL     1      33.039   7.599   3.727  1.00  0.00     0.271 C
HETATM   14  C7  UNL     1      32.469   8.323   1.550  1.00  0.00     0.271 C
ENDBRANCH  10  11
ENDBRANCH   9  10
ENDBRANCH   7   9
ENDBRANCH   4   7
ENDBRANCH   1   3
BRANCH   1  15
HETATM   15  C10 UNL     1      32.741   5.053   6.897  1.00  0.00     0.272 C
HETATM   16  O2  UNL     1      32.988   6.224   7.353  1.00  0.00    -0.266 OA
HETATM   17  N3  UNL     1      33.841   4.335   6.355  1.00  0.00    -0.356 N
ATOM     18  H3  UNL     1      33.665   3.398   5.990  1.00  0.00     0.162 HD
BRANCH  17  19
HETATM   19  C11 UNL     1      35.169   4.836   6.288  1.00  0.00     0.123 C
BRANCH  19  20
HETATM   20  C12 UNL     1      35.854   4.570   4.975  1.00  0.00     0.020 C
BRANCH  20  21
HETATM   21  C13 UNL     1      36.920   3.508   5.176  1.00  0.00     0.003 C
BRANCH  21  22
HETATM   22  C14 UNL     1      36.317   2.168   5.483  1.00  0.00     0.027 C
BRANCH  22  23
HETATM   23  C15 UNL     1      37.155   1.401   6.494  1.00  0.00     0.229 C
BRANCH  23  24
HETATM   24  N4  UNL     1      38.533   1.476   6.016  1.00  0.00    -0.079 N
ATOM     25  H43 UNL     1      38.744   0.805   5.278  1.00  0.00     0.274 HD
ATOM     26  H42 UNL     1      38.732   2.319   5.477  1.00  0.00     0.274 HD
ATOM     27  H41 UNL     1      39.124   1.372   6.841  1.00  0.00     0.274 HD
ENDBRANCH  23  24
ENDBRANCH  22  23
ENDBRANCH  21  22
ENDBRANCH  20  21
ENDBRANCH  19  20
ENDBRANCH  17  19
ENDBRANCH   1  15
BRANCH   2  28
HETATM   28  O3  UNL     1      29.561   3.843   8.215  1.00  0.00    -0.344 OA
ATOM     29  H3  UNL     1      28.811   4.272   8.611  1.00  0.00     0.219 HD
ENDBRANCH   2  28
BRANCH   2  30
HETATM   30  N5  UNL     1      30.929   5.242   9.417  1.00  0.00    -0.340 N
HETATM   31  C17 UNL     1      30.742   6.606   9.705  1.00  0.00     0.067 C
HETATM   32  C18 UNL     1      30.253   6.920  11.120  1.00  0.00     0.054 C
HETATM   33  C19 UNL     1      30.733   5.987  12.166  1.00  0.00    -0.030 C
HETATM   34  C20 UNL     1      30.630   4.568  11.700  1.00  0.00     0.030 C
HETATM   35  C22 UNL     1      32.086   6.439  12.683  1.00  0.00     0.015 C
HETATM   36  C30 UNL     1      30.202   6.291  13.545  1.00  0.00    -0.001 C
HETATM   37  C21 UNL     1      31.490   4.403  10.497  1.00  0.00     0.131 C
HETATM   38  C23 UNL     1      31.289   7.351  13.618  1.00  0.00    -0.003 C
HETATM   39  C24 UNL     1      31.778   7.345  15.045  1.00  0.00     0.008 C
HETATM   40  C28 UNL     1      31.602   5.908  15.504  1.00  0.00     0.007 C
HETATM   41  C29 UNL     1      30.517   5.329  14.626  1.00  0.00     0.006 C
BRANCH  39  42
HETATM   42  C25 UNL     1      30.819   8.171  15.873  1.00  0.00     0.127 C
BRANCH  42  43
HETATM   43  N6  UNL     1      31.429   8.832  16.983  1.00  0.00    -0.361 N
HETATM   44  C26 UNL     1      30.710   9.760  17.768  1.00  0.00     0.213 C
HETATM   45  C27 UNL     1      31.372  10.450  18.934  1.00  0.00     0.117 C
HETATM   46  O4  UNL     1      29.513  10.077  17.569  1.00  0.00    -0.274 OA
ATOM     47  H6  UNL     1      32.403   8.631  17.212  1.00  0.00     0.162 HD
ENDBRANCH  42  43
ENDBRANCH  39  42
ENDBRANCH   2  30
TORSDOF 16
ENDMDL