MODEL 4
REMARK VINA RESULT: -7.755480516      2.713      5.946
REMARK  14 active torsions:
REMARK  status: ('A' for Active; 'I' for Inactive)
REMARK    1  A    between atoms: C2_2  and  C4_4
REMARK    2  A    between atoms: C4_4  and  C5_5
REMARK    3  A    between atoms: C5_5  and  C6_6
REMARK    4  A    between atoms: C6_6  and  C7_7
REMARK       I    between atoms: C7_7  and  N1_9
REMARK    5  A    between atoms: N1_9  and  C8_10
REMARK    6  A    between atoms: C8_10  and  C10_12
REMARK       I    between atoms: N3_15  and  C11_17
REMARK    7  A    between atoms: C11_17  and  C12_19
REMARK    8  A    between atoms: N4_24  and  C17_25
REMARK    9  A    between atoms: C17_25  and  O4_26
REMARK   10  A    between atoms: C18_28  and  C19_29
REMARK   11  A    between atoms: C18_28  and  N8_39
REMARK   12  A    between atoms: C19_29  and  C20_30
REMARK   13  A    between atoms: C20_30  and  C21_31
REMARK   14  A    between atoms: C21_31  and  N5_32
REMARK       I    between atoms: C22_34  and  N6_35
ROOT
HETATM    1  C12 UNL     1      30.273   7.075  14.374  1.00  0.00     0.178 C
HETATM    2  C13 UNL     1      31.230   5.955  14.363  1.00  0.00     0.035 C
HETATM    3  C14 UNL     1      32.556   6.339  13.718  1.00  0.00     0.004 C
HETATM    4  C15 UNL     1      33.065   7.661  14.162  1.00  0.00     0.020 C
HETATM    5  C16 UNL     1      31.975   8.745  14.067  1.00  0.00     0.126 C
HETATM    6  N4  UNL     1      30.928   8.316  14.890  1.00  0.00    -0.347 N
ENDROOT
BRANCH   6   7
HETATM    7  C17 UNL     1      30.500   8.747  16.130  1.00  0.00     0.156 C
HETATM    8  C18 UNL     1      29.294   9.252  16.693  1.00  0.00     0.039 C
BRANCH   7   9
HETATM    9  O4  UNL     1      31.466   8.666  17.052  1.00  0.00    -0.345 OA
ATOM     10  H4  UNL     1      32.312   8.926  16.706  1.00  0.00     0.219 HD
ENDBRANCH   7   9
BRANCH   8  11
HETATM   11  C19 UNL     1      28.004   9.301  16.051  1.00  0.00     0.057 C
BRANCH  11  12
HETATM   12  C20 UNL     1      27.200   7.970  16.049  1.00  0.00     0.025 C
BRANCH  12  13
HETATM   13  C21 UNL     1      26.385   8.131  14.709  1.00  0.00     0.122 C
BRANCH  13  14
HETATM   14  N5  UNL     1      25.569   6.947  14.605  1.00  0.00    -0.365 N
HETATM   15  C22 UNL     1      25.905   5.844  14.097  1.00  0.00     0.181 C
HETATM   16  N6  UNL     1      27.072   5.426  13.505  1.00  0.00    -0.374 N
HETATM   17  N7  UNL     1      24.903   4.787  14.362  1.00  0.00    -0.064 NA
ATOM     18  H62 UNL     1      27.763   6.155  13.323  1.00  0.00     0.158 HD
ATOM     19  H61 UNL     1      27.344   4.533  13.094  1.00  0.00     0.158 HD
ATOM     20  H5  UNL     1      24.623   7.008  14.982  1.00  0.00     0.162 HD
ENDBRANCH  13  14
ENDBRANCH  12  13
ENDBRANCH  11  12
ENDBRANCH   8  11
BRANCH   8  21
HETATM   21  N8  UNL     1      29.534  10.391  17.569  1.00  0.00    -0.283 NA
HETATM   22  C23 UNL     1      29.781  11.639  16.943  1.00  0.00     0.095 C
HETATM   23  C24 UNL     1      28.976  12.789  17.564  1.00  0.00     0.015 C
HETATM   24  C25 UNL     1      29.104  12.756  19.060  1.00  0.00     0.002 C
HETATM   25  C26 UNL     1      28.988  11.365  19.656  1.00  0.00     0.015 C
HETATM   26  C27 UNL     1      28.438  10.499  18.534  1.00  0.00     0.095 C
ENDBRANCH   8  21
ENDBRANCH   6   7
BRANCH   1  27
HETATM   27  C11 UNL     1      29.810   7.382  12.981  1.00  0.00     0.244 C
HETATM   28  N3  UNL     1      29.314   8.629  12.694  1.00  0.00    -0.332 N
HETATM   29  C4  UNL     1      28.549   9.076  11.806  1.00  0.00    -0.007 C
ATOM     30  H3  UNL     1      29.638   9.347  13.342  1.00  0.00     0.168 HD
HETATM   31  O3  UNL     1      29.882   6.507  12.104  1.00  0.00    -0.271 OA
BRANCH  29  32
HETATM   32  C2  UNL     1      27.880   8.370  10.714  1.00  0.00     0.023 C
HETATM   33  C1  UNL     1      26.434   7.955  10.961  1.00  0.00     0.016 C
HETATM   34  C3  UNL     1      27.732   9.343   9.496  1.00  0.00     0.016 C
ENDBRANCH  29  32
BRANCH  29  35
HETATM   35  C5  UNL     1      28.370  10.556  11.889  1.00  0.00     0.063 C
BRANCH  35  36
HETATM   36  C6  UNL     1      27.328  11.014  12.888  1.00  0.00     0.125 C
BRANCH  36  37
HETATM   37  C7  UNL     1      26.385  11.815  11.832  1.00  0.00     0.292 C
HETATM   38  O1  UNL     1      27.125  12.621  11.344  1.00  0.00    -0.257 OA
HETATM   39  N1  UNL     1      25.154  11.296  11.794  1.00  0.00    -0.370 NA
BRANCH  39  40
HETATM   40  C8  UNL     1      23.858  10.813  11.689  1.00  0.00     0.149 C
HETATM   41  C9  UNL     1      23.596   9.979  10.477  1.00  0.00     0.090 C
BRANCH  40  42
HETATM   42  C10 UNL     1      22.828  11.693  12.230  1.00  0.00     0.290 C
HETATM   43  N2  UNL     1      22.050  11.359  13.377  1.00  0.00    -0.055 NA
HETATM   44  O2  UNL     1      22.524  12.814  11.716  1.00  0.00    -0.269 OA
ENDBRANCH  40  42
ENDBRANCH  39  40
ENDBRANCH  36  37
ENDBRANCH  35  36
ENDBRANCH  29  35
ENDBRANCH   1  27
TORSDOF 14
ENDMDL