MODEL 2
REMARK VINA RESULT: -8.056649883      1.923      5.815
REMARK  14 active torsions:
REMARK  status: ('A' for Active; 'I' for Inactive)
REMARK    1  A    between atoms: C2_2  and  C3_3
REMARK    2  A    between atoms: C3_3  and  N1_4
REMARK    3  A    between atoms: C3_3  and  C23_35
REMARK       I    between atoms: N1_4  and  C4_6
REMARK    4  A    between atoms: C4_6  and  C5_8
REMARK       I    between atoms: N2_13  and  C10_14
REMARK    5  A    between atoms: C10_14  and  C11_16
REMARK    6  A    between atoms: C11_16  and  C12_17
REMARK    7  A    between atoms: C11_16  and  N4_25
REMARK    8  A    between atoms: C12_17  and  C13_18
REMARK    9  A    between atoms: C13_18  and  C14_19
REMARK   10  A    between atoms: C14_19  and  C15_20
REMARK   11  A    between atoms: C15_20  and  N3_21
REMARK       I    between atoms: N4_25  and  C16_27
REMARK   12  A    between atoms: C16_27  and  C17_29
REMARK   13  A    between atoms: C17_29  and  C18_30
REMARK       I    between atoms: C23_35  and  N5_37
REMARK   14  A    between atoms: C27_41  and  C28_42
ROOT
HETATM    1  C5  UNL     1      28.470  10.117  10.789  1.00  0.00     0.179 C
HETATM    2  C6  UNL     1      27.735  11.343  10.250  1.00  0.00     0.035 C
HETATM    3  C7  UNL     1      26.260  11.056  10.112  1.00  0.00     0.004 C
HETATM    4  C8  UNL     1      26.163   9.980   9.025  1.00  0.00     0.020 C
HETATM    5  C9  UNL     1      26.728   8.728   9.617  1.00  0.00     0.127 C
HETATM    6  N2  UNL     1      28.126   8.936  10.067  1.00  0.00    -0.337 N
HETATM    7  C10 UNL     1      29.041   7.944   9.735  1.00  0.00     0.243 C
HETATM    8  O2  UNL     1      28.560   6.930   9.085  1.00  0.00    -0.271 OA
ENDROOT
BRANCH   1   9
HETATM    9  C4  UNL     1      28.335  10.071  12.246  1.00  0.00     0.241 C
HETATM   10  N1  UNL     1      27.941   9.018  13.068  1.00  0.00    -0.346 N
ATOM     11  H1  UNL     1      27.705   8.126  12.635  1.00  0.00     0.163 HD
HETATM   12  O1  UNL     1      28.626  11.168  12.875  1.00  0.00    -0.271 OA
BRANCH  10  13
HETATM   13  C3  UNL     1      27.850   9.131  14.521  1.00  0.00     0.176 C
BRANCH  13  14
HETATM   14  C2  UNL     1      29.230   9.240  15.126  1.00  0.00     0.030 C
HETATM   15  C1  UNL     1      29.172   9.290  16.632  1.00  0.00     0.007 C
ENDBRANCH  13  14
BRANCH  13  16
HETATM   16  C23 UNL     1      27.077   8.010  15.068  1.00  0.00     0.243 C
HETATM   17  O4  UNL     1      26.062   8.243  15.767  1.00  0.00    -0.271 OA
HETATM   18  N5  UNL     1      27.414   6.632  14.854  1.00  0.00    -0.337 N
HETATM   19  C24 UNL     1      28.553   6.099  14.141  1.00  0.00     0.127 C
HETATM   20  C27 UNL     1      26.646   5.495  15.310  1.00  0.00     0.176 C
HETATM   21  C25 UNL     1      28.934   4.899  14.985  1.00  0.00     0.022 C
HETATM   22  C26 UNL     1      27.701   4.522  15.760  1.00  0.00     0.036 C
BRANCH  20  23
HETATM   23  C28 UNL     1      25.878   4.856  14.197  1.00  0.00     0.254 C
HETATM   24  N6  UNL     1      25.248   5.598  13.170  1.00  0.00    -0.060 NA
HETATM   25  O5  UNL     1      25.766   3.587  14.144  1.00  0.00    -0.275 OA
ENDBRANCH  20  23
ENDBRANCH  13  16
ENDBRANCH  10  13
ENDBRANCH   1   9
BRANCH   7  26
HETATM   26  C11 UNL     1      30.482   7.838  10.002  1.00  0.00     0.176 C
BRANCH  26  27
HETATM   27  C12 UNL     1      31.170   6.646   9.424  1.00  0.00     0.035 C
BRANCH  27  28
HETATM   28  C13 UNL     1      31.711   6.751   8.047  1.00  0.00     0.004 C
BRANCH  28  29
HETATM   29  C14 UNL     1      31.676   5.383   7.362  1.00  0.00     0.027 C
BRANCH  29  30
HETATM   30  C15 UNL     1      31.106   4.376   8.356  1.00  0.00     0.229 C
BRANCH  30  31
HETATM   31  N3  UNL     1      30.258   3.413   7.719  1.00  0.00    -0.079 N
ATOM     32  H33 UNL     1      29.503   3.868   7.208  1.00  0.00     0.274 HD
ATOM     33  H32 UNL     1      30.733   2.961   6.938  1.00  0.00     0.274 HD
ATOM     34  H31 UNL     1      29.897   2.726   8.380  1.00  0.00     0.274 HD
ENDBRANCH  30  31
ENDBRANCH  29  30
ENDBRANCH  28  29
ENDBRANCH  27  28
ENDBRANCH  26  27
BRANCH  26  35
HETATM   35  N4  UNL     1      30.593   7.617  11.469  1.00  0.00    -0.348 N
HETATM   36  C16 UNL     1      31.504   8.310  12.289  1.00  0.00     0.218 C
HETATM   37  O3  UNL     1      32.306   9.179  11.894  1.00  0.00    -0.274 OA
ATOM     38  H4  UNL     1      29.977   6.929  11.903  1.00  0.00     0.163 HD
BRANCH  36  39
HETATM   39  C17 UNL     1      31.540   8.006  13.768  1.00  0.00     0.107 C
BRANCH  39  40
HETATM   40  C18 UNL     1      32.593   6.929  14.049  1.00  0.00    -0.006 C
HETATM   41  C19 UNL     1      32.330   6.259  15.355  1.00  0.00     0.005 C
HETATM   42  C20 UNL     1      31.938   4.830  15.028  1.00  0.00     0.000 C
HETATM   43  C21 UNL     1      32.599   4.556  13.707  1.00  0.00     0.000 C
HETATM   44  C22 UNL     1      32.512   5.870  13.011  1.00  0.00     0.005 C
ENDBRANCH  39  40
ENDBRANCH  36  39
ENDBRANCH  26  35
ENDBRANCH   7  26
TORSDOF 14
ENDMDL