MODEL 1
REMARK VINA RESULT: -9.197782158      0.000      0.000
REMARK  14 active torsions:
REMARK  status: ('A' for Active; 'I' for Inactive)
REMARK    1  A    between atoms: C2_2  and  N1_3
REMARK    2  A    between atoms: C6_7  and  C7_8
REMARK       I    between atoms: C7_8  and  N2_10
REMARK    3  A    between atoms: N2_10  and  C8_12
REMARK    4  A    between atoms: C8_12  and  C9_13
REMARK    5  A    between atoms: C8_12  and  C14_22
REMARK    6  A    between atoms: C9_13  and  C10_14
REMARK    7  A    between atoms: C10_14  and  C11_15
REMARK    8  A    between atoms: C11_15  and  C12_16
REMARK    9  A    between atoms: C12_16  and  N3_17
REMARK       I    between atoms: C14_22  and  N6_24
REMARK   10  A    between atoms: N6_24  and  C15_26
REMARK   11  A    between atoms: C15_26  and  C16_27
REMARK   12  A    between atoms: C15_26  and  C23_34
REMARK   13  A    between atoms: C16_27  and  C17_28
REMARK       I    between atoms: C23_34  and  N7_36
REMARK   14  A    between atoms: C26_39  and  O4_40
ROOT
HETATM    1  C14 UNL     1      30.250   5.484   7.749  1.00  0.00     0.241 C
HETATM    2  O2  UNL     1      30.078   4.447   8.486  1.00  0.00    -0.271 OA
HETATM    3  N6  UNL     1      30.124   6.804   8.199  1.00  0.00    -0.346 N
ATOM      4  H6  UNL     1      30.270   7.571   7.543  1.00  0.00     0.163 HD
ENDROOT
BRANCH   1   5
HETATM    5  C8  UNL     1      30.612   5.110   6.329  1.00  0.00     0.176 C
BRANCH   5   6
HETATM    6  N2  UNL     1      32.015   4.869   6.304  1.00  0.00    -0.346 N
HETATM    7  C7  UNL     1      33.053   5.802   6.406  1.00  0.00     0.252 C
HETATM    8  O1  UNL     1      32.761   7.028   6.544  1.00  0.00    -0.271 OA
ATOM      9  H2  UNL     1      32.299   3.896   6.198  1.00  0.00     0.163 HD
BRANCH   7  10
HETATM   10  C6  UNL     1      34.488   5.448   6.362  1.00  0.00     0.314 C
HETATM   11  N1  UNL     1      34.734   4.133   5.871  1.00  0.00     0.101 N
HETATM   12  C3  UNL     1      34.951   4.166   4.462  1.00  0.00     0.273 C
HETATM   13  C4  UNL     1      35.613   5.511   4.254  1.00  0.00     0.033 C
HETATM   14  C5  UNL     1      35.187   6.363   5.406  1.00  0.00     0.047 C
BRANCH  11  15
HETATM   15  C2  UNL     1      35.903   3.578   6.522  1.00  0.00     0.269 C
HETATM   16  C1  UNL     1      36.332   2.269   5.868  1.00  0.00     0.037 C
ENDBRANCH  11  15
ENDBRANCH   7  10
ENDBRANCH   5   6
BRANCH   5  17
HETATM   17  C9  UNL     1      30.090   6.162   5.424  1.00  0.00     0.035 C
BRANCH  17  18
HETATM   18  C10 UNL     1      30.255   5.796   3.953  1.00  0.00     0.004 C
BRANCH  18  19
HETATM   19  C11 UNL     1      31.174   6.798   3.263  1.00  0.00     0.020 C
BRANCH  19  20
HETATM   20  C12 UNL     1      30.839   8.168   3.833  1.00  0.00     0.122 C
BRANCH  20  21
HETATM   21  N3  UNL     1      29.706   8.733   3.141  1.00  0.00    -0.367 N
HETATM   22  C13 UNL     1      28.743   9.353   3.713  1.00  0.00     0.196 C
HETATM   23  N4  UNL     1      28.742   9.525   5.122  1.00  0.00    -0.067 NA
HETATM   24  N5  UNL     1      27.702   9.836   2.881  1.00  0.00    -0.067 NA
ATOM     25  H3  UNL     1      29.670   8.631   2.126  1.00  0.00     0.161 HD
ENDBRANCH  20  21
ENDBRANCH  19  20
ENDBRANCH  18  19
ENDBRANCH  17  18
ENDBRANCH   5  17
ENDBRANCH   1   5
BRANCH   3  26
HETATM   26  C15 UNL     1      29.791   7.107   9.579  1.00  0.00     0.177 C
BRANCH  26  27
HETATM   27  C16 UNL     1      31.035   7.453  10.335  1.00  0.00     0.039 C
BRANCH  27  28
HETATM   28  C17 UNL     1      31.486   6.438  11.326  1.00  0.00    -0.012 C
HETATM   29  C18 UNL     1      31.980   7.087  12.604  1.00  0.00     0.005 C
HETATM   30  C19 UNL     1      32.435   6.008  13.560  1.00  0.00     0.000 C
HETATM   31  C20 UNL     1      32.539   4.672  12.902  1.00  0.00     0.000 C
HETATM   32  C21 UNL     1      31.316   4.162  12.244  1.00  0.00     0.000 C
HETATM   33  C22 UNL     1      30.562   5.317  11.566  1.00  0.00     0.005 C
ENDBRANCH  27  28
ENDBRANCH  26  27
BRANCH  26  34
HETATM   34  C23 UNL     1      28.686   8.073   9.633  1.00  0.00     0.242 C
HETATM   35  O3  UNL     1      28.149   8.430   8.510  1.00  0.00    -0.271 OA
HETATM   36  N7  UNL     1      28.133   8.665  10.792  1.00  0.00    -0.350 N
HETATM   37  C24 UNL     1      27.076   9.693  10.616  1.00  0.00     0.128 C
HETATM   38  C28 UNL     1      28.533   8.254  12.094  1.00  0.00     0.128 C
HETATM   39  C25 UNL     1      25.862   9.128  11.318  1.00  0.00     0.051 C
HETATM   40  C26 UNL     1      26.219   9.012  12.780  1.00  0.00     0.121 C
HETATM   41  C27 UNL     1      27.403   8.189  13.087  1.00  0.00     0.051 C
BRANCH  40  42
HETATM   42  O4  UNL     1      25.071   8.490  13.413  1.00  0.00    -0.395 OA
ATOM     43  H4  UNL     1      25.138   7.545  13.327  1.00  0.00     0.210 HD
ENDBRANCH  40  42
ENDBRANCH  26  34
ENDBRANCH   3  26
TORSDOF 14
ENDMDL