MODEL 4
REMARK VINA RESULT: -8.961000349      2.638      7.841
REMARK  12 active torsions:
REMARK  status: ('A' for Active; 'I' for Inactive)
REMARK    1  A    between atoms: C2_3  and  C3_5
REMARK    2  A    between atoms: C7_9  and  C8_10
REMARK    3  A    between atoms: C8_10  and  C9_11
REMARK       I    between atoms: C9_11  and  N2_13
REMARK    4  A    between atoms: C13_17  and  C14_18
REMARK       I    between atoms: C14_18  and  N3_20
REMARK    5  A    between atoms: N3_20  and  C15_22
REMARK    6  A    between atoms: C15_22  and  C16_23
REMARK    7  A    between atoms: C15_22  and  C23_30
REMARK    8  A    between atoms: C16_23  and  C17_24
REMARK       I    between atoms: C23_30  and  N4_32
REMARK    9  A    between atoms: N4_32  and  C24_34
REMARK   10  A    between atoms: C24_34  and  C25_35
REMARK   11  A    between atoms: C24_34  and  C29_39
REMARK   12  A    between atoms: C25_35  and  C26_36
ROOT
HETATM    1  C1  UNL     1      31.804  10.957   4.445  1.00  0.00     0.232 C
HETATM    2  N1  UNL     1      30.674  10.246   4.139  1.00  0.00    -0.395 NA
HETATM    3  C2  UNL     1      29.544   9.538   3.834  1.00  0.00     0.294 C
HETATM    4  O1  UNL     1      28.401  10.068   3.614  1.00  0.00    -0.257 OA
ENDROOT
BRANCH   3   5
HETATM    5  C3  UNL     1      29.513   8.047   3.717  1.00  0.00     0.097 C
HETATM    6  C4  UNL     1      28.763   7.570   2.496  1.00  0.00     0.015 C
HETATM    7  C5  UNL     1      29.823   7.409   1.433  1.00  0.00     0.001 C
HETATM    8  C6  UNL     1      31.169   7.464   2.106  1.00  0.00     0.006 C
HETATM    9  C7  UNL     1      30.886   7.440   3.602  1.00  0.00     0.008 C
BRANCH   9  10
HETATM   10  C8  UNL     1      30.797   5.943   3.950  1.00  0.00     0.108 C
BRANCH  10  11
HETATM   11  C9  UNL     1      31.902   5.547   4.855  1.00  0.00     0.220 C
HETATM   12  O2  UNL     1      33.060   5.467   4.362  1.00  0.00    -0.273 OA
HETATM   13  N2  UNL     1      31.604   5.274   6.219  1.00  0.00    -0.339 N
HETATM   14  C10 UNL     1      32.580   4.856   7.181  1.00  0.00     0.127 C
HETATM   15  C13 UNL     1      30.305   5.323   6.808  1.00  0.00     0.179 C
HETATM   16  C11 UNL     1      31.777   4.050   8.202  1.00  0.00     0.022 C
HETATM   17  C12 UNL     1      30.350   4.043   7.674  1.00  0.00     0.037 C
BRANCH  15  18
HETATM   18  C14 UNL     1      29.921   6.478   7.586  1.00  0.00     0.241 C
HETATM   19  O3  UNL     1      30.038   7.629   7.003  1.00  0.00    -0.271 OA
HETATM   20  N3  UNL     1      29.426   6.563   8.900  1.00  0.00    -0.346 N
ATOM     21  H3  UNL     1      29.299   5.681   9.397  1.00  0.00     0.163 HD
BRANCH  20  22
HETATM   22  C15 UNL     1      29.080   7.756   9.614  1.00  0.00     0.177 C
BRANCH  22  23
HETATM   23  C16 UNL     1      27.655   7.945   9.989  1.00  0.00     0.039 C
BRANCH  23  24
HETATM   24  C17 UNL     1      27.068   9.298  10.018  1.00  0.00    -0.012 C
HETATM   25  C18 UNL     1      25.923   9.381  11.031  1.00  0.00     0.005 C
HETATM   26  C19 UNL     1      24.566   9.337  10.362  1.00  0.00     0.000 C
HETATM   27  C20 UNL     1      24.420  10.456   9.350  1.00  0.00     0.000 C
HETATM   28  C21 UNL     1      25.734  11.106   9.052  1.00  0.00     0.000 C
HETATM   29  C22 UNL     1      26.744   9.973   8.737  1.00  0.00     0.005 C
ENDBRANCH  23  24
ENDBRANCH  22  23
BRANCH  22  30
HETATM   30  C23 UNL     1      29.964   7.828  10.827  1.00  0.00     0.241 C
HETATM   31  O4  UNL     1      31.098   8.304  10.713  1.00  0.00    -0.271 OA
HETATM   32  N4  UNL     1      29.485   7.357  12.048  1.00  0.00    -0.346 N
ATOM     33  H4  UNL     1      28.534   6.988  12.050  1.00  0.00     0.163 HD
BRANCH  32  34
HETATM   34  C24 UNL     1      30.189   7.336  13.311  1.00  0.00     0.174 C
BRANCH  34  35
HETATM   35  C25 UNL     1      30.554   5.944  13.731  1.00  0.00     0.038 C
BRANCH  35  36
HETATM   36  C26 UNL     1      32.043   5.739  13.857  1.00  0.00    -0.020 C
HETATM   37  C27 UNL     1      32.551   4.702  12.875  1.00  0.00     0.009 C
HETATM   38  C28 UNL     1      32.803   7.022  13.599  1.00  0.00     0.009 C
ENDBRANCH  35  36
ENDBRANCH  34  35
BRANCH  34  39
HETATM   39  C29 UNL     1      29.301   7.916  14.346  1.00  0.00     0.254 C
HETATM   40  N5  UNL     1      27.921   8.134  14.074  1.00  0.00    -0.060 NA
HETATM   41  O5  UNL     1      29.744   8.230  15.485  1.00  0.00    -0.275 OA
ENDBRANCH  34  39
ENDBRANCH  32  34
ENDBRANCH  22  30
ENDBRANCH  20  22
ENDBRANCH  15  18
ENDBRANCH  10  11
ENDBRANCH   9  10
ENDBRANCH   3   5
TORSDOF 11
ENDMDL