MODEL 3
REMARK VINA RESULT: -8.010309393      3.024      7.937
REMARK  13 active torsions:
REMARK  status: ('A' for Active; 'I' for Inactive)
REMARK       I    between atoms: C2_2  and  N1_4
REMARK       I    between atoms: N1_4  and  C3_5
REMARK    1  A    between atoms: N1_4  and  C23_40
REMARK       I    between atoms: C3_5  and  N2_7
REMARK    2  A    between atoms: N2_7  and  C4_9
REMARK    3  A    between atoms: C4_9  and  C5_10
REMARK    4  A    between atoms: C5_10  and  C6_11
REMARK    5  A    between atoms: C6_11  and  N3_12
REMARK       I    between atoms: N3_12  and  C7_14
REMARK       I    between atoms: C7_14  and  N4_16
REMARK    6  A    between atoms: C10_19  and  C12_21
REMARK    7  A    between atoms: C12_21  and  N5_22
REMARK    8  A    between atoms: N5_22  and  S1_24
REMARK    9  A    between atoms: S1_24  and  C13_27
REMARK   10  A    between atoms: C13_27  and  C14_28
REMARK   11  A    between atoms: C14_28  and  N6_29
REMARK       I    between atoms: N6_29  and  C15_31
REMARK   12  A    between atoms: C15_31  and  C16_33
REMARK   13  A    between atoms: C16_33  and  C17_34
ROOT
HETATM    1  N3  UNL     1      28.115  10.424  14.870  1.00  0.00    -0.343 N
ATOM      2  H3  UNL     1      28.577  11.139  14.307  1.00  0.00     0.164 HD
HETATM    3  C7  UNL     1      27.305   9.457  14.231  1.00  0.00     0.318 C
HETATM    4  O3  UNL     1      26.738   8.582  14.932  1.00  0.00    -0.247 OA
HETATM    5  N4  UNL     1      27.108   9.435  12.839  1.00  0.00    -0.334 N
HETATM    6  C8  UNL     1      27.694  10.375  11.902  1.00  0.00     0.128 C
HETATM    7  C9  UNL     1      28.734   9.621  11.100  1.00  0.00     0.031 C
HETATM    8  C10 UNL     1      28.410   8.191  10.903  1.00  0.00    -0.024 C
HETATM    9  C11 UNL     1      29.231   7.282  11.799  1.00  0.00     0.017 C
HETATM   10  C21 UNL     1      26.943   7.855  11.016  1.00  0.00     0.031 C
HETATM   11  C22 UNL     1      26.262   8.412  12.215  1.00  0.00     0.128 C
ENDROOT
BRANCH   1  12
HETATM   12  C6  UNL     1      28.302  10.421  16.310  1.00  0.00     0.126 C
BRANCH  12  13
HETATM   13  C5  UNL     1      29.667  10.640  16.773  1.00  0.00     0.039 C
BRANCH  13  14
HETATM   14  C4  UNL     1      30.543   9.637  17.352  1.00  0.00     0.126 C
BRANCH  14  15
HETATM   15  N2  UNL     1      31.046   8.577  16.546  1.00  0.00    -0.343 N
HETATM   16  C3  UNL     1      30.446   7.405  16.073  1.00  0.00     0.325 C
HETATM   17  N1  UNL     1      31.085   6.421  15.226  1.00  0.00    -0.266 N
HETATM   18  O2  UNL     1      29.273   7.157  16.382  1.00  0.00    -0.247 OA
HETATM   19  C2  UNL     1      30.395   5.264  14.806  1.00  0.00     0.224 C
HETATM   20  C1  UNL     1      28.997   4.958  15.185  1.00  0.00     0.117 C
HETATM   21  O1  UNL     1      30.956   4.418  14.070  1.00  0.00    -0.273 OA
ATOM     22  H2  UNL     1      32.019   8.692  16.262  1.00  0.00     0.164 HD
BRANCH  17  23
HETATM   23  C23 UNL     1      32.449   6.642  14.815  1.00  0.00     0.097 A
HETATM   24  C24 UNL     1      32.759   7.736  13.777  1.00  0.00     0.028 A
HETATM   25  C25 UNL     1      32.863   6.295  13.407  1.00  0.00     0.028 A
ENDBRANCH  17  23
ENDBRANCH  14  15
ENDBRANCH  13  14
ENDBRANCH  12  13
ENDBRANCH   1  12
BRANCH   8  26
HETATM   26  C12 UNL     1      28.795   7.806   9.463  1.00  0.00     0.141 C
BRANCH  26  27
HETATM   27  N5  UNL     1      29.017   6.409   9.320  1.00  0.00    -0.315 N
ATOM     28  H5  UNL     1      28.416   5.660   9.663  1.00  0.00     0.172 HD
BRANCH  27  29
HETATM   29  S1  UNL     1      30.551   6.219   8.421  1.00  0.00     0.250 S
HETATM   30  O4  UNL     1      31.014   4.866   8.926  1.00  0.00    -0.201 OA
HETATM   31  O5  UNL     1      31.435   7.343   8.863  1.00  0.00    -0.201 OA
BRANCH  29  32
HETATM   32  C13 UNL     1      30.128   6.263   6.748  1.00  0.00     0.148 C
BRANCH  32  33
HETATM   33  C14 UNL     1      30.729   5.429   5.716  1.00  0.00     0.104 C
BRANCH  33  34
HETATM   34  N6  UNL     1      32.019   4.925   5.873  1.00  0.00    -0.337 N
HETATM   35  C15 UNL     1      33.163   5.161   5.125  1.00  0.00     0.221 C
HETATM   36  O6  UNL     1      33.163   5.886   4.114  1.00  0.00    -0.273 OA
ATOM     37  H6  UNL     1      32.140   4.286   6.659  1.00  0.00     0.168 HD
BRANCH  35  38
HETATM   38  C16 UNL     1      34.484   4.535   5.512  1.00  0.00     0.108 C
BRANCH  38  39
HETATM   39  C17 UNL     1      34.819   3.426   4.575  1.00  0.00    -0.002 A
HETATM   40  C18 UNL     1      36.190   3.519   3.929  1.00  0.00     0.010 A
HETATM   41  C19 UNL     1      35.856   2.417   4.876  1.00  0.00    -0.014 A
HETATM   42  C20 UNL     1      36.632   2.409   6.156  1.00  0.00     0.010 C
ENDBRANCH  38  39
ENDBRANCH  35  38
ENDBRANCH  33  34
ENDBRANCH  32  33
ENDBRANCH  29  32
ENDBRANCH  27  29
ENDBRANCH  26  27
ENDBRANCH   8  26
TORSDOF 13
ENDMDL