MODEL 2
REMARK VINA RESULT: -8.741752209      0.841      1.024
REMARK  17 active torsions:
REMARK  status: ('A' for Active; 'I' for Inactive)
REMARK    1  A    between atoms: C2_2  and  C3_3
REMARK    2  A    between atoms: C3_3  and  C4_4
REMARK    3  A    between atoms: C4_4  and  C5_5
REMARK    4  A    between atoms: C5_5  and  N1_6
REMARK    5  A    between atoms: C5_5  and  C24_37
REMARK       I    between atoms: N1_6  and  C6_8
REMARK    6  A    between atoms: C6_8  and  C7_10
REMARK    7  A    between atoms: C7_10  and  C8_11
REMARK       I    between atoms: C8_11  and  N2_13
REMARK    8  A    between atoms: N2_13  and  C9_15
REMARK    9  A    between atoms: C9_15  and  C10_16
REMARK   10  A    between atoms: C9_15  and  C14_24
REMARK   11  A    between atoms: C10_16  and  C11_17
REMARK   12  A    between atoms: C11_17  and  C12_18
REMARK   13  A    between atoms: C12_18  and  N3_19
REMARK   14  A    between atoms: C14_24  and  O3_25
REMARK   15  A    between atoms: C14_24  and  N6_27
REMARK   16  A    between atoms: C24_37  and  O4_38
REMARK   17  A    between atoms: C24_37  and  N7_40
ROOT
HETATM    1  C8  UNL     1      29.181   6.934   5.510  1.00  0.00     0.227 C
HETATM    2  O2  UNL     1      29.851   6.635   4.442  1.00  0.00    -0.273 OA
HETATM    3  N2  UNL     1      29.610   6.335   6.689  1.00  0.00    -0.349 N
ATOM      4  H2  UNL     1      29.098   6.555   7.544  1.00  0.00     0.163 HD
ENDROOT
BRANCH   3   5
HETATM    5  C9  UNL     1      30.742   5.411   6.792  1.00  0.00     0.159 C
BRANCH   5   6
HETATM    6  C10 UNL     1      32.027   6.231   6.896  1.00  0.00     0.035 C
BRANCH   6   7
HETATM    7  C11 UNL     1      33.217   5.274   6.945  1.00  0.00     0.022 C
BRANCH   7   8
HETATM    8  C12 UNL     1      33.574   4.793   5.561  1.00  0.00     0.122 C
BRANCH   8   9
HETATM    9  N3  UNL     1      34.408   3.611   5.720  1.00  0.00    -0.367 N
HETATM   10  C13 UNL     1      35.246   3.221   4.824  1.00  0.00     0.196 C
HETATM   11  N4  UNL     1      35.438   3.897   3.606  1.00  0.00    -0.067 NA
HETATM   12  N5  UNL     1      35.978   2.031   5.142  1.00  0.00    -0.067 NA
ATOM     13  H3  UNL     1      34.324   3.068   6.580  1.00  0.00     0.161 HD
ENDBRANCH   8   9
ENDBRANCH   7   8
ENDBRANCH   6   7
ENDBRANCH   5   6
BRANCH   5  14
HETATM   14  C14 UNL     1      30.543   4.531   7.968  1.00  0.00     0.137 C
BRANCH  14  15
HETATM   15  O3  UNL     1      30.152   3.307   7.738  1.00  0.00    -0.348 OA
ATOM     16  H3  UNL     1      29.550   3.173   7.015  1.00  0.00     0.219 HD
ENDBRANCH  14  15
BRANCH  14  17
HETATM   17  N6  UNL     1      30.726   4.850   9.319  1.00  0.00    -0.364 N
HETATM   18  C15 UNL     1      30.228   6.067   9.896  1.00  0.00     0.125 C
HETATM   19  C16 UNL     1      31.120   6.534  11.058  1.00  0.00     0.029 C
HETATM   20  C17 UNL     1      31.136   5.495  12.140  1.00  0.00    -0.037 C
HETATM   21  C18 UNL     1      32.341   5.515  13.023  1.00  0.00     0.010 C
HETATM   22  C21 UNL     1      30.029   5.874  13.127  1.00  0.00     0.010 C
HETATM   23  C22 UNL     1      30.864   4.111  11.605  1.00  0.00     0.029 C
HETATM   24  C19 UNL     1      31.895   4.888  14.336  1.00  0.00     0.001 C
HETATM   25  C20 UNL     1      30.475   5.362  14.466  1.00  0.00     0.001 C
HETATM   26  C23 UNL     1      31.449   3.949  10.224  1.00  0.00     0.125 C
ENDBRANCH  14  17
ENDBRANCH   5  14
ENDBRANCH   3   5
BRANCH   1  27
HETATM   27  C7  UNL     1      28.036   7.862   5.426  1.00  0.00     0.205 C
BRANCH  27  28
HETATM   28  C6  UNL     1      28.068   8.930   6.457  1.00  0.00     0.227 C
HETATM   29  N1  UNL     1      27.665   8.660   7.801  1.00  0.00    -0.349 N
ATOM     30  H1  UNL     1      27.343   7.722   8.037  1.00  0.00     0.163 HD
HETATM   31  O1  UNL     1      28.452  10.071   6.129  1.00  0.00    -0.273 OA
BRANCH  29  32
HETATM   32  C5  UNL     1      27.695   9.679   8.850  1.00  0.00     0.159 C
BRANCH  32  33
HETATM   33  C4  UNL     1      28.107   9.145  10.153  1.00  0.00     0.033 C
BRANCH  33  34
HETATM   34  C3  UNL     1      28.565  10.214  11.130  1.00  0.00     0.002 C
BRANCH  34  35
HETATM   35  C2  UNL     1      29.229   9.522  12.307  1.00  0.00    -0.004 C
HETATM   36  C1  UNL     1      30.654   9.942  12.510  1.00  0.00     0.005 C
ENDBRANCH  34  35
ENDBRANCH  33  34
ENDBRANCH  32  33
BRANCH  32  37
HETATM   37  C24 UNL     1      26.462  10.457   8.874  1.00  0.00     0.137 C
BRANCH  37  38
HETATM   38  O4  UNL     1      26.555  11.563   8.174  1.00  0.00    -0.348 OA
ATOM     39  H4  UNL     1      26.392  11.419   7.249  1.00  0.00     0.219 HD
ENDBRANCH  37  38
BRANCH  37  40
HETATM   40  N7  UNL     1      25.227  10.275   9.474  1.00  0.00    -0.364 N
HETATM   41  C25 UNL     1      24.715   9.339  10.400  1.00  0.00     0.124 C
HETATM   42  C26 UNL     1      23.572  10.083  11.139  1.00  0.00     0.021 C
HETATM   43  C27 UNL     1      23.709  11.510  10.657  1.00  0.00     0.021 C
HETATM   44  C28 UNL     1      24.107  11.215   9.199  1.00  0.00     0.124 C
ENDBRANCH  37  40
ENDBRANCH  32  37
ENDBRANCH  29  32
ENDBRANCH  27  28
ENDBRANCH   1  27
TORSDOF 17
ENDMDL