MODEL 5
REMARK VINA RESULT: -8.205673793      1.917      7.651
REMARK  15 active torsions:
REMARK  status: ('A' for Active; 'I' for Inactive)
REMARK    1  A    between atoms: C2_2  and  C4_4
REMARK    2  A    between atoms: C4_4  and  C5_5
REMARK    3  A    between atoms: C5_5  and  N1_6
REMARK    4  A    between atoms: C5_5  and  C6_10
REMARK       I    between atoms: C6_10  and  N2_12
REMARK    5  A    between atoms: C10_16  and  C11_17
REMARK    6  A    between atoms: C11_17  and  N3_18
REMARK    7  A    between atoms: C15_22  and  C16_23
REMARK       I    between atoms: C16_23  and  N4_25
REMARK    8  A    between atoms: N4_25  and  C17_27
REMARK    9  A    between atoms: C17_27  and  C18_28
REMARK   10  A    between atoms: C17_27  and  C31_44
REMARK   11  A    between atoms: C18_28  and  C19_29
REMARK   12  A    between atoms: C19_29  and  C20_30
REMARK   13  A    between atoms: C20_30  and  C21_31
REMARK   14  A    between atoms: C21_31  and  N5_32
REMARK   15  A    between atoms: N5_32  and  C22_35
ROOT
HETATM    1  C16 UNL     1      28.558   7.694  12.331  1.00  0.00     0.252 C
HETATM    2  O2  UNL     1      28.624   6.454  12.479  1.00  0.00    -0.271 OA
HETATM    3  N4  UNL     1      28.010   8.475  13.375  1.00  0.00    -0.346 N
ATOM      4  H4  UNL     1      27.958   9.485  13.245  1.00  0.00     0.163 HD
ENDROOT
BRANCH   1   5
HETATM    5  C15 UNL     1      29.047   8.353  11.073  1.00  0.00     0.314 C
HETATM    6  N3  UNL     1      28.417   7.761   9.941  1.00  0.00     0.104 N
HETATM    7  C12 UNL     1      27.314   8.647   9.559  1.00  0.00     0.273 C
HETATM    8  C13 UNL     1      27.490   9.935  10.284  1.00  0.00     0.033 C
HETATM    9  C14 UNL     1      28.729   9.816  11.115  1.00  0.00     0.047 C
BRANCH   6  10
HETATM   10  C11 UNL     1      29.260   7.655   8.759  1.00  0.00     0.298 C
BRANCH  10  11
HETATM   11  C10 UNL     1      30.201   6.516   8.808  1.00  0.00     0.115 C
HETATM   12  N2  UNL     1      30.586   6.101   7.486  1.00  0.00    -0.344 N
HETATM   13  C6  UNL     1      30.333   6.615   6.198  1.00  0.00     0.250 C
HETATM   14  C7  UNL     1      31.392   4.881   7.757  1.00  0.00     0.126 C
HETATM   15  O1  UNL     1      29.627   7.626   6.053  1.00  0.00    -0.271 OA
HETATM   16  C8  UNL     1      30.487   4.148   8.739  1.00  0.00     0.022 C
HETATM   17  C9  UNL     1      29.601   5.227   9.339  1.00  0.00     0.029 C
BRANCH  13  18
HETATM   18  C5  UNL     1      30.905   5.956   4.972  1.00  0.00     0.275 C
BRANCH  18  19
HETATM   19  C4  UNL     1      31.076   6.952   3.845  1.00  0.00     0.046 C
BRANCH  19  20
HETATM   20  C2  UNL     1      29.997   6.872   2.819  1.00  0.00    -0.020 C
HETATM   21  C1  UNL     1      29.096   8.089   2.818  1.00  0.00     0.009 C
HETATM   22  C3  UNL     1      30.475   6.559   1.439  1.00  0.00     0.009 C
ENDBRANCH  19  20
ENDBRANCH  18  19
BRANCH  18  23
HETATM   23  N1  UNL     1      29.942   4.952   4.546  1.00  0.00    -0.066 N
ATOM     24  H13 UNL     1      29.249   5.321   3.896  1.00  0.00     0.275 HD
ATOM     25  H12 UNL     1      30.351   4.252   3.926  1.00  0.00     0.275 HD
ATOM     26  H11 UNL     1      29.522   4.542   5.380  1.00  0.00     0.275 HD
ENDBRANCH  18  23
ENDBRANCH  13  18
ENDBRANCH  10  11
ENDBRANCH   6  10
ENDBRANCH   1   5
BRANCH   3  27
HETATM   27  C17 UNL     1      27.514   7.913  14.632  1.00  0.00     0.173 C
BRANCH  27  28
HETATM   28  C18 UNL     1      27.739   8.942  15.680  1.00  0.00     0.034 C
BRANCH  28  29
HETATM   29  C19 UNL     1      28.369  10.214  15.247  1.00  0.00     0.004 C
BRANCH  29  30
HETATM   30  C20 UNL     1      29.776  10.419  15.756  1.00  0.00     0.027 C
BRANCH  30  31
HETATM   31  C21 UNL     1      30.094   9.477  16.892  1.00  0.00     0.232 C
BRANCH  31  32
HETATM   32  N5  UNL     1      31.362   8.808  16.761  1.00  0.00    -0.070 N
ATOM     33  H52 UNL     1      32.148   9.459  16.753  1.00  0.00     0.277 HD
ATOM     34  H51 UNL     1      31.618   8.289  17.601  1.00  0.00     0.277 HD
BRANCH  32  35
HETATM   35  C22 UNL     1      31.325   7.974  15.587  1.00  0.00     0.191 C
HETATM   36  C23 UNL     1      30.845   6.578  15.749  1.00  0.00     0.043 C
HETATM   37  C24 UNL     1      32.182   5.987  15.261  1.00  0.00    -0.028 A
HETATM   38  C25 UNL     1      31.968   4.714  14.605  1.00  0.00     0.015 C
HETATM   39  C29 UNL     1      32.827   6.729  14.010  1.00  0.00     0.006 A
HETATM   40  C30 UNL     1      32.655   7.255  15.298  1.00  0.00     0.030 A
HETATM   41  C26 UNL     1      32.389   4.740  13.184  1.00  0.00    -0.009 A
HETATM   42  C27 UNL     1      31.891   5.263  11.990  1.00  0.00     0.010 A
HETATM   43  C28 UNL     1      31.877   6.236  13.013  1.00  0.00    -0.005 A
ENDBRANCH  32  35
ENDBRANCH  31  32
ENDBRANCH  30  31
ENDBRANCH  29  30
ENDBRANCH  28  29
ENDBRANCH  27  28
BRANCH  27  44
HETATM   44  C31 UNL     1      26.103   7.478  14.489  1.00  0.00     0.254 C
HETATM   45  N6  UNL     1      25.659   6.154  14.456  1.00  0.00    -0.060 NA
HETATM   46  O3  UNL     1      25.194   8.374  14.386  1.00  0.00    -0.275 OA
ENDBRANCH  27  44
ENDBRANCH   3  27
TORSDOF 15
ENDMDL