MODEL 1
REMARK VINA RESULT: -7.759458154      0.000      0.000
REMARK  7 active torsions:
REMARK  status: ('A' for Active; 'I' for Inactive)
REMARK       I    between atoms: C1_4  and  N3_6
REMARK    1  A    between atoms: N3_6  and  C2_8
REMARK    2  A    between atoms: C2_8  and  C3_9
REMARK    3  A    between atoms: C3_9  and  C4_10
REMARK    4  A    between atoms: C4_10  and  N4_11
REMARK    5  A    between atoms: C4_10  and  C5_15
REMARK       I    between atoms: C5_15  and  N5_17
REMARK    6  A    between atoms: N5_17  and  C6_19
REMARK    7  A    between atoms: C6_19  and  N6_20
ROOT
HETATM    1  C5  UNL     1     -31.643 -58.664  10.305  1.00  0.00     0.249 C
HETATM    2  O1  UNL     1     -32.440 -59.226   9.518  1.00  0.00    -0.271 OA
HETATM    3  N5  UNL     1     -31.647 -57.222  10.269  1.00  0.00    -0.346 N
ATOM      4  H5  UNL     1     -31.015 -56.719  10.892  1.00  0.00     0.163 HD
ENDROOT
BRANCH   3   5
HETATM    5  C6  UNL     1     -32.492 -56.468   9.404  1.00  0.00     0.238 C
BRANCH   5   6
HETATM    6  N6  UNL     1     -31.799 -55.937   8.250  1.00  0.00    -0.202 NA
HETATM    7  C7  UNL     1     -32.366 -54.653   7.933  1.00  0.00     0.218 C
HETATM    8  C8  UNL     1     -31.757 -54.016   6.736  1.00  0.00     0.233 C
HETATM    9  O2  UNL     1     -31.169 -52.884   6.896  1.00  0.00    -0.272 OA
HETATM   10  N7  UNL     1     -31.761 -54.533   5.435  1.00  0.00    -0.344 N
HETATM   11  C9  UNL     1     -32.898 -55.026   4.691  1.00  0.00     0.249 C
ATOM     12  H7  UNL     1     -30.859 -54.565   4.959  1.00  0.00     0.164 HD
HETATM   13  N8  UNL     1     -33.992 -55.468   5.529  1.00  0.00    -0.337 N
HETATM   14  C10 UNL     1     -34.034 -56.762   6.138  1.00  0.00     0.311 C
ATOM     15  H8  UNL     1     -34.768 -54.827   5.694  1.00  0.00     0.164 HD
HETATM   16  O3  UNL     1     -35.168 -57.313   6.306  1.00  0.00    -0.262 OA
HETATM   17  C11 UNL     1     -32.835 -57.471   6.573  1.00  0.00     0.323 C
HETATM   18  O4  UNL     1     -32.819 -58.729   6.327  1.00  0.00    -0.261 OA
HETATM   19  N9  UNL     1     -31.737 -56.843   7.227  1.00  0.00    -0.279 N
ATOM     20  H9  UNL     1     -30.806 -57.096   6.897  1.00  0.00     0.184 HD
ENDBRANCH   5   6
ENDBRANCH   3   5
BRANCH   1  21
HETATM   21  C4  UNL     1     -30.769 -59.425  11.197  1.00  0.00     0.276 C
BRANCH  21  22
HETATM   22  C3  UNL     1     -29.604 -60.073  10.527  1.00  0.00     0.062 C
BRANCH  22  23
HETATM   23  C2  UNL     1     -29.108 -59.284   9.365  1.00  0.00     0.125 C
BRANCH  23  24
HETATM   24  N3  UNL     1     -28.151 -58.266   9.763  1.00  0.00    -0.365 N
HETATM   25  C1  UNL     1     -28.389 -56.886   9.622  1.00  0.00     0.181 C
HETATM   26  N1  UNL     1     -28.494 -56.376   8.447  1.00  0.00    -0.374 N
HETATM   27  N2  UNL     1     -28.521 -56.021  10.735  1.00  0.00    -0.064 NA
ATOM     28  H12 UNL     1     -28.666 -55.375   8.345  1.00  0.00     0.158 HD
ATOM     29  H11 UNL     1     -28.398 -56.999   7.645  1.00  0.00     0.158 HD
ATOM     30  H3  UNL     1     -27.263 -58.567  10.163  1.00  0.00     0.162 HD
ENDBRANCH  23  24
ENDBRANCH  22  23
ENDBRANCH  21  22
BRANCH  21  31
HETATM   31  N4  UNL     1     -30.292 -58.496  12.222  1.00  0.00    -0.066 N
ATOM     32  H43 UNL     1     -29.300 -58.623  12.425  1.00  0.00     0.275 HD
ATOM     33  H42 UNL     1     -30.250 -57.536  11.882  1.00  0.00     0.275 HD
ATOM     34  H41 UNL     1     -30.869 -58.583  13.059  1.00  0.00     0.275 HD
ENDBRANCH  21  31
ENDBRANCH   1  21
TORSDOF 7
ENDMDL