MODEL 4
REMARK VINA RESULT: -7.859364682      2.173      6.254
REMARK  7 active torsions:
REMARK  status: ('A' for Active; 'I' for Inactive)
REMARK       I    between atoms: C1_4  and  N3_6
REMARK    1  A    between atoms: N4_9  and  C4_10
REMARK    2  A    between atoms: C4_10  and  C5_11
REMARK    3  A    between atoms: C5_11  and  N8_18
REMARK    4  A    between atoms: N5_12  and  N6_14
REMARK    5  A    between atoms: N8_18  and  C7_20
REMARK    6  A    between atoms: C7_20  and  C8_21
REMARK       I    between atoms: C8_21  and  N9_23
REMARK    7  A    between atoms: N9_23  and  N10_25
ROOT
HETATM    1  C5  UNL     1     -29.442 -57.358  10.987  1.00  0.00     0.106 C
HETATM    2  N5  UNL     1     -30.111 -56.513  11.695  1.00  0.00    -0.288 N
ATOM      3  H5  UNL     1     -30.115 -55.527  11.434  1.00  0.00     0.188 HD
ENDROOT
BRANCH   1   4
HETATM    4  C4  UNL     1     -28.709 -56.824   9.821  1.00  0.00     0.187 C
BRANCH   4   5
HETATM    5  N4  UNL     1     -29.385 -55.842   9.047  1.00  0.00    -0.225 NA
HETATM    6  C3  UNL     1     -28.680 -55.248   7.972  1.00  0.00     0.130 C
HETATM    7  C2  UNL     1     -29.527 -54.542   6.960  1.00  0.00     0.143 C
HETATM    8  N3  UNL     1     -30.940 -54.629   7.191  1.00  0.00    -0.340 N
HETATM    9  C1  UNL     1     -31.819 -54.095   6.221  1.00  0.00     0.185 C
HETATM   10  C10 UNL     1     -31.487 -55.243   8.378  1.00  0.00     0.255 C
HETATM   11  N1  UNL     1     -31.399 -53.233   5.377  1.00  0.00    -0.374 N
HETATM   12  N2  UNL     1     -33.191 -54.485   6.140  1.00  0.00    -0.064 NA
ATOM     13  H12 UNL     1     -32.034 -52.848   4.677  1.00  0.00     0.158 HD
ATOM     14  H11 UNL     1     -30.420 -52.954   5.436  1.00  0.00     0.158 HD
HETATM   15  N13 UNL     1     -30.613 -56.385   8.653  1.00  0.00    -0.145 NA
ENDBRANCH   4   5
ENDBRANCH   1   4
BRANCH   1  16
HETATM   16  N8  UNL     1     -29.449 -58.705  11.379  1.00  0.00    -0.369 N
ATOM     17  H8  UNL     1     -28.706 -58.994  12.017  1.00  0.00     0.161 HD
BRANCH  16  18
HETATM   18  C7  UNL     1     -30.377 -59.722  10.988  1.00  0.00     0.225 C
BRANCH  18  19
HETATM   19  C8  UNL     1     -31.058 -59.499   9.695  1.00  0.00     0.253 C
HETATM   20  O1  UNL     1     -30.588 -59.798   8.576  1.00  0.00    -0.270 OA
HETATM   21  N9  UNL     1     -32.345 -58.900   9.738  1.00  0.00    -0.267 N
ATOM     22  H9  UNL     1     -32.770 -58.639  10.628  1.00  0.00     0.190 HD
BRANCH  21  23
HETATM   23  N10 UNL     1     -33.015 -58.677   8.531  1.00  0.00    -0.273 N
HETATM   24  C9  UNL     1     -34.288 -58.895   8.503  1.00  0.00     0.215 C
HETATM   25  N11 UNL     1     -35.009 -59.342   9.631  1.00  0.00    -0.065 NA
HETATM   26  N12 UNL     1     -34.960 -58.667   7.275  1.00  0.00    -0.065 NA
ATOM     27  H10 UNL     1     -32.516 -58.353   7.702  1.00  0.00     0.189 HD
ENDBRANCH  21  23
ENDBRANCH  18  19
ENDBRANCH  16  18
ENDBRANCH   1  16
BRANCH   2  28
HETATM   28  N6  UNL     1     -30.817 -56.926  12.793  1.00  0.00    -0.297 N
HETATM   29  C6  UNL     1     -32.083 -56.900  12.857  1.00  0.00     0.206 C
HETATM   30  N7  UNL     1     -32.937 -56.454  11.837  1.00  0.00    -0.095 NA
ATOM     31  H6  UNL     1     -30.298 -57.273  13.600  1.00  0.00     0.187 HD
ENDBRANCH   2  28
TORSDOF 7
ENDMDL