MODEL 1
REMARK VINA RESULT: -7.566492528      0.000      0.000
REMARK  10 active torsions:
REMARK  status: ('A' for Active; 'I' for Inactive)
REMARK    1  A    between atoms: N1_2  and  C4_5
REMARK    2  A    between atoms: C4_5  and  C5_6
REMARK       I    between atoms: C5_6  and  N2_8
REMARK    3  A    between atoms: N2_8  and  C6_10
REMARK    4  A    between atoms: C6_10  and  C7_11
REMARK    5  A    between atoms: C6_10  and  C11_27
REMARK    6  A    between atoms: C7_11  and  N3_12
REMARK    7  A    between atoms: N3_12  and  C8_14
REMARK    8  A    between atoms: C9_17  and  N5_18
REMARK       I    between atoms: C11_27  and  N8_29
REMARK    9  A    between atoms: N8_29  and  N9_31
REMARK   10  A    between atoms: N9_31  and  N10_33
ROOT
HETATM    1  C6  UNL     1     -30.255 -54.304   6.604  1.00  0.00     0.196 C
ENDROOT
BRANCH   1   2
HETATM    2  N2  UNL     1     -31.252 -55.328   6.624  1.00  0.00    -0.345 N
HETATM    3  C5  UNL     1     -32.206 -55.443   7.699  1.00  0.00     0.244 C
HETATM    4  O1  UNL     1     -32.137 -54.604   8.632  1.00  0.00    -0.272 OA
ATOM      5  H2  UNL     1     -31.290 -55.997   5.855  1.00  0.00     0.163 HD
BRANCH   3   6
HETATM    6  C4  UNL     1     -33.228 -56.481   7.736  1.00  0.00     0.338 C
BRANCH   6   7
HETATM    7  N1  UNL     1     -34.569 -56.105   7.501  1.00  0.00    -0.070 N
HETATM    8  C1  UNL     1     -35.339 -55.648   8.611  1.00  0.00     0.272 C
HETATM    9  C2  UNL     1     -35.269 -57.296   6.972  1.00  0.00     0.272 C
HETATM   10  C3  UNL     1     -34.705 -55.113   6.436  1.00  0.00     0.272 C
ENDBRANCH   6   7
ENDBRANCH   3   6
ENDBRANCH   1   2
BRANCH   1  11
HETATM   11  C7  UNL     1     -28.893 -54.737   7.082  1.00  0.00     0.173 C
BRANCH  11  12
HETATM   12  N3  UNL     1     -28.805 -54.931   8.483  1.00  0.00    -0.223 N
ATOM     13  H3  UNL     1     -28.641 -54.095   9.042  1.00  0.00     0.177 HD
BRANCH  12  14
HETATM   14  C8  UNL     1     -28.909 -56.037   9.132  1.00  0.00     0.696 A
HETATM   15  N4  UNL     1     -28.042 -57.002   8.783  1.00  0.00    -0.022 N
HETATM   16  C9  UNL     1     -28.050 -58.203   9.391  1.00  0.00     0.694 A
ATOM     17  H4  UNL     1     -27.364 -56.821   8.043  1.00  0.00     0.203 HD
HETATM   18  N6  UNL     1     -28.966 -58.398  10.364  1.00  0.00    -0.141 N
HETATM   19  C10 UNL     1     -29.827 -57.449  10.714  1.00  0.00     0.352 A
ATOM     20  H6  UNL     1     -28.998 -59.298  10.844  1.00  0.00     0.189 HD
HETATM   21  O2  UNL     1     -30.692 -57.613  11.621  1.00  0.00    -0.246 OA
HETATM   22  N7  UNL     1     -29.827 -56.228  10.103  1.00  0.00    -0.140 N
ATOM     23  H7  UNL     1     -30.487 -55.497  10.367  1.00  0.00     0.189 HD
BRANCH  16  24
HETATM   24  N5  UNL     1     -27.236 -59.141   9.077  1.00  0.00    -0.234 N
ATOM     25  H52 UNL     1     -26.694 -59.613   9.801  1.00  0.00     0.174 HD
ATOM     26  H51 UNL     1     -27.097 -59.449   8.115  1.00  0.00     0.174 HD
ENDBRANCH  16  24
ENDBRANCH  12  14
ENDBRANCH  11  12
ENDBRANCH   1  11
BRANCH   1  27
HETATM   27  C11 UNL     1     -30.053 -53.802   5.180  1.00  0.00     0.261 C
HETATM   28  O3  UNL     1     -30.315 -52.595   4.981  1.00  0.00    -0.269 OA
HETATM   29  N8  UNL     1     -29.595 -54.655   4.162  1.00  0.00    -0.254 N
ATOM     30  H8  UNL     1     -29.399 -55.629   4.392  1.00  0.00     0.191 HD
BRANCH  29  31
HETATM   31  N9  UNL     1     -29.401 -54.233   2.874  1.00  0.00    -0.247 N
ATOM     32  H9  UNL     1     -28.545 -54.448   2.363  1.00  0.00     0.207 HD
BRANCH  31  33
HETATM   33  N10 UNL     1     -30.417 -53.505   2.303  1.00  0.00    -0.331 N
ATOM     34 2H10 UNL     1     -30.623 -52.559   2.622  1.00  0.00     0.178 HD
ATOM     35 1H10 UNL     1     -30.942 -53.960   1.557  1.00  0.00     0.178 HD
ENDBRANCH  31  33
ENDBRANCH  29  31
ENDBRANCH   1  27
TORSDOF 10
ENDMDL