MODEL 2
REMARK VINA RESULT: -8.430835163      2.513      6.234
REMARK  6 active torsions:
REMARK  status: ('A' for Active; 'I' for Inactive)
REMARK    1  A    between atoms: N3_4  and  C2_6
REMARK    2  A    between atoms: C2_6  and  C3_7
REMARK    3  A    between atoms: C3_7  and  C4_8
REMARK    4  A    between atoms: C4_8  and  C5_9
REMARK    5  A    between atoms: C7_14  and  C8_15
REMARK    6  A    between atoms: C8_15  and  N5_16
ROOT
HETATM    1  C5  UNL     1     -33.059 -58.127   8.726  1.00  0.00     0.176 C
HETATM    2  N4  UNL     1     -33.457 -56.775   9.113  1.00  0.00    -0.346 N
ATOM      3  H4  UNL     1     -34.143 -56.706   9.865  1.00  0.00     0.163 HD
HETATM    4  C6  UNL     1     -33.012 -55.569   8.577  1.00  0.00     0.242 C
HETATM    5  O1  UNL     1     -32.511 -54.714   9.407  1.00  0.00    -0.271 OA
HETATM    6  C7  UNL     1     -33.034 -55.126   7.163  1.00  0.00     0.194 C
HETATM    7  N8  UNL     1     -34.132 -55.586   6.380  1.00  0.00    -0.345 N
ATOM      8  H8  UNL     1     -34.547 -54.890   5.760  1.00  0.00     0.163 HD
HETATM    9  C10 UNL     1     -34.725 -56.852   6.338  1.00  0.00     0.236 C
HETATM   10  O2  UNL     1     -35.977 -56.967   6.607  1.00  0.00    -0.272 OA
HETATM   11  C11 UNL     1     -34.072 -58.150   6.006  1.00  0.00     0.225 C
HETATM   12  N9  UNL     1     -34.547 -59.115   6.968  1.00  0.00    -0.351 N
ATOM     13  H9  UNL     1     -35.081 -59.928   6.658  1.00  0.00     0.163 HD
HETATM   14  C12 UNL     1     -34.270 -58.928   8.337  1.00  0.00     0.240 C
HETATM   15  O3  UNL     1     -35.013 -59.418   9.238  1.00  0.00    -0.271 OA
ENDROOT
BRANCH   1  16
HETATM   16  C4  UNL     1     -32.426 -58.802   9.923  1.00  0.00     0.036 C
BRANCH  16  17
HETATM   17  C3  UNL     1     -32.103 -57.893  11.054  1.00  0.00     0.022 C
BRANCH  17  18
HETATM   18  C2  UNL     1     -30.626 -57.773  11.217  1.00  0.00     0.122 C
BRANCH  18  19
HETATM   19  N3  UNL     1     -30.127 -56.483  10.718  1.00  0.00    -0.367 N
HETATM   20  C1  UNL     1     -29.386 -56.518   9.666  1.00  0.00     0.196 C
HETATM   21  N1  UNL     1     -28.866 -55.294   9.128  1.00  0.00    -0.067 NA
HETATM   22  N2  UNL     1     -29.056 -57.732   9.007  1.00  0.00    -0.067 NA
ATOM     23  H3  UNL     1     -30.356 -55.604  11.183  1.00  0.00     0.161 HD
ENDBRANCH  18  19
ENDBRANCH  17  18
ENDBRANCH  16  17
ENDBRANCH   1  16
BRANCH   6  24
HETATM   24  C8  UNL     1     -31.698 -55.391   6.464  1.00  0.00     0.156 C
BRANCH  24  25
HETATM   25  N5  UNL     1     -30.671 -54.491   6.991  1.00  0.00    -0.364 N
HETATM   26  C9  UNL     1     -30.280 -53.536   6.218  1.00  0.00     0.197 C
HETATM   27  N6  UNL     1     -29.273 -52.597   6.644  1.00  0.00    -0.067 NA
HETATM   28  N7  UNL     1     -30.794 -53.338   4.917  1.00  0.00    -0.067 NA
ATOM     29  H5  UNL     1     -30.282 -54.614   7.926  1.00  0.00     0.161 HD
ENDBRANCH  24  25
ENDBRANCH   6  24
TORSDOF 6
ENDMDL