MODEL 2
REMARK VINA RESULT: -8.305539777      0.795      1.172
REMARK  7 active torsions:
REMARK  status: ('A' for Active; 'I' for Inactive)
REMARK    1  A    between atoms: C3_3  and  C4_4
REMARK    2  A    between atoms: C4_4  and  C5_5
REMARK    3  A    between atoms: C5_5  and  C6_6
REMARK    4  A    between atoms: C6_6  and  N1_7
REMARK    5  A    between atoms: C6_6  and  C13_28
REMARK    6  A    between atoms: N1_7  and  N2_8
REMARK    7  A    between atoms: N2_8  and  C7_10
ROOT
HETATM    1  C1  UNL     1     -34.748 -59.824   5.646  1.00  0.00     0.012 C
HETATM    2  C2  UNL     1     -34.072 -58.844   5.833  1.00  0.00    -0.117 C
HETATM    3  C3  UNL     1     -33.218 -57.645   6.067  1.00  0.00     0.093 C
ENDROOT
BRANCH   3   4
HETATM    4  C4  UNL     1     -33.910 -56.478   5.436  1.00  0.00     0.014 C
BRANCH   4   5
HETATM    5  C5  UNL     1     -33.655 -55.137   5.961  1.00  0.00     0.035 C
BRANCH   5   6
HETATM    6  C6  UNL     1     -32.498 -54.809   6.789  1.00  0.00     0.200 C
BRANCH   6   7
HETATM    7  N1  UNL     1     -32.646 -54.569   8.181  1.00  0.00    -0.124 NA
BRANCH   7   8
HETATM    8  N2  UNL     1     -31.523 -55.041   8.936  1.00  0.00    -0.288 N
ATOM      9  H2  UNL     1     -30.778 -54.398   9.205  1.00  0.00     0.184 HD
BRANCH   8  10
HETATM   10  C7  UNL     1     -31.456 -56.392   9.302  1.00  0.00     0.134 C
HETATM   11  C8  UNL     1     -30.302 -57.022   9.245  1.00  0.00     0.122 A
HETATM   12  C9  UNL     1     -29.268 -56.256   8.822  1.00  0.00     0.267 A
HETATM   13  C11 UNL     1     -30.000 -58.358   9.565  1.00  0.00     0.143 A
HETATM   14  O1  UNL     1     -29.412 -55.062   8.511  1.00  0.00    -0.267 OA
HETATM   15  N3  UNL     1     -28.007 -56.724   8.708  1.00  0.00    -0.275 N
HETATM   16  C10 UNL     1     -27.755 -57.987   9.017  1.00  0.00     0.328 A
ATOM     17  H3  UNL     1     -27.257 -56.113   8.386  1.00  0.00     0.173 HD
HETATM   18  O2  UNL     1     -26.577 -58.429   8.911  1.00  0.00    -0.247 OA
HETATM   19  N4  UNL     1     -28.724 -58.800   9.439  1.00  0.00    -0.292 N
ATOM     20  H4  UNL     1     -28.503 -59.768   9.670  1.00  0.00     0.172 HD
HETATM   21  N5  UNL     1     -30.792 -59.272   9.949  1.00  0.00    -0.287 N
HETATM   22  N6  UNL     1     -32.165 -59.267  10.174  1.00  0.00    -0.317 N
ATOM     23  H5  UNL     1     -30.342 -60.170  10.125  1.00  0.00     0.188 HD
HETATM   24  C12 UNL     1     -33.155 -58.319   9.654  1.00  0.00     0.262 C
ATOM     25  H6  UNL     1     -32.525 -60.011  10.771  1.00  0.00     0.182 HD
HETATM   26  N7  UNL     1     -32.696 -56.983   9.744  1.00  0.00    -0.357 N
ATOM     27  H7  UNL     1     -33.345 -56.335  10.191  1.00  0.00     0.162 HD
ENDBRANCH   8  10
ENDBRANCH   7   8
ENDBRANCH   6   7
BRANCH   6  28
HETATM   28  C13 UNL     1     -31.662 -53.705   6.176  1.00  0.00     0.194 C
HETATM   29  O3  UNL     1     -31.392 -53.637   4.964  1.00  0.00    -0.647 OA
HETATM   30  O4  UNL     1     -31.166 -52.705   7.014  1.00  0.00    -0.647 OA
ENDBRANCH   6  28
ENDBRANCH   5   6
ENDBRANCH   4   5
ENDBRANCH   3   4
TORSDOF 7
ENDMDL