MODEL 4
REMARK VINA RESULT: -7.424140544      2.600      5.050
REMARK  12 active torsions:
REMARK  status: ('A' for Active; 'I' for Inactive)
REMARK    1  A    between atoms: C3_3  and  N1_4
REMARK    2  A    between atoms: N1_4  and  S1_6
REMARK    3  A    between atoms: S1_6  and  N2_9
REMARK    4  A    between atoms: N2_9  and  C4_11
REMARK    5  A    between atoms: C4_11  and  C5_12
REMARK    6  A    between atoms: C5_12  and  N4_16
REMARK    7  A    between atoms: N4_16  and  N5_18
REMARK    8  A    between atoms: N5_18  and  C6_19
REMARK    9  A    between atoms: C6_19  and  O3_20
REMARK   10  A    between atoms: C6_19  and  N6_22
REMARK   11  A    between atoms: N6_22  and  N7_23
REMARK       I    between atoms: N7_23  and  C7_24
REMARK   12  A    between atoms: C7_24  and  C8_26
ROOT
HETATM    1  C1  UNL     1     -27.357 -58.071   9.020  1.00  0.00     0.014 C
HETATM    2  C2  UNL     1     -28.246 -57.290   9.121  1.00  0.00    -0.097 C
HETATM    3  C3  UNL     1     -29.379 -56.344   9.295  1.00  0.00     0.226 C
ENDROOT
BRANCH   3   4
HETATM    4  N1  UNL     1     -29.799 -56.433  10.668  1.00  0.00    -0.292 N
ATOM      5  H1  UNL     1     -29.415 -55.838  11.402  1.00  0.00     0.174 HD
BRANCH   4   6
HETATM    6  S1  UNL     1     -30.986 -57.608  10.968  1.00  0.00     0.316 S
HETATM    7  O1  UNL     1     -32.181 -56.986  11.655  1.00  0.00    -0.183 OA
HETATM    8  O2  UNL     1     -30.420 -58.763  11.782  1.00  0.00    -0.183 OA
BRANCH   6   9
HETATM    9  N2  UNL     1     -31.580 -58.237   9.459  1.00  0.00    -0.296 N
ATOM     10  H2  UNL     1     -31.166 -58.107   8.536  1.00  0.00     0.174 HD
BRANCH   9  11
HETATM   11  C4  UNL     1     -32.764 -58.976   9.773  1.00  0.00     0.211 C
BRANCH  11  12
HETATM   12  C5  UNL     1     -33.973 -58.611   9.015  1.00  0.00     0.120 C
HETATM   13  N3  UNL     1     -35.008 -59.357   9.139  1.00  0.00    -0.386 N
ATOM     14  H32 UNL     1     -35.014 -60.199   9.714  1.00  0.00     0.157 HD
ATOM     15  H31 UNL     1     -35.845 -59.104   8.614  1.00  0.00     0.157 HD
BRANCH  12  16
HETATM   16  N4  UNL     1     -33.964 -57.433   8.210  1.00  0.00    -0.217 N
ATOM     17  H4  UNL     1     -34.398 -57.528   7.291  1.00  0.00     0.203 HD
BRANCH  16  18
HETATM   18  N5  UNL     1     -33.479 -56.246   8.479  1.00  0.00    -0.263 NA
BRANCH  18  19
HETATM   19  C6  UNL     1     -32.939 -55.032   8.869  1.00  0.00     0.427 C
BRANCH  19  20
HETATM   20  O3  UNL     1     -33.282 -54.598  10.105  1.00  0.00    -0.307 OA
ATOM     21  H3  UNL     1     -32.571 -54.513  10.730  1.00  0.00     0.223 HD
ENDBRANCH  19  20
BRANCH  19  22
HETATM   22  N6  UNL     1     -32.115 -54.320   8.085  1.00  0.00    -0.181 NA
BRANCH  22  23
HETATM   23  N7  UNL     1     -31.185 -53.810   7.254  1.00  0.00    -0.194 NA
HETATM   24  C7  UNL     1     -30.282 -53.314   6.466  1.00  0.00     0.414 C
HETATM   25  O4  UNL     1     -29.195 -52.681   6.790  1.00  0.00    -0.243 OA
BRANCH  24  26
HETATM   26  C8  UNL     1     -30.370 -53.408   4.946  1.00  0.00     0.340 C
HETATM   27  N8  UNL     1     -29.400 -52.755   4.162  1.00  0.00    -0.051 NA
HETATM   28  O5  UNL     1     -31.306 -54.080   4.501  1.00  0.00    -0.264 OA
ENDBRANCH  24  26
ENDBRANCH  22  23
ENDBRANCH  19  22
ENDBRANCH  18  19
ENDBRANCH  16  18
ENDBRANCH  12  16
ENDBRANCH  11  12
ENDBRANCH   9  11
ENDBRANCH   6   9
ENDBRANCH   4   6
ENDBRANCH   3   4
TORSDOF 12
ENDMDL