MODEL 5
REMARK VINA RESULT: -7.850508489      1.814      2.350
REMARK  6 active torsions:
REMARK  status: ('A' for Active; 'I' for Inactive)
REMARK    1  A    between atoms: N3_4  and  C2_6
REMARK    2  A    between atoms: C2_6  and  C3_7
REMARK    3  A    between atoms: C3_7  and  C4_8
REMARK    4  A    between atoms: C4_8  and  C5_9
REMARK    5  A    between atoms: C9_19  and  C10_20
REMARK    6  A    between atoms: C10_20  and  N6_21
ROOT
HETATM    1  C5  UNL     1     -30.643 -58.587  10.692  1.00  0.00     0.176 C
HETATM    2  N4  UNL     1     -29.824 -58.671   9.486  1.00  0.00    -0.346 N
ATOM      3  H4  UNL     1     -30.206 -59.112   8.649  1.00  0.00     0.163 HD
HETATM    4  C6  UNL     1     -28.514 -58.150   9.460  1.00  0.00     0.236 C
HETATM    5  O1  UNL     1     -27.697 -58.627   8.640  1.00  0.00    -0.272 OA
HETATM    6  C7  UNL     1     -28.104 -57.074  10.365  1.00  0.00     0.225 C
HETATM    7  N5  UNL     1     -28.540 -55.760   9.936  1.00  0.00    -0.350 N
ATOM      8  H5  UNL     1     -28.150 -54.971  10.451  1.00  0.00     0.163 HD
HETATM    9  C8  UNL     1     -29.425 -55.441   8.908  1.00  0.00     0.242 C
HETATM   10  O2  UNL     1     -29.017 -54.601   8.026  1.00  0.00    -0.271 OA
HETATM   11  C9  UNL     1     -30.802 -55.961   8.707  1.00  0.00     0.194 C
HETATM   12  N9  UNL     1     -31.487 -56.274   9.925  1.00  0.00    -0.344 N
ATOM     13  H9  UNL     1     -32.358 -55.771  10.093  1.00  0.00     0.163 HD
HETATM   14  C12 UNL     1     -31.102 -57.191  10.914  1.00  0.00     0.241 C
HETATM   15  O3  UNL     1     -31.149 -56.789  12.118  1.00  0.00    -0.271 OA
ENDROOT
BRANCH   1  16
HETATM   16  C4  UNL     1     -31.853 -59.472  10.589  1.00  0.00     0.036 C
BRANCH  16  17
HETATM   17  C3  UNL     1     -32.437 -59.492   9.204  1.00  0.00     0.022 C
BRANCH  17  18
HETATM   18  C2  UNL     1     -33.889 -59.115   9.148  1.00  0.00     0.122 C
BRANCH  18  19
HETATM   19  N3  UNL     1     -34.165 -58.276   7.995  1.00  0.00    -0.367 N
HETATM   20  C1  UNL     1     -34.481 -57.030   8.110  1.00  0.00     0.196 C
HETATM   21  N1  UNL     1     -34.743 -56.239   6.968  1.00  0.00    -0.067 NA
HETATM   22  N2  UNL     1     -34.558 -56.486   9.422  1.00  0.00    -0.067 NA
ATOM     23  H3  UNL     1     -34.105 -58.685   7.063  1.00  0.00     0.161 HD
ENDBRANCH  18  19
ENDBRANCH  17  18
ENDBRANCH  16  17
ENDBRANCH   1  16
BRANCH  11  24
HETATM   24  C10 UNL     1     -31.613 -54.892   7.951  1.00  0.00     0.156 C
BRANCH  24  25
HETATM   25  N6  UNL     1     -31.587 -55.121   6.541  1.00  0.00    -0.364 N
HETATM   26  C11 UNL     1     -31.612 -54.094   5.754  1.00  0.00     0.197 C
HETATM   27  N7  UNL     1     -31.665 -52.759   6.244  1.00  0.00    -0.067 NA
HETATM   28  N8  UNL     1     -31.589 -54.255   4.331  1.00  0.00    -0.067 NA
ATOM     29  H6  UNL     1     -31.549 -56.069   6.164  1.00  0.00     0.161 HD
ENDBRANCH  24  25
ENDBRANCH  11  24
TORSDOF 6
ENDMDL