MODEL 3
REMARK VINA RESULT: -7.214732206      2.269      4.152
REMARK  7 active torsions:
REMARK  status: ('A' for Active; 'I' for Inactive)
REMARK       I    between atoms: C1_4  and  N3_6
REMARK    1  A    between atoms: N3_6  and  O1_8
REMARK    2  A    between atoms: O1_8  and  C2_9
REMARK    3  A    between atoms: C2_9  and  C3_10
REMARK    4  A    between atoms: C3_10  and  N4_11
REMARK       I    between atoms: N4_11  and  C4_13
REMARK    5  A    between atoms: C4_13  and  C5_15
REMARK    6  A    between atoms: N5_16  and  C6_17
REMARK    7  A    between atoms: N6_18  and  N7_20
ROOT
HETATM    1  C5  UNL     1     -33.907 -55.724   7.526  1.00  0.00     0.223 C
HETATM    2  N5  UNL     1     -34.408 -56.118   6.203  1.00  0.00    -0.360 N
HETATM    3  C7  UNL     1     -33.478 -57.065   5.655  1.00  0.00     0.128 C
HETATM    4  C8  UNL     1     -32.579 -57.514   6.796  1.00  0.00     0.072 C
HETATM    5  C9  UNL     1     -33.386 -57.060   8.018  1.00  0.00     0.235 C
HETATM    6  N8  UNL     1     -32.584 -56.959   9.185  1.00  0.00    -0.053 N
ATOM      7  H81 UNL     1     -32.615 -56.019   9.581  1.00  0.00     0.278 HD
ATOM      8  H82 UNL     1     -31.590 -57.002   8.962  1.00  0.00     0.278 HD
HETATM    9  C10 UNL     1     -32.959 -57.977  10.180  1.00  0.00     0.253 C
HETATM   10  C11 UNL     1     -32.962 -59.345   9.541  1.00  0.00     0.150 C
HETATM   11  N9  UNL     1     -34.156 -59.331   8.671  1.00  0.00    -0.357 N
ATOM     12  H9  UNL     1     -34.706 -60.166   8.470  1.00  0.00     0.162 HD
HETATM   13  C12 UNL     1     -34.469 -58.060   8.141  1.00  0.00     0.257 C
HETATM   14  O3  UNL     1     -35.621 -57.795   7.792  1.00  0.00    -0.271 OA
ENDROOT
BRANCH   1  15
HETATM   15  C4  UNL     1     -32.767 -54.781   7.368  1.00  0.00     0.243 C
HETATM   16  N4  UNL     1     -32.226 -54.344   6.147  1.00  0.00    -0.357 N
ATOM     17  H4  UNL     1     -32.620 -54.683   5.268  1.00  0.00     0.162 HD
HETATM   18  O2  UNL     1     -32.211 -54.318   8.426  1.00  0.00    -0.271 OA
BRANCH  16  19
HETATM   19  C3  UNL     1     -31.122 -53.422   6.125  1.00  0.00     0.151 C
BRANCH  19  20
HETATM   20  C2  UNL     1     -29.787 -54.137   6.180  1.00  0.00     0.220 C
BRANCH  20  21
HETATM   21  O1  UNL     1     -29.110 -53.846   7.355  1.00  0.00    -0.276 OA
BRANCH  21  22
HETATM   22  N3  UNL     1     -28.424 -54.896   7.814  1.00  0.00    -0.239 N
HETATM   23  C1  UNL     1     -28.897 -55.692   8.869  1.00  0.00     0.205 C
HETATM   24  N1  UNL     1     -28.545 -55.382  10.089  1.00  0.00    -0.372 N
HETATM   25  N2  UNL     1     -29.736 -56.809   8.655  1.00  0.00    -0.062 NA
ATOM     26  H12 UNL     1     -28.889 -55.961  10.855  1.00  0.00     0.158 HD
ATOM     27  H11 UNL     1     -27.939 -54.576  10.243  1.00  0.00     0.158 HD
ATOM     28  H3  UNL     1     -27.528 -55.126   7.384  1.00  0.00     0.197 HD
ENDBRANCH  21  22
ENDBRANCH  20  21
ENDBRANCH  19  20
ENDBRANCH  16  19
ENDBRANCH   1  15
BRANCH   2  29
HETATM   29  C6  UNL     1     -35.595 -55.637   5.588  1.00  0.00     0.195 C
HETATM   30  N6  UNL     1     -36.636 -56.363   5.399  1.00  0.00    -0.303 N
ATOM     31  H6  UNL     1     -36.643 -57.340   5.694  1.00  0.00     0.187 HD
BRANCH  30  32
HETATM   32  N7  UNL     1     -37.758 -55.804   4.787  1.00  0.00    -0.344 N
ATOM     33  H72 UNL     1     -38.126 -56.229   3.935  1.00  0.00     0.176 HD
ATOM     34  H71 UNL     1     -38.192 -54.978   5.198  1.00  0.00     0.176 HD
ENDBRANCH  30  32
ENDBRANCH   2  29
TORSDOF 7
ENDMDL