MODEL 2
REMARK VINA RESULT: -8.379761784      1.922      2.137
REMARK  10 active torsions:
REMARK  status: ('A' for Active; 'I' for Inactive)
REMARK    1  A    between atoms: C2_2  and  C3_3
REMARK    2  A    between atoms: C3_3  and  N1_4
REMARK       I    between atoms: N1_4  and  C4_5
REMARK    3  A    between atoms: C4_5  and  C5_7
REMARK    4  A    between atoms: C5_7  and  N2_8
REMARK       I    between atoms: N2_8  and  C6_10
REMARK       I    between atoms: C6_10  and  N3_12
REMARK    5  A    between atoms: N3_12  and  N4_14
REMARK       I    between atoms: N4_14  and  C7_16
REMARK    6  A    between atoms: C7_16  and  C8_18
REMARK       I    between atoms: C8_18  and  N5_20
REMARK    7  A    between atoms: N5_20  and  C9_22
REMARK    8  A    between atoms: C9_22  and  C10_23
REMARK       I    between atoms: C10_23  and  N6_25
REMARK    9  A    between atoms: C11_27  and  N7_28
REMARK   10  A    between atoms: N7_28  and  N8_30
ROOT
HETATM    1  N4  UNL     1     -30.871 -54.300   4.899  1.00  0.00    -0.258 N
ATOM      2  H4  UNL     1     -30.658 -55.295   4.816  1.00  0.00     0.190 HD
HETATM    3  C7  UNL     1     -31.419 -53.850   6.103  1.00  0.00     0.327 C
HETATM    4  O3  UNL     1     -31.731 -52.662   6.308  1.00  0.00    -0.261 OA
ENDROOT
BRANCH   3   5
HETATM    5  C8  UNL     1     -31.642 -54.808   7.217  1.00  0.00     0.311 C
HETATM    6  O4  UNL     1     -31.985 -54.283   8.327  1.00  0.00    -0.262 OA
HETATM    7  N5  UNL     1     -31.487 -56.185   7.040  1.00  0.00    -0.344 N
ATOM      8  H5  UNL     1     -31.205 -56.572   6.140  1.00  0.00     0.163 HD
BRANCH   7   9
HETATM    9  C9  UNL     1     -31.738 -57.043   8.173  1.00  0.00     0.226 C
BRANCH   9  10
HETATM   10  C10 UNL     1     -30.638 -57.974   8.487  1.00  0.00     0.240 C
HETATM   11  O5  UNL     1     -30.745 -59.210   8.642  1.00  0.00    -0.271 OA
HETATM   12  N6  UNL     1     -29.347 -57.388   8.619  1.00  0.00    -0.321 N
HETATM   13  C11 UNL     1     -28.488 -57.937   9.379  1.00  0.00     0.199 C
ATOM     14  H6  UNL     1     -29.113 -56.536   8.108  1.00  0.00     0.169 HD
BRANCH  13  15
HETATM   15  N7  UNL     1     -28.756 -59.112  10.100  1.00  0.00    -0.303 N
ATOM     16  H7  UNL     1     -28.657 -60.020   9.646  1.00  0.00     0.187 HD
BRANCH  15  17
HETATM   17  N8  UNL     1     -29.163 -59.040  11.460  1.00  0.00    -0.344 N
ATOM     18  H82 UNL     1     -29.769 -58.273  11.754  1.00  0.00     0.176 HD
ATOM     19  H81 UNL     1     -28.851 -59.745  12.129  1.00  0.00     0.176 HD
ENDBRANCH  15  17
ENDBRANCH  13  15
ENDBRANCH   9  10
ENDBRANCH   7   9
ENDBRANCH   3   5
BRANCH   1  20
HETATM   20  N3  UNL     1     -30.596 -53.484   3.803  1.00  0.00    -0.249 N
HETATM   21  C6  UNL     1     -29.216 -53.439   3.426  1.00  0.00     0.335 C
HETATM   22  N2  UNL     1     -28.644 -52.698   2.381  1.00  0.00    -0.332 N
HETATM   23  O2  UNL     1     -28.445 -54.178   4.146  1.00  0.00    -0.246 OA
ATOM     24  H2  UNL     1     -29.222 -52.101   1.789  1.00  0.00     0.164 HD
ATOM     25  H3  UNL     1     -31.320 -52.961   3.311  1.00  0.00     0.192 HD
BRANCH  22  26
HETATM   26  C5  UNL     1     -27.232 -52.798   2.165  1.00  0.00     0.243 C
BRANCH  26  27
HETATM   27  C4  UNL     1     -26.553 -51.523   2.739  1.00  0.00     0.304 C
HETATM   28  N1  UNL     1     -27.034 -50.364   2.450  1.00  0.00    -0.410 NA
HETATM   29  O1  UNL     1     -25.525 -51.804   3.472  1.00  0.00    -0.256 OA
BRANCH  28  30
HETATM   30  C3  UNL     1     -27.573 -49.062   2.128  1.00  0.00     0.248 C
BRANCH  30  31
HETATM   31  C2  UNL     1     -26.536 -48.172   1.549  1.00  0.00    -0.004 C
HETATM   32  C1  UNL     1     -26.158 -47.093   2.211  1.00  0.00     0.009 C
ENDBRANCH  30  31
ENDBRANCH  28  30
ENDBRANCH  26  27
ENDBRANCH  22  26
ENDBRANCH   1  20
TORSDOF 10
ENDMDL