MODEL 5
REMARK VINA RESULT: -7.876710841      1.398      2.031
REMARK  8 active torsions:
REMARK  status: ('A' for Active; 'I' for Inactive)
REMARK       I    between atoms: C1_4  and  N3_6
REMARK    1  A    between atoms: N3_6  and  C2_8
REMARK    2  A    between atoms: C3_11  and  N5_12
REMARK    3  A    between atoms: N5_12  and  C4_14
REMARK    4  A    between atoms: C4_14  and  C5_15
REMARK    5  A    between atoms: C5_15  and  N6_16
REMARK    6  A    between atoms: N10_24  and  C8_26
REMARK    7  A    between atoms: C8_26  and  C9_27
REMARK    8  A    between atoms: C9_27  and  N11_28
ROOT
HETATM    1  C2  UNL     1     -30.897 -54.200   6.476  1.00  0.00     0.713 A
HETATM    2  N4  UNL     1     -32.093 -54.321   7.102  1.00  0.00    -0.021 N
ATOM      3  H4  UNL     1     -32.947 -53.996   6.648  1.00  0.00     0.203 HD
HETATM    4  C3  UNL     1     -32.144 -54.863   8.307  1.00  0.00     0.707 A
HETATM    5  N9  UNL     1     -30.990 -55.299   8.915  1.00  0.00    -0.022 N
ATOM      6  H9  UNL     1     -31.053 -55.713   9.845  1.00  0.00     0.203 HD
HETATM    7  C7  UNL     1     -29.792 -55.199   8.335  1.00  0.00     0.707 A
HETATM    8  N10 UNL     1     -28.704 -55.587   8.860  1.00  0.00    -0.223 N
ATOM      9  H10 UNL     1     -27.873 -55.440   8.287  1.00  0.00     0.177 HD
HETATM   10  N13 UNL     1     -29.795 -54.629   7.088  1.00  0.00    -0.021 N
ATOM     11  H13 UNL     1     -28.905 -54.529   6.601  1.00  0.00     0.203 HD
ENDROOT
BRANCH   8  12
HETATM   12  C8  UNL     1     -28.466 -56.194  10.121  1.00  0.00     0.168 C
BRANCH  12  13
HETATM   13  C9  UNL     1     -28.411 -57.704  10.093  1.00  0.00     0.294 C
BRANCH  13  14
HETATM   14  N11 UNL     1     -29.626 -58.390  10.189  1.00  0.00     0.117 N
HETATM   15  C10 UNL     1     -29.813 -59.283  11.284  1.00  0.00     0.302 C
HETATM   16  C11 UNL     1     -31.136 -59.952  10.913  1.00  0.00     0.264 C
HETATM   17  N12 UNL     1     -31.479 -59.449   9.576  1.00  0.00    -0.047 N
HETATM   18  C12 UNL     1     -30.118 -59.122   9.082  1.00  0.00     0.502 C
ATOM     19 2H12 UNL     1     -32.030 -60.076   8.990  1.00  0.00     0.279 HD
ATOM     20 1H12 UNL     1     -32.161 -58.692   9.544  1.00  0.00     0.279 HD
ENDBRANCH  13  14
ENDBRANCH  12  13
ENDBRANCH   8  12
BRANCH   4  21
HETATM   21  N5  UNL     1     -33.219 -55.020   8.969  1.00  0.00    -0.224 N
ATOM     22  H5  UNL     1     -33.835 -54.225   9.140  1.00  0.00     0.177 HD
BRANCH  21  23
HETATM   23  C4  UNL     1     -33.562 -56.328   9.476  1.00  0.00     0.157 C
BRANCH  23  24
HETATM   24  C5  UNL     1     -34.281 -57.045   8.341  1.00  0.00     0.142 C
BRANCH  24  25
HETATM   25  N6  UNL     1     -35.293 -57.866   8.963  1.00  0.00    -0.365 N
HETATM   26  C6  UNL     1     -35.208 -59.138   8.885  1.00  0.00     0.197 C
HETATM   27  N7  UNL     1     -34.121 -59.717   8.186  1.00  0.00    -0.067 NA
HETATM   28  N8  UNL     1     -36.212 -59.928   9.506  1.00  0.00    -0.067 NA
ATOM     29  H6  UNL     1     -36.069 -57.433   9.463  1.00  0.00     0.161 HD
ENDBRANCH  24  25
ENDBRANCH  23  24
ENDBRANCH  21  23
ENDBRANCH   4  21
BRANCH   1  30
HETATM   30  N3  UNL     1     -30.893 -53.675   5.317  1.00  0.00    -0.163 N
HETATM   31  C1  UNL     1     -29.820 -53.815   4.409  1.00  0.00     0.200 C
HETATM   32  N1  UNL     1     -29.605 -54.956   3.859  1.00  0.00    -0.373 N
HETATM   33  N2  UNL     1     -28.989 -52.686   4.113  1.00  0.00    -0.063 NA
ATOM     34  H12 UNL     1     -28.830 -55.058   3.203  1.00  0.00     0.158 HD
ATOM     35  H11 UNL     1     -30.196 -55.760   4.071  1.00  0.00     0.158 HD
ATOM     36  H3  UNL     1     -31.703 -53.126   5.030  1.00  0.00     0.187 HD
ENDBRANCH   1  30
TORSDOF 8
ENDMDL