MODEL 3
REMARK VINA RESULT: -7.427805021      0.852      1.500
REMARK  6 active torsions:
REMARK  status: ('A' for Active; 'I' for Inactive)
REMARK    1  A    between atoms: N3_4  and  C2_6
REMARK    2  A    between atoms: C2_6  and  C3_7
REMARK    3  A    between atoms: C3_7  and  C4_8
REMARK    4  A    between atoms: C7_16  and  C8_17
REMARK    5  A    between atoms: C8_17  and  C9_18
REMARK    6  A    between atoms: C9_18  and  C10_19
ROOT
HETATM    1  C4  UNL     1     -33.035 -57.353   7.402  1.00  0.00    -0.018 A
HETATM    2  C5  UNL     1     -33.605 -58.106   6.357  1.00  0.00     0.102 A
HETATM    3  N4  UNL     1     -34.696 -58.817   6.601  1.00  0.00    -0.318 N
ATOM      4  H4  UNL     1     -35.127 -59.370   5.860  1.00  0.00     0.170 HD
HETATM    5  C6  UNL     1     -35.229 -58.802   7.835  1.00  0.00     0.324 A
HETATM    6  O1  UNL     1     -36.273 -59.498   8.033  1.00  0.00    -0.247 OA
HETATM    7  N5  UNL     1     -34.709 -58.095   8.839  1.00  0.00    -0.312 N
ATOM      8  H5  UNL     1     -35.154 -58.118   9.757  1.00  0.00     0.170 HD
HETATM    9  C7  UNL     1     -33.577 -57.332   8.649  1.00  0.00     0.021 A
ENDROOT
BRANCH   9  10
HETATM   10  C8  UNL     1     -33.125 -56.455   9.753  1.00  0.00     0.062 C
BRANCH  10  11
HETATM   11  C9  UNL     1     -32.465 -57.230  10.834  1.00  0.00     0.044 C
BRANCH  11  12
HETATM   12  C10 UNL     1     -31.397 -58.143  10.495  1.00  0.00    -0.058 A
HETATM   13  C11 UNL     1     -31.651 -59.511  10.316  1.00  0.00     0.007 A
HETATM   14  C12 UNL     1     -30.622 -60.341   9.970  1.00  0.00     0.001 A
HETATM   15  C13 UNL     1     -29.348 -59.875   9.793  1.00  0.00     0.000 A
HETATM   16  C14 UNL     1     -29.102 -58.535   9.969  1.00  0.00     0.001 A
HETATM   17  C15 UNL     1     -30.118 -57.679  10.318  1.00  0.00     0.007 A
ENDBRANCH  11  12
ENDBRANCH  10  11
ENDBRANCH   9  10
BRANCH   1  18
HETATM   18  C3  UNL     1     -31.733 -56.689   7.147  1.00  0.00     0.061 C
BRANCH  18  19
HETATM   19  C2  UNL     1     -31.913 -55.686   5.999  1.00  0.00     0.126 C
BRANCH  19  20
HETATM   20  N3  UNL     1     -30.755 -54.857   6.006  1.00  0.00    -0.367 N
HETATM   21  C1  UNL     1     -30.842 -53.582   6.002  1.00  0.00     0.196 C
HETATM   22  N1  UNL     1     -32.112 -52.976   5.990  1.00  0.00    -0.067 NA
HETATM   23  N2  UNL     1     -29.642 -52.793   6.007  1.00  0.00    -0.067 NA
ATOM     24  H3  UNL     1     -29.833 -55.293   6.015  1.00  0.00     0.161 HD
ENDBRANCH  19  20
ENDBRANCH  18  19
ENDBRANCH   1  18
TORSDOF 6
ENDMDL