MODEL 3
REMARK VINA RESULT: -6.637957871      2.661      3.869
REMARK  7 active torsions:
REMARK  status: ('A' for Active; 'I' for Inactive)
REMARK    1  A    between atoms: C3_11  and  C4_12
REMARK    2  A    between atoms: C4_12  and  C5_13
REMARK    3  A    between atoms: C5_13  and  C6_14
REMARK    4  A    between atoms: C6_14  and  C7_15
REMARK    5  A    between atoms: C7_15  and  C8_16
REMARK    6  A    between atoms: C8_16  and  C9_17
REMARK    7  A    between atoms: N4_22  and  O2_23
ROOT
HETATM    1  C4  UNL     1     -32.573 -55.280   7.527  1.00  0.00     0.035 C
ENDROOT
BRANCH   1   2
HETATM    2  C3  UNL     1     -33.644 -55.858   6.601  1.00  0.00     0.177 C
HETATM    3  C1  UNL     1     -34.939 -55.282   6.995  1.00  0.00     0.259 C
HETATM    4  O1  UNL     1     -35.492 -54.416   6.270  1.00  0.00    -0.269 OA
HETATM    5  N1  UNL     1     -35.550 -55.718   8.200  1.00  0.00    -0.266 N
HETATM    6  N2  UNL     1     -35.231 -56.984   8.688  1.00  0.00    -0.274 N
ATOM      7  H1  UNL     1     -36.207 -55.118   8.698  1.00  0.00     0.190 HD
HETATM    8  C2  UNL     1     -34.314 -57.778   7.960  1.00  0.00     0.187 C
ATOM      9  H2  UNL     1     -35.649 -57.331   9.552  1.00  0.00     0.189 HD
HETATM   10  S1  UNL     1     -33.902 -59.283   8.492  1.00  0.00    -0.040 SA
HETATM   11  N3  UNL     1     -33.726 -57.290   6.749  1.00  0.00    -0.353 N
ATOM     12  H3  UNL     1     -33.382 -57.924   6.028  1.00  0.00     0.162 HD
ENDBRANCH   1   2
BRANCH   1  13
HETATM   13  C5  UNL     1     -31.213 -55.539   6.915  1.00  0.00     0.002 C
BRANCH  13  14
HETATM   14  C6  UNL     1     -30.409 -56.518   7.749  1.00  0.00     0.000 C
BRANCH  14  15
HETATM   15  C7  UNL     1     -29.120 -55.903   8.252  1.00  0.00     0.006 C
BRANCH  15  16
HETATM   16  C8  UNL     1     -28.753 -56.527   9.558  1.00  0.00     0.059 C
BRANCH  16  17
HETATM   17  C9  UNL     1     -29.401 -57.814   9.846  1.00  0.00     0.039 A
HETATM   18  C10 UNL     1     -29.101 -58.968   9.153  1.00  0.00     0.027 A
HETATM   19  C11 UNL     1     -29.715 -60.178   9.428  1.00  0.00     0.003 A
HETATM   20  C12 UNL     1     -30.665 -60.257  10.426  1.00  0.00     0.020 A
HETATM   21  C13 UNL     1     -30.948 -59.086  11.105  1.00  0.00     0.123 A
HETATM   22  N4  UNL     1     -30.337 -57.927  10.817  1.00  0.00    -0.240 N
BRANCH  22  23
HETATM   23  O2  UNL     1     -30.693 -56.821  11.555  1.00  0.00    -0.283 OA
ATOM     24  H2  UNL     1     -31.579 -56.741  11.887  1.00  0.00     0.245 HD
ENDBRANCH  22  23
ENDBRANCH  16  17
ENDBRANCH  15  16
ENDBRANCH  14  15
ENDBRANCH  13  14
ENDBRANCH   1  13
TORSDOF 7
ENDMDL