MODEL 1
REMARK VINA RESULT: -6.649942777      0.000      0.000
REMARK  7 active torsions:
REMARK  status: ('A' for Active; 'I' for Inactive)
REMARK    1  A    between atoms: C5_6  and  C6_7
REMARK    2  A    between atoms: C6_7  and  C7_8
REMARK    3  A    between atoms: C7_8  and  C8_9
REMARK    4  A    between atoms: C8_9  and  C9_10
REMARK    5  A    between atoms: C9_10  and  C10_11
REMARK    6  A    between atoms: C10_11  and  N2_12
REMARK    7  A    between atoms: C13_16  and  N4_17
ROOT
HETATM    1  N2  UNL     1     -33.445 -55.591   7.095  1.00  0.00    -0.287 N
HETATM    2  C11 UNL     1     -32.782 -55.849   5.960  1.00  0.00     0.126 A
HETATM    3  N3  UNL     1     -33.486 -56.232   4.804  1.00  0.00    -0.082 NA
HETATM    4  C12 UNL     1     -31.392 -55.732   5.943  1.00  0.00     0.093 A
HETATM    5  C13 UNL     1     -30.724 -55.356   7.088  1.00  0.00     0.105 A
HETATM    6  N5  UNL     1     -31.450 -55.112   8.192  1.00  0.00    -0.295 N
ATOM      7  H5  UNL     1     -30.966 -54.833   9.046  1.00  0.00     0.172 HD
HETATM    8  C14 UNL     1     -32.803 -55.223   8.216  1.00  0.00     0.329 A
HETATM    9  O1  UNL     1     -33.470 -54.990   9.263  1.00  0.00    -0.246 OA
ENDROOT
BRANCH   1  10
HETATM   10  C10 UNL     1     -34.929 -55.727   7.072  1.00  0.00     0.135 C
BRANCH  10  11
HETATM   11  C9  UNL     1     -35.288 -57.177   7.116  1.00  0.00     0.020 C
BRANCH  11  12
HETATM   12  C8  UNL     1     -35.177 -57.917   8.370  1.00  0.00     0.002 C
BRANCH  12  13
HETATM   13  C7  UNL     1     -34.088 -58.845   8.668  1.00  0.00     0.005 C
BRANCH  13  14
HETATM   14  C6  UNL     1     -32.920 -58.972   7.771  1.00  0.00     0.040 C
BRANCH  14  15
HETATM   15  C5  UNL     1     -31.710 -59.054   8.703  1.00  0.00    -0.043 A
HETATM   16  C4  UNL     1     -31.881 -59.485   9.996  1.00  0.00     0.010 A
HETATM   17  C3  UNL     1     -30.759 -59.547  10.818  1.00  0.00     0.018 A
HETATM   18  C2  UNL     1     -29.515 -59.184  10.341  1.00  0.00     0.090 A
HETATM   19  N1  UNL     1     -29.375 -58.766   9.074  1.00  0.00    -0.370 N
HETATM   20  C1  UNL     1     -28.050 -58.382   8.574  1.00  0.00     0.154 C
HETATM   21  C15 UNL     1     -30.459 -58.707   8.282  1.00  0.00     0.097 A
ENDBRANCH  14  15
ENDBRANCH  13  14
ENDBRANCH  12  13
ENDBRANCH  11  12
ENDBRANCH  10  11
ENDBRANCH   1  10
BRANCH   5  22
HETATM   22  N4  UNL     1     -29.420 -55.237   7.109  1.00  0.00    -0.385 N
ATOM     23  H42 UNL     1     -28.857 -55.554   6.319  1.00  0.00     0.157 HD
ATOM     24  H41 UNL     1     -28.936 -54.827   7.909  1.00  0.00     0.157 HD
ENDBRANCH   5  22
TORSDOF 7
ENDMDL