MODEL 1
REMARK VINA RESULT: -6.260390161      0.000      0.000
REMARK  6 active torsions:
REMARK  status: ('A' for Active; 'I' for Inactive)
REMARK    1  A    between atoms: N1_2  and  C3_4
REMARK    2  A    between atoms: N1_2  and  C11_16
REMARK    3  A    between atoms: C3_4  and  C4_5
REMARK    4  A    between atoms: C4_5  and  C5_6
REMARK    5  A    between atoms: C5_6  and  N2_7
REMARK    6  A    between atoms: C11_16  and  C12_17
ROOT
HETATM    1  C1  UNL     1     -35.089 -57.326   7.984  1.00  0.00     0.272 C
HETATM    2  N1  UNL     1     -33.773 -56.698   8.193  1.00  0.00    -0.074 N
HETATM    3  C2  UNL     1     -34.084 -55.311   8.585  1.00  0.00     0.272 C
ENDROOT
BRANCH   2   4
HETATM    4  C3  UNL     1     -33.044 -57.425   9.166  1.00  0.00     0.238 C
BRANCH   4   5
HETATM    5  C4  UNL     1     -32.845 -56.851  10.516  1.00  0.00     0.058 C
BRANCH   5   6
HETATM    6  C5  UNL     1     -31.725 -57.495  11.287  1.00  0.00     0.274 C
BRANCH   6   7
HETATM    7  N2  UNL     1     -30.681 -57.993  10.410  1.00  0.00     0.090 N
HETATM    8  C6  UNL     1     -30.210 -59.297  10.837  1.00  0.00     0.274 C
HETATM    9  C7  UNL     1     -29.753 -60.137   9.687  1.00  0.00     0.057 C
HETATM   10  C8  UNL     1     -29.843 -59.410   8.366  1.00  0.00     0.234 C
HETATM   11  N3  UNL     1     -28.981 -58.255   8.312  1.00  0.00    -0.073 N
HETATM   12  C9  UNL     1     -28.445 -57.886   9.593  1.00  0.00     0.262 C
ATOM     13  H32 UNL     1     -28.233 -58.392   7.632  1.00  0.00     0.277 HD
ATOM     14  H31 UNL     1     -29.461 -57.465   7.879  1.00  0.00     0.277 HD
HETATM   15  C10 UNL     1     -29.542 -57.123  10.333  1.00  0.00     0.299 C
ENDBRANCH   6   7
ENDBRANCH   5   6
ENDBRANCH   4   5
ENDBRANCH   2   4
BRANCH   2  16
HETATM   16  C11 UNL     1     -33.075 -56.555   6.938  1.00  0.00     0.242 C
BRANCH  16  17
HETATM   17  C12 UNL     1     -32.212 -55.401   6.710  1.00  0.00     0.037 C
HETATM   18  C13 UNL     1     -30.767 -55.729   6.658  1.00  0.00     0.009 C
HETATM   19  C14 UNL     1     -29.907 -54.518   6.320  1.00  0.00     0.028 C
HETATM   20  C15 UNL     1     -30.731 -53.406   5.705  1.00  0.00     0.232 C
HETATM   21  N4  UNL     1     -31.649 -53.993   4.770  1.00  0.00    -0.075 N
HETATM   22  C16 UNL     1     -32.686 -54.772   5.387  1.00  0.00     0.238 C
ATOM     23  H42 UNL     1     -32.049 -53.279   4.162  1.00  0.00     0.277 HD
ATOM     24  H41 UNL     1     -31.149 -54.548   4.075  1.00  0.00     0.277 HD
ENDBRANCH  16  17
ENDBRANCH   2  16
TORSDOF 6
ENDMDL