MODEL 4
REMARK VINA RESULT: -6.221709155      3.321      5.121
REMARK  7 active torsions:
REMARK  status: ('A' for Active; 'I' for Inactive)
REMARK    1  A    between atoms: N1_1  and  C1_5
REMARK    2  A    between atoms: C1_5  and  C2_6
REMARK    3  A    between atoms: C2_6  and  C3_7
REMARK    4  A    between atoms: C3_7  and  C4_8
REMARK    5  A    between atoms: N3_15  and  C9_17
REMARK    6  A    between atoms: C9_17  and  C10_18
REMARK    7  A    between atoms: C10_18  and  N4_19
ROOT
HETATM    1  C4  UNL     1     -35.556 -55.666   6.763  1.00  0.00     0.003 C
HETATM    2  C5  UNL     1     -34.412 -55.733   7.373  1.00  0.00     0.046 A
HETATM    3  C6  UNL     1     -33.151 -55.193   6.897  1.00  0.00     0.047 A
HETATM    4  C7  UNL     1     -31.998 -55.292   7.557  1.00  0.00     0.108 A
HETATM    5  N2  UNL     1     -31.967 -55.961   8.803  1.00  0.00    -0.202 N
ATOM      6  H2  UNL     1     -31.079 -56.031   9.301  1.00  0.00     0.183 HD
HETATM    7  C8  UNL     1     -33.124 -56.536   9.385  1.00  0.00     0.678 A
HETATM    8  N3  UNL     1     -33.052 -57.134  10.506  1.00  0.00    -0.224 N
ATOM      9  H3  UNL     1     -33.906 -57.535  10.892  1.00  0.00     0.177 HD
HETATM   10  N5  UNL     1     -34.330 -56.410   8.652  1.00  0.00    -0.192 N
ATOM     11  H5  UNL     1     -35.181 -56.814   9.043  1.00  0.00     0.184 HD
ENDROOT
BRANCH   8  12
HETATM   12  C9  UNL     1     -31.833 -57.275  11.258  1.00  0.00     0.168 C
BRANCH  12  13
HETATM   13  C10 UNL     1     -31.339 -58.717  11.129  1.00  0.00     0.292 C
BRANCH  13  14
HETATM   14  N4  UNL     1     -29.960 -58.778  10.712  1.00  0.00     0.090 N
HETATM   15  C11 UNL     1     -29.737 -59.919   9.882  1.00  0.00     0.272 C
HETATM   16  C12 UNL     1     -29.364 -59.439   8.497  1.00  0.00     0.030 C
HETATM   17  C13 UNL     1     -27.956 -58.850   8.618  1.00  0.00     0.003 C
HETATM   18  C14 UNL     1     -28.070 -57.699   9.577  1.00  0.00     0.030 C
HETATM   19  C15 UNL     1     -29.443 -57.573  10.174  1.00  0.00     0.272 C
ENDBRANCH  13  14
ENDBRANCH  12  13
ENDBRANCH   8  12
BRANCH   1  20
HETATM   20  C3  UNL     1     -35.757 -55.014   5.463  1.00  0.00     0.031 C
BRANCH  20  21
HETATM   21  C2  UNL     1     -36.426 -55.930   4.454  1.00  0.00     0.031 C
BRANCH  21  22
HETATM   22  C1  UNL     1     -37.599 -55.210   3.846  1.00  0.00     0.230 C
BRANCH  22  23
HETATM   23  N1  UNL     1     -38.828 -55.894   4.246  1.00  0.00    -0.079 N
ATOM     24  H13 UNL     1     -38.651 -56.823   4.629  1.00  0.00     0.274 HD
ATOM     25  H12 UNL     1     -39.253 -55.479   5.075  1.00  0.00     0.274 HD
ATOM     26  H11 UNL     1     -39.465 -55.915   3.451  1.00  0.00     0.274 HD
ENDBRANCH  22  23
ENDBRANCH  21  22
ENDBRANCH  20  21
ENDBRANCH   1  20
TORSDOF 7
ENDMDL