MODEL 2
REMARK VINA RESULT: -7.232579397      0.043      1.021
REMARK  7 active torsions:
REMARK  status: ('A' for Active; 'I' for Inactive)
REMARK    1  A    between atoms: C1_4  and  C2_6
REMARK    2  A    between atoms: N3_9  and  C5_10
REMARK    3  A    between atoms: C5_10  and  C6_11
REMARK    4  A    between atoms: C6_11  and  C7_12
REMARK    5  A    between atoms: C7_12  and  N4_13
REMARK    6  A    between atoms: C10_16  and  C11_17
REMARK    7  A    between atoms: N5_18  and  O1_20
ROOT
HETATM    1  C6  UNL     1     -34.545 -58.625   8.823  1.00  0.00     0.040 C
ENDROOT
BRANCH   1   2
HETATM    2  C5  UNL     1     -35.190 -57.816   7.763  1.00  0.00     0.129 C
BRANCH   2   3
HETATM    3  N3  UNL     1     -34.324 -56.815   7.234  1.00  0.00    -0.366 N
HETATM    4  C4  UNL     1     -34.078 -56.758   5.916  1.00  0.00     0.091 A
HETATM    5  C3  UNL     1     -33.257 -55.827   5.318  1.00  0.00     0.032 A
HETATM    6  C2  UNL     1     -32.635 -54.882   6.099  1.00  0.00     0.007 A
HETATM    7  C15 UNL     1     -32.889 -54.943   7.450  1.00  0.00     0.032 A
HETATM    8  C14 UNL     1     -33.712 -55.882   8.020  1.00  0.00     0.091 A
BRANCH   6   9
HETATM    9  C1  UNL     1     -31.745 -53.854   5.548  1.00  0.00     0.120 C
HETATM   10  N1  UNL     1     -31.209 -53.950   4.381  1.00  0.00    -0.387 N
ATOM     11  H12 UNL     1     -30.591 -53.236   3.998  1.00  0.00     0.157 HD
ATOM     12  H11 UNL     1     -31.432 -54.787   3.843  1.00  0.00     0.157 HD
HETATM   13  N2  UNL     1     -31.437 -52.694   6.293  1.00  0.00    -0.082 NA
ENDBRANCH   6   9
ENDBRANCH   2   3
ENDBRANCH   1   2
BRANCH   1  14
HETATM   14  C7  UNL     1     -33.574 -59.623   8.261  1.00  0.00     0.129 C
BRANCH  14  15
HETATM   15  N4  UNL     1     -32.230 -59.192   8.670  1.00  0.00    -0.366 N
HETATM   16  C8  UNL     1     -31.393 -58.551   7.849  1.00  0.00     0.091 A
HETATM   17  C9  UNL     1     -30.135 -58.145   8.217  1.00  0.00     0.030 A
HETATM   18  C10 UNL     1     -29.698 -58.418   9.528  1.00  0.00    -0.016 A
HETATM   19  C12 UNL     1     -30.587 -59.076  10.340  1.00  0.00     0.030 A
HETATM   20  C13 UNL     1     -31.854 -59.469   9.925  1.00  0.00     0.091 A
BRANCH  18  21
HETATM   21  C11 UNL     1     -28.388 -58.009   9.951  1.00  0.00     0.125 C
HETATM   22  N5  UNL     1     -27.243 -58.320   9.536  1.00  0.00    -0.280 N
ATOM     23  H5  UNL     1     -26.466 -57.876  10.024  1.00  0.00     0.193 HD
BRANCH  22  24
HETATM   24  O1  UNL     1     -26.898 -59.145   8.551  1.00  0.00    -0.290 OA
ATOM     25  H1  UNL     1     -27.358 -59.346   7.744  1.00  0.00     0.244 HD
ENDBRANCH  22  24
ENDBRANCH  18  21
ENDBRANCH  14  15
ENDBRANCH   1  14
TORSDOF 7
ENDMDL