MODEL 1
REMARK VINA RESULT: -7.183945394      0.000      0.000
REMARK  9 active torsions:
REMARK  status: ('A' for Active; 'I' for Inactive)
REMARK    1  A    between atoms: C2_5  and  N2_6
REMARK    2  A    between atoms: N2_6  and  C3_8
REMARK    3  A    between atoms: C3_8  and  C4_9
REMARK    4  A    between atoms: C4_9  and  C5_10
REMARK    5  A    between atoms: C5_10  and  C6_11
REMARK    6  A    between atoms: C6_11  and  C7_12
REMARK    7  A    between atoms: C7_12  and  N3_13
REMARK    8  A    between atoms: N3_13  and  C8_15
REMARK    9  A    between atoms: C14_25  and  O2_26
ROOT
HETATM    1  C3  UNL     1     -31.007 -55.669   6.641  1.00  0.00     0.138 C
ENDROOT
BRANCH   1   2
HETATM    2  N2  UNL     1     -29.814 -55.156   7.300  1.00  0.00    -0.226 N
ATOM      3  H2  UNL     1     -29.460 -54.223   7.085  1.00  0.00     0.177 HD
BRANCH   2   4
HETATM    4  C2  UNL     1     -29.213 -55.906   8.161  1.00  0.00     0.680 A
HETATM    5  N1  UNL     1     -28.662 -57.076   7.814  1.00  0.00    -0.154 N
HETATM    6  C1  UNL     1     -28.040 -57.844   8.721  1.00  0.00     0.294 A
ATOM      7  H1  UNL     1     -28.716 -57.388   6.844  1.00  0.00     0.187 HD
HETATM    8  O1  UNL     1     -27.516 -58.953   8.399  1.00  0.00    -0.265 OA
HETATM    9  C14 UNL     1     -27.950 -57.448  10.041  1.00  0.00     0.150 A
HETATM   10  C13 UNL     1     -28.523 -56.240  10.377  1.00  0.00     0.148 A
HETATM   11  N5  UNL     1     -29.137 -55.498   9.446  1.00  0.00    -0.199 N
ATOM     12  H5  UNL     1     -29.555 -54.607   9.713  1.00  0.00     0.183 HD
BRANCH   9  13
HETATM   13  O2  UNL     1     -27.316 -58.224  10.986  1.00  0.00    -0.355 OA
ATOM     14  H2  UNL     1     -26.783 -57.838  11.672  1.00  0.00     0.218 HD
ENDBRANCH   9  13
ENDBRANCH   2   4
ENDBRANCH   1   2
BRANCH   1  15
HETATM   15  C4  UNL     1     -32.099 -54.597   6.704  1.00  0.00     0.020 C
BRANCH  15  16
HETATM   16  C5  UNL     1     -33.425 -55.225   6.974  1.00  0.00     0.003 C
BRANCH  16  17
HETATM   17  C6  UNL     1     -33.859 -55.309   8.372  1.00  0.00     0.020 C
BRANCH  17  18
HETATM   18  C7  UNL     1     -33.752 -56.619   9.059  1.00  0.00     0.121 C
BRANCH  18  19
HETATM   19  N3  UNL     1     -32.541 -56.640   9.852  1.00  0.00    -0.376 N
ATOM     20  H3  UNL     1     -32.192 -55.781  10.277  1.00  0.00     0.161 HD
BRANCH  19  21
HETATM   21  C8  UNL     1     -31.908 -57.742  10.018  1.00  0.00     0.100 A
HETATM   22  C9  UNL     1     -31.774 -58.609   8.930  1.00  0.00     0.048 A
HETATM   23  C10 UNL     1     -31.111 -59.806   9.030  1.00  0.00     0.005 A
HETATM   24  C11 UNL     1     -30.550 -60.190  10.232  1.00  0.00     0.017 A
HETATM   25  C12 UNL     1     -30.689 -59.332  11.287  1.00  0.00     0.089 A
HETATM   26  N4  UNL     1     -31.347 -58.161  11.156  1.00  0.00    -0.353 N
ATOM     27  H4  UNL     1     -31.421 -57.559  11.976  1.00  0.00     0.166 HD
ENDBRANCH  19  21
ENDBRANCH  18  19
ENDBRANCH  17  18
ENDBRANCH  16  17
ENDBRANCH  15  16
ENDBRANCH   1  15
TORSDOF 9
ENDMDL