MODEL 2
REMARK VINA RESULT: -6.336249391      3.633      5.418
REMARK  8 active torsions:
REMARK  status: ('A' for Active; 'I' for Inactive)
REMARK    1  A    between atoms: C3_3  and  O1_4
REMARK    2  A    between atoms: O1_4  and  C4_5
REMARK    3  A    between atoms: C4_5  and  N1_6
REMARK    4  A    between atoms: C7_9  and  C8_10
REMARK    5  A    between atoms: C8_10  and  N2_11
REMARK    6  A    between atoms: C8_10  and  N3_15
REMARK    7  A    between atoms: C8_10  and  C9_19
REMARK    8  A    between atoms: C9_19  and  C10_20
ROOT
HETATM    1  C1  UNL     1     -26.506 -51.824   2.338  1.00  0.00     0.014 C
HETATM    2  C2  UNL     1     -27.662 -51.902   2.064  1.00  0.00    -0.091 C
HETATM    3  C3  UNL     1     -29.102 -51.971   1.740  1.00  0.00     0.262 C
ENDROOT
BRANCH   3   4
HETATM    4  O1  UNL     1     -29.830 -52.412   2.841  1.00  0.00    -0.360 OA
BRANCH   4   5
HETATM    5  C4  UNL     1     -30.177 -53.759   2.667  1.00  0.00     0.298 C
BRANCH   5   6
HETATM    6  N1  UNL     1     -30.568 -54.299   3.968  1.00  0.00    -0.345 N
HETATM    7  C5  UNL     1     -31.678 -54.981   4.212  1.00  0.00     0.093 A
HETATM    8  C6  UNL     1     -31.955 -55.507   5.472  1.00  0.00     0.028 A
HETATM    9  C7  UNL     1     -31.100 -55.351   6.536  1.00  0.00     0.008 A
HETATM   10  C16 UNL     1     -29.932 -54.620   6.247  1.00  0.00     0.028 A
HETATM   11  C17 UNL     1     -29.710 -54.126   4.982  1.00  0.00     0.093 A
BRANCH   9  12
HETATM   12  C8  UNL     1     -31.348 -55.920   7.852  1.00  0.00     0.313 C
BRANCH  12  13
HETATM   13  N2  UNL     1     -30.163 -55.736   8.726  1.00  0.00    -0.040 N
ATOM     14  H23 UNL     1     -30.279 -54.946   9.361  1.00  0.00     0.277 HD
ATOM     15  H22 UNL     1     -30.084 -56.478   9.421  1.00  0.00     0.277 HD
ATOM     16  H21 UNL     1     -29.317 -55.650   8.163  1.00  0.00     0.277 HD
ENDBRANCH  12  13
BRANCH  12  17
HETATM   17  N3  UNL     1     -32.329 -55.041   8.533  1.00  0.00    -0.040 N
ATOM     18  H33 UNL     1     -31.892 -54.263   9.027  1.00  0.00     0.277 HD
ATOM     19  H32 UNL     1     -32.888 -54.487   7.884  1.00  0.00     0.277 HD
ATOM     20  H31 UNL     1     -32.894 -55.633   9.142  1.00  0.00     0.277 HD
ENDBRANCH  12  17
BRANCH  12  21
HETATM   21  C9  UNL     1     -31.882 -57.289   7.977  1.00  0.00     0.113 C
BRANCH  21  22
HETATM   22  C10 UNL     1     -31.268 -58.250   8.843  1.00  0.00    -0.054 A
HETATM   23  C11 UNL     1     -30.203 -59.003   8.379  1.00  0.00     0.007 A
HETATM   24  C12 UNL     1     -29.541 -59.921   9.172  1.00  0.00     0.001 A
HETATM   25  C13 UNL     1     -29.938 -60.113  10.479  1.00  0.00     0.000 A
HETATM   26  C14 UNL     1     -30.993 -59.378  10.958  1.00  0.00     0.001 A
HETATM   27  C15 UNL     1     -31.648 -58.456  10.144  1.00  0.00     0.007 A
ENDBRANCH  21  22
ENDBRANCH  12  21
ENDBRANCH   9  12
ENDBRANCH   5   6
ENDBRANCH   4   5
ENDBRANCH   3   4
TORSDOF 8
ENDMDL