MODEL 4
REMARK VINA RESULT: -6.278205104      1.977      4.649
REMARK  7 active torsions:
REMARK  status: ('A' for Active; 'I' for Inactive)
REMARK    1  A    between atoms: C1_4  and  C2_6
REMARK    2  A    between atoms: N3_9  and  C5_10
REMARK    3  A    between atoms: C5_10  and  C6_11
REMARK    4  A    between atoms: C6_11  and  C7_12
REMARK    5  A    between atoms: C7_12  and  C8_13
REMARK    6  A    between atoms: C8_13  and  N4_14
REMARK    7  A    between atoms: C10_17  and  N5_18
ROOT
HETATM    1  C5  UNL     1     -33.604 -58.766   8.816  1.00  0.00     0.128 C
ENDROOT
BRANCH   1   2
HETATM    2  N3  UNL     1     -32.167 -58.647   8.931  1.00  0.00    -0.366 N
HETATM    3  C4  UNL     1     -31.307 -58.906   7.957  1.00  0.00     0.091 A
HETATM    4  C3  UNL     1     -29.948 -58.775   8.122  1.00  0.00     0.032 A
HETATM    5  C2  UNL     1     -29.401 -58.357   9.343  1.00  0.00     0.007 A
HETATM    6  C12 UNL     1     -30.305 -58.091  10.348  1.00  0.00     0.032 A
HETATM    7  C11 UNL     1     -31.669 -58.245  10.109  1.00  0.00     0.091 A
BRANCH   5   8
HETATM    8  C1  UNL     1     -27.962 -58.227   9.488  1.00  0.00     0.120 C
HETATM    9  N1  UNL     1     -27.446 -58.002  10.631  1.00  0.00    -0.387 N
ATOM     10  H12 UNL     1     -26.435 -57.911  10.733  1.00  0.00     0.157 HD
ATOM     11  H11 UNL     1     -28.033 -57.909  11.459  1.00  0.00     0.157 HD
HETATM   12  N2  UNL     1     -27.143 -58.357   8.335  1.00  0.00    -0.082 NA
ENDBRANCH   5   8
ENDBRANCH   1   2
BRANCH   1  13
HETATM   13  C6  UNL     1     -34.332 -57.510   9.128  1.00  0.00     0.022 C
BRANCH  13  14
HETATM   14  C7  UNL     1     -34.136 -56.499   8.028  1.00  0.00     0.023 C
BRANCH  14  15
HETATM   15  C8  UNL     1     -33.363 -55.288   8.449  1.00  0.00     0.149 C
BRANCH  15  16
HETATM   16  N4  UNL     1     -32.182 -55.113   7.570  1.00  0.00    -0.295 N
HETATM   17  C9  UNL     1     -32.318 -54.717   6.302  1.00  0.00     0.163 A
HETATM   18  S1  UNL     1     -30.699 -54.676   5.769  1.00  0.00    -0.046 SA
HETATM   19  C10 UNL     1     -29.953 -55.173   7.221  1.00  0.00     0.158 A
HETATM   20  N6  UNL     1     -30.998 -55.335   8.010  1.00  0.00    -0.278 N
ATOM     21  H6  UNL     1     -30.863 -55.639   8.975  1.00  0.00     0.189 HD
BRANCH  19  22
HETATM   22  N5  UNL     1     -28.682 -55.357   7.514  1.00  0.00    -0.379 N
ATOM     23  H52 UNL     1     -27.867 -54.986   7.026  1.00  0.00     0.158 HD
ATOM     24  H51 UNL     1     -28.243 -55.890   8.264  1.00  0.00     0.158 HD
ENDBRANCH  19  22
ENDBRANCH  15  16
ENDBRANCH  14  15
ENDBRANCH  13  14
ENDBRANCH   1  13
TORSDOF 7
ENDMDL