MODEL 5
REMARK VINA RESULT: -6.312510080      3.477      7.241
REMARK  8 active torsions:
REMARK  status: ('A' for Active; 'I' for Inactive)
REMARK    1  A    between atoms: C5_11  and  C6_12
REMARK    2  A    between atoms: C6_12  and  C7_13
REMARK    3  A    between atoms: C10_16  and  C11_17
REMARK    4  A    between atoms: C11_17  and  C12_18
REMARK    5  A    between atoms: C12_18  and  C13_19
REMARK    6  A    between atoms: C13_19  and  C14_20
REMARK    7  A    between atoms: C14_20  and  C15_21
REMARK    8  A    between atoms: C15_21  and  N3_22
ROOT
HETATM    1  C7  UNL     1     -33.981 -58.334   8.337  1.00  0.00    -0.034 A
HETATM    2  C8  UNL     1     -33.200 -59.473   8.576  1.00  0.00     0.012 A
HETATM    3  C9  UNL     1     -32.180 -59.488   9.495  1.00  0.00     0.008 A
HETATM    4  C10 UNL     1     -31.875 -58.369  10.232  1.00  0.00    -0.058 A
HETATM    5  C16 UNL     1     -32.635 -57.221  10.019  1.00  0.00     0.008 A
HETATM    6  C17 UNL     1     -33.647 -57.202   9.110  1.00  0.00     0.012 A
ENDROOT
BRANCH   1   7
HETATM    7  C6  UNL     1     -34.952 -58.229   7.293  1.00  0.00     0.043 C
BRANCH   7   8
HETATM    8  C5  UNL     1     -35.404 -57.818   6.209  1.00  0.00     0.062 A
HETATM    9  C2  UNL     1     -36.026 -58.978   5.094  1.00  0.00     0.052 A
HETATM   10  C1  UNL     1     -35.488 -59.846   5.746  1.00  0.00     0.045 C
HETATM   11  N1  UNL     1     -36.585 -58.075   4.416  1.00  0.00    -0.318 N
HETATM   12  C3  UNL     1     -36.880 -56.860   4.175  1.00  0.00     0.314 A
ATOM     13  H1  UNL     1     -37.044 -58.589   3.663  1.00  0.00     0.169 HD
HETATM   14  O1  UNL     1     -37.574 -56.439   3.227  1.00  0.00    -0.262 OA
HETATM   15  C4  UNL     1     -36.351 -55.937   5.090  1.00  0.00     0.314 A
HETATM   16  O2  UNL     1     -36.564 -54.746   4.950  1.00  0.00    -0.262 OA
HETATM   17  N2  UNL     1     -35.648 -56.558   6.032  1.00  0.00    -0.317 N
ATOM     18  H2  UNL     1     -35.234 -55.942   6.732  1.00  0.00     0.169 HD
ENDBRANCH   7   8
ENDBRANCH   1   7
BRANCH   4  19
HETATM   19  C11 UNL     1     -30.756 -58.361  11.183  1.00  0.00     0.038 C
BRANCH  19  20
HETATM   20  C12 UNL     1     -29.559 -59.043  10.595  1.00  0.00     0.005 C
BRANCH  20  21
HETATM   21  C13 UNL     1     -28.569 -58.017  10.048  1.00  0.00     0.002 C
BRANCH  21  22
HETATM   22  C14 UNL     1     -28.638 -57.853   8.569  1.00  0.00     0.027 C
BRANCH  22  23
HETATM   23  C15 UNL     1     -29.271 -56.485   8.315  1.00  0.00     0.229 C
BRANCH  23  24
HETATM   24  N3  UNL     1     -28.890 -55.524   9.314  1.00  0.00    -0.079 N
ATOM     25  H33 UNL     1     -29.588 -54.787   9.406  1.00  0.00     0.274 HD
ATOM     26  H32 UNL     1     -28.950 -55.920  10.253  1.00  0.00     0.274 HD
ATOM     27  H31 UNL     1     -27.964 -55.137   9.134  1.00  0.00     0.274 HD
ENDBRANCH  23  24
ENDBRANCH  22  23
ENDBRANCH  21  22
ENDBRANCH  20  21
ENDBRANCH  19  20
ENDBRANCH   4  19
TORSDOF 8
ENDMDL