MODEL 1
REMARK VINA RESULT: -4.986946166      0.000      0.000
REMARK  8 active torsions:
REMARK  status: ('A' for Active; 'I' for Inactive)
REMARK    1  A    between atoms: C3_3  and  C4_4
REMARK    2  A    between atoms: C6_9  and  C7_10
REMARK    3  A    between atoms: C7_10  and  C8_11
REMARK    4  A    between atoms: C12_18  and  C13_19
REMARK    5  A    between atoms: C13_19  and  C14_20
REMARK    6  A    between atoms: C14_20  and  N3_21
REMARK    7  A    between atoms: C19_29  and  C20_30
REMARK    8  A    between atoms: C22_32  and  C23_33
ROOT
HETATM    1  C4  UNL     1     -25.369   9.859  53.527  1.00  0.00     0.199 C
HETATM    2  N1  UNL     1     -26.064   8.685  53.026  1.00  0.00    -0.343 N
ATOM      3  H1  UNL     1     -27.000   8.537  53.402  1.00  0.00     0.163 HD
HETATM    4  C5  UNL     1     -25.634   7.739  52.113  1.00  0.00     0.241 C
HETATM    5  O1  UNL     1     -25.571   6.524  52.552  1.00  0.00    -0.271 OA
HETATM    6  C6  UNL     1     -25.228   7.899  50.695  1.00  0.00     0.177 C
HETATM    7  N2  UNL     1     -24.869   9.243  50.326  1.00  0.00    -0.346 N
ATOM      8  H2  UNL     1     -25.629   9.919  50.238  1.00  0.00     0.163 HD
HETATM    9  C11 UNL     1     -23.557   9.714  50.074  1.00  0.00     0.241 C
HETATM   10  O2  UNL     1     -23.457  10.741  49.364  1.00  0.00    -0.271 OA
HETATM   11  C12 UNL     1     -22.334   9.098  50.578  1.00  0.00     0.178 C
HETATM   12  N4  UNL     1     -21.614  10.140  51.287  1.00  0.00    -0.347 N
ATOM     13  H4  UNL     1     -21.082  10.795  50.715  1.00  0.00     0.163 HD
HETATM   14  C18 UNL     1     -21.572  10.341  52.668  1.00  0.00     0.224 C
HETATM   15  O3  UNL     1     -21.832  11.535  53.087  1.00  0.00    -0.273 OA
HETATM   16  C19 UNL     1     -21.272   9.389  53.738  1.00  0.00     0.100 C
HETATM   17  C22 UNL     1     -22.403   8.723  54.402  1.00  0.00     0.099 C
HETATM   18  N5  UNL     1     -23.349   9.516  55.130  1.00  0.00    -0.349 N
HETATM   19  C25 UNL     1     -22.854  10.265  56.265  1.00  0.00     0.153 C
HETATM   20  C26 UNL     1     -24.734   9.622  54.858  1.00  0.00     0.246 C
HETATM   21  O4  UNL     1     -25.596   9.513  55.809  1.00  0.00    -0.271 OA
ENDROOT
BRANCH  11  22
HETATM   22  C13 UNL     1     -21.509   8.535  49.475  1.00  0.00     0.063 C
BRANCH  22  23
HETATM   23  C14 UNL     1     -20.238   9.259  49.189  1.00  0.00     0.238 C
BRANCH  23  24
HETATM   24  N3  UNL     1     -20.179   9.634  47.773  1.00  0.00    -0.079 N
HETATM   25  C15 UNL     1     -18.899   9.287  47.184  1.00  0.00     0.271 C
HETATM   26  C16 UNL     1     -20.371  11.063  47.600  1.00  0.00     0.271 C
HETATM   27  C17 UNL     1     -21.205   8.960  47.012  1.00  0.00     0.271 C
ENDBRANCH  23  24
ENDBRANCH  22  23
ENDBRANCH  11  22
BRANCH   6  28
HETATM   28  C7  UNL     1     -26.349   7.510  49.738  1.00  0.00     0.038 C
BRANCH  28  29
HETATM   29  C8  UNL     1     -25.970   6.508  48.707  1.00  0.00    -0.020 C
HETATM   30  C9  UNL     1     -26.889   5.309  48.641  1.00  0.00     0.009 C
HETATM   31  C10 UNL     1     -24.591   5.931  49.065  1.00  0.00     0.009 C
ENDBRANCH  28  29
ENDBRANCH   6  28
BRANCH  16  32
HETATM   32  C20 UNL     1     -20.255  10.055  54.637  1.00  0.00     0.012 C
HETATM   33  C21 UNL     1     -18.864   9.744  54.056  1.00  0.00     0.006 C
ENDBRANCH  16  32
BRANCH  17  34
HETATM   34  C23 UNL     1     -21.833   7.601  55.294  1.00  0.00     0.022 C
HETATM   35  C24 UNL     1     -21.395   6.501  54.345  1.00  0.00     0.007 C
ENDBRANCH  17  34
BRANCH   1  36
HETATM   36  C3  UNL     1     -26.414  10.929  53.793  1.00  0.00     0.003 C
HETATM   37  C2  UNL     1     -27.165  11.370  52.814  1.00  0.00    -0.033 C
HETATM   38  C1  UNL     1     -28.204  12.407  52.986  1.00  0.00     0.036 C
ENDBRANCH   1  36
TORSDOF 8
ENDMDL