MODEL 4
REMARK VINA RESULT: -5.862206307      1.996      2.857
REMARK  13 active torsions:
REMARK  status: ('A' for Active; 'I' for Inactive)
REMARK    1  A    between atoms: N1_1  and  C1_4
REMARK    2  A    between atoms: C4_7  and  C5_8
REMARK    3  A    between atoms: C6_9  and  C7_10
REMARK    4  A    between atoms: N2_13  and  C10_14
REMARK    5  A    between atoms: C10_14  and  C11_15
REMARK    6  A    between atoms: C11_15  and  C12_16
REMARK    7  A    between atoms: C12_16  and  C13_17
REMARK    8  A    between atoms: C18_23  and  N4_24
REMARK    9  A    between atoms: N6_30  and  C20_31
REMARK   10  A    between atoms: C20_31  and  C21_32
REMARK   11  A    between atoms: C21_32  and  C22_33
REMARK   12  A    between atoms: C22_33  and  C23_34
REMARK   13  A    between atoms: C23_34  and  S1_35
ROOT
HETATM    1  C13 UNL     1     -28.347   7.046  52.480  1.00  0.00    -0.054 A
HETATM    2  C14 UNL     1     -29.550   7.582  52.948  1.00  0.00     0.026 A
HETATM    3  C15 UNL     1     -29.742   8.927  53.155  1.00  0.00     0.117 A
HETATM    4  N3  UNL     1     -28.711   9.776  52.892  1.00  0.00    -0.261 N
HETATM    5  C16 UNL     1     -27.556   9.290  52.445  1.00  0.00     0.100 A
HETATM    6  C17 UNL     1     -27.336   7.935  52.227  1.00  0.00     0.042 A
HETATM    7  C18 UNL     1     -26.483  10.125  52.168  1.00  0.00     0.129 A
HETATM    8  N5  UNL     1     -26.658  11.428  52.368  1.00  0.00    -0.336 N
ATOM      9  H5  UNL     1     -25.896  12.078  52.177  1.00  0.00     0.168 HD
HETATM   10  C19 UNL     1     -27.853  11.896  52.825  1.00  0.00     0.202 A
HETATM   11  N6  UNL     1     -28.890  11.091  53.093  1.00  0.00    -0.281 N
ENDROOT
BRANCH   1  12
HETATM   12  C12 UNL     1     -28.242   5.580  52.312  1.00  0.00     0.040 C
BRANCH  12  13
HETATM   13  C11 UNL     1     -28.039   5.246  50.864  1.00  0.00     0.025 C
BRANCH  13  14
HETATM   14  C10 UNL     1     -26.639   4.802  50.625  1.00  0.00     0.128 C
BRANCH  14  15
HETATM   15  N2  UNL     1     -25.855   5.800  49.911  1.00  0.00    -0.366 N
HETATM   16  C9  UNL     1     -24.520   5.892  50.085  1.00  0.00     0.092 A
HETATM   17  C8  UNL     1     -23.794   6.851  49.394  1.00  0.00     0.038 A
HETATM   18  C7  UNL     1     -24.419   7.716  48.528  1.00  0.00     0.020 A
HETATM   19  C25 UNL     1     -25.790   7.585  48.381  1.00  0.00     0.038 A
HETATM   20  C24 UNL     1     -26.508   6.621  49.078  1.00  0.00     0.092 A
BRANCH  18  21
HETATM   21  C6  UNL     1     -23.651   8.703  47.822  1.00  0.00    -0.061 C
HETATM   22  C5  UNL     1     -23.018   9.531  47.212  1.00  0.00    -0.060 C
BRANCH  22  23
HETATM   23  C4  UNL     1     -22.262  10.498  46.468  1.00  0.00     0.033 A
HETATM   24  C3  UNL     1     -20.931  10.747  46.760  1.00  0.00     0.026 A
HETATM   25  C2  UNL     1     -20.216  11.678  46.037  1.00  0.00     0.049 A
HETATM   26  C1  UNL     1     -20.812  12.375  45.017  1.00  0.00     0.098 A
HETATM   27  N7  UNL     1     -22.098  12.135  44.734  1.00  0.00    -0.351 N
HETATM   28  C26 UNL     1     -22.805  11.234  45.426  1.00  0.00     0.110 A
ATOM     29  H7  UNL     1     -22.547  12.648  43.976  1.00  0.00     0.166 HD
BRANCH  26  30
HETATM   30  N1  UNL     1     -20.171  13.261  44.312  1.00  0.00    -0.385 N
ATOM     31  H12 UNL     1     -20.088  14.211  44.675  1.00  0.00     0.157 HD
ATOM     32  H11 UNL     1     -19.749  13.040  43.409  1.00  0.00     0.157 HD
ENDBRANCH  26  30
ENDBRANCH  22  23
ENDBRANCH  18  21
ENDBRANCH  14  15
ENDBRANCH  13  14
ENDBRANCH  12  13
ENDBRANCH   1  12
BRANCH   7  33
HETATM   33  N4  UNL     1     -25.359   9.633  51.731  1.00  0.00    -0.384 N
ATOM     34  H42 UNL     1     -24.781   9.010  52.296  1.00  0.00     0.157 HD
ATOM     35  H41 UNL     1     -25.022   9.862  50.796  1.00  0.00     0.157 HD
ENDBRANCH   7  33
BRANCH  11  36
HETATM   36  C20 UNL     1     -30.185  11.561  53.560  1.00  0.00     0.150 C
BRANCH  36  37
HETATM   37  C21 UNL     1     -30.218  12.000  54.978  1.00  0.00     0.023 C
BRANCH  37  38
HETATM   38  C22 UNL     1     -30.163  10.868  55.941  1.00  0.00     0.018 C
BRANCH  38  39
HETATM   39  C23 UNL     1     -29.001  10.886  56.882  1.00  0.00     0.157 C
BRANCH  39  40
HETATM   40  S1  UNL     1     -27.891   9.799  56.423  1.00  0.00     0.250 S
HETATM   41  O1  UNL     1     -26.766  10.142  55.790  1.00  0.00    -0.212 OA
HETATM   42  O2  UNL     1     -28.307   8.344  56.346  1.00  0.00    -0.212 OA
ENDBRANCH  39  40
ENDBRANCH  38  39
ENDBRANCH  37  38
ENDBRANCH  36  37
ENDBRANCH  11  36
TORSDOF 13
ENDMDL