MODEL 5
REMARK VINA RESULT: -5.996041909      4.150      6.491
REMARK  15 active torsions:
REMARK  status: ('A' for Active; 'I' for Inactive)
REMARK    1  A    between atoms: C3_3  and  C4_4
REMARK    2  A    between atoms: C4_4  and  C5_5
REMARK    3  A    between atoms: C5_5  and  C6_6
REMARK    4  A    between atoms: C7_7  and  C8_8
REMARK    5  A    between atoms: C8_8  and  C9_9
REMARK    6  A    between atoms: C9_9  and  C10_10
REMARK    7  A    between atoms: C12_16  and  C13_17
REMARK    8  A    between atoms: C13_17  and  N3_18
REMARK    9  A    between atoms: C13_17  and  C14_22
REMARK   10  A    between atoms: C14_22  and  N4_23
REMARK   11  A    between atoms: C19_28  and  C20_29
REMARK   12  A    between atoms: C21_30  and  C22_31
REMARK   13  A    between atoms: C22_31  and  C23_32
REMARK   14  A    between atoms: C23_32  and  N5_33
REMARK       I    between atoms: N5_33  and  C24_35
REMARK   15  A    between atoms: N7_42  and  O2_43
ROOT
HETATM    1  C1  UNL     1     -29.468   2.226  40.312  1.00  0.00     0.112 C
HETATM    2  C2  UNL     1     -29.882   1.885  41.668  1.00  0.00    -0.111 C
HETATM    3  C3  UNL     1     -30.243   1.597  42.782  1.00  0.00    -0.107 C
ENDROOT
BRANCH   3   4
HETATM    4  C4  UNL     1     -30.702   1.249  44.124  1.00  0.00     0.098 C
BRANCH   4   5
HETATM    5  C5  UNL     1     -30.210   2.251  45.154  1.00  0.00     0.039 C
BRANCH   5   6
HETATM    6  C6  UNL     1     -28.752   2.403  44.931  1.00  0.00    -0.026 C
HETATM    7  C7  UNL     1     -28.018   3.341  45.468  1.00  0.00    -0.004 C
BRANCH   7   8
HETATM    8  C8  UNL     1     -28.496   4.377  46.362  1.00  0.00     0.002 C
BRANCH   8   9
HETATM    9  C9  UNL     1     -28.028   4.485  47.612  1.00  0.00     0.031 C
BRANCH   9  10
HETATM   10  C10 UNL     1     -28.747   3.842  48.700  1.00  0.00     0.058 A
HETATM   11  N1  UNL     1     -29.365   2.642  48.706  1.00  0.00    -0.351 N
HETATM   12  C11 UNL     1     -29.922   2.380  49.885  1.00  0.00     0.181 A
ATOM     13  H1  UNL     1     -29.400   2.013  47.904  1.00  0.00     0.166 HD
HETATM   14  N2  UNL     1     -29.645   3.455  50.654  1.00  0.00    -0.352 N
HETATM   15  C12 UNL     1     -28.938   4.351  49.964  1.00  0.00     0.069 A
ATOM     16  H2  UNL     1     -29.935   3.566  51.625  1.00  0.00     0.166 HD
BRANCH  15  17
HETATM   17  C13 UNL     1     -28.426   5.668  50.419  1.00  0.00     0.255 C
BRANCH  17  18
HETATM   18  N3  UNL     1     -29.241   6.173  51.499  1.00  0.00    -0.068 N
ATOM     19  H33 UNL     1     -29.912   6.869  51.177  1.00  0.00     0.275 HD
ATOM     20  H32 UNL     1     -29.902   5.473  51.838  1.00  0.00     0.275 HD
ATOM     21  H31 UNL     1     -28.649   6.532  52.249  1.00  0.00     0.275 HD
ENDBRANCH  17  18
BRANCH  17  22
HETATM   22  C14 UNL     1     -27.015   5.515  50.920  1.00  0.00     0.187 C
BRANCH  22  23
HETATM   23  N4  UNL     1     -26.159   6.413  50.129  1.00  0.00    -0.298 N
HETATM   24  C15 UNL     1     -24.813   6.442  50.114  1.00  0.00     0.146 A
HETATM   25  C16 UNL     1     -24.375   7.420  49.247  1.00  0.00     0.126 A
HETATM   26  C17 UNL     1     -25.516   7.988  48.733  1.00  0.00     0.083 A
HETATM   27  N7  UNL     1     -23.157   7.869  48.857  1.00  0.00    -0.157 N
HETATM   28  C18 UNL     1     -25.340   9.018  47.818  1.00  0.00     0.074 A
HETATM   29  N8  UNL     1     -26.539   7.357  49.286  1.00  0.00    -0.296 N
HETATM   30  C19 UNL     1     -24.089   9.460  47.434  1.00  0.00     0.108 A
HETATM   31  N6  UNL     1     -23.021   8.852  47.984  1.00  0.00    -0.262 N
HETATM   32  C28 UNL     1     -21.707   9.334  47.567  1.00  0.00     0.181 C
ATOM     33  H8  UNL     1     -27.514   7.575  49.083  1.00  0.00     0.187 HD
BRANCH  30  34
HETATM   34  C20 UNL     1     -23.915  10.537  46.479  1.00  0.00    -0.046 C
HETATM   35  C21 UNL     1     -23.754  11.429  45.701  1.00  0.00    -0.088 C
BRANCH  35  36
HETATM   36  C22 UNL     1     -23.543  12.546  44.757  1.00  0.00     0.040 A
HETATM   37  C26 UNL     1     -23.870  13.889  45.306  1.00  0.00     0.026 A
HETATM   38  C27 UNL     1     -24.758  13.265  44.279  1.00  0.00     0.026 A
BRANCH  36  39
HETATM   39  C23 UNL     1     -22.462  12.358  43.733  1.00  0.00     0.145 C
BRANCH  39  40
HETATM   40  N5  UNL     1     -21.180  12.738  44.246  1.00  0.00    -0.360 N
HETATM   41  C24 UNL     1     -20.233  11.746  44.587  1.00  0.00     0.213 C
HETATM   42  C25 UNL     1     -18.918  12.130  45.112  1.00  0.00     0.117 C
HETATM   43  O1  UNL     1     -20.520  10.538  44.438  1.00  0.00    -0.274 OA
ATOM     44  H5  UNL     1     -20.950  13.724  44.366  1.00  0.00     0.162 HD
ENDBRANCH  39  40
ENDBRANCH  36  39
ENDBRANCH  35  36
ENDBRANCH  30  34
BRANCH  27  45
HETATM   45  O2  UNL     1     -22.054   7.261  49.407  1.00  0.00    -0.267 OA
ATOM     46  H2  UNL     1     -21.616   6.598  48.887  1.00  0.00     0.247 HD
ENDBRANCH  27  45
ENDBRANCH  22  23
ENDBRANCH  17  22
ENDBRANCH  15  17
ENDBRANCH   9  10
ENDBRANCH   8   9
ENDBRANCH   7   8
ENDBRANCH   5   6
ENDBRANCH   4   5
ENDBRANCH   3   4
TORSDOF 15
ENDMDL