MODEL 2
REMARK VINA RESULT: -6.837292783      3.111      8.045
REMARK  13 active torsions:
REMARK  status: ('A' for Active; 'I' for Inactive)
REMARK    1  A    between atoms: C2_2  and  C3_3
REMARK    2  A    between atoms: C3_3  and  O1_4
REMARK    3  A    between atoms: O1_4  and  C4_5
REMARK    4  A    between atoms: C4_5  and  C5_6
REMARK    5  A    between atoms: C9_10  and  C10_11
REMARK    6  A    between atoms: C10_11  and  C11_12
REMARK    7  A    between atoms: C11_12  and  N1_13
REMARK    8  A    between atoms: C17_21  and  N3_22
REMARK    9  A    between atoms: N3_22  and  C18_24
REMARK   10  A    between atoms: C18_24  and  C19_25
REMARK   11  A    between atoms: C19_25  and  C20_26
REMARK   12  A    between atoms: C22_30  and  N5_31
REMARK   13  A    between atoms: N6_34  and  O2_35
REMARK       I    between atoms: N7_38  and  C25_40
ROOT
HETATM    1  N3  UNL     1     -21.480   9.551  45.847  1.00  0.00    -0.331 N
ATOM      2  H3  UNL     1     -21.698   8.649  45.424  1.00  0.00     0.168 HD
ENDROOT
BRANCH   1   3
HETATM    3  C17 UNL     1     -21.800  10.419  45.050  1.00  0.00     0.117 A
HETATM    4  N1  UNL     1     -20.962  10.543  43.952  1.00  0.00    -0.328 N
HETATM    5  C12 UNL     1     -21.248  11.483  43.052  1.00  0.00     0.184 A
HETATM    6  N2  UNL     1     -22.302  12.294  43.180  1.00  0.00    -0.355 N
HETATM    7  C13 UNL     1     -23.143  12.215  44.222  1.00  0.00     0.015 A
ATOM      8  H2  UNL     1     -22.473  12.997  42.462  1.00  0.00     0.166 HD
HETATM    9  C14 UNL     1     -24.309  13.110  44.388  1.00  0.00     0.069 C
HETATM   10  C15 UNL     1     -22.889  11.240  45.199  1.00  0.00     0.004 A
HETATM   11  C16 UNL     1     -23.852  11.145  46.333  1.00  0.00     0.054 C
BRANCH   4  12
HETATM   12  C11 UNL     1     -19.819   9.657  43.835  1.00  0.00     0.136 C
BRANCH  12  13
HETATM   13  C10 UNL     1     -19.979   8.631  42.740  1.00  0.00     0.058 C
BRANCH  13  14
HETATM   14  C9  UNL     1     -20.144   7.252  43.202  1.00  0.00    -0.056 A
HETATM   15  C8  UNL     1     -19.728   6.883  44.468  1.00  0.00     0.007 A
HETATM   16  C7  UNL     1     -19.850   5.603  44.925  1.00  0.00     0.001 A
HETATM   17  C6  UNL     1     -20.397   4.633  44.137  1.00  0.00     0.009 A
HETATM   18  C5  UNL     1     -20.821   4.977  42.871  1.00  0.00    -0.034 A
HETATM   19  C26 UNL     1     -20.700   6.268  42.401  1.00  0.00     0.016 A
BRANCH  18  20
HETATM   20  C4  UNL     1     -21.423   3.930  41.976  1.00  0.00     0.206 C
BRANCH  20  21
HETATM   21  O1  UNL     1     -22.203   4.576  41.051  1.00  0.00    -0.383 OA
BRANCH  21  22
HETATM   22  C3  UNL     1     -23.510   4.099  40.991  1.00  0.00     0.194 C
BRANCH  22  23
HETATM   23  C2  UNL     1     -24.476   4.915  41.740  1.00  0.00    -0.011 C
HETATM   24  C1  UNL     1     -25.733   5.003  41.328  1.00  0.00     0.009 C
ENDBRANCH  22  23
ENDBRANCH  21  22
ENDBRANCH  20  21
ENDBRANCH  18  20
ENDBRANCH  13  14
ENDBRANCH  12  13
ENDBRANCH   4  12
ENDBRANCH   1   3
BRANCH   1  25
HETATM   25  C18 UNL     1     -20.935   9.307  47.110  1.00  0.00     0.089 C
HETATM   26  N7  UNL     1     -19.895   9.877  47.443  1.00  0.00    -0.320 N
HETATM   27  C25 UNL     1     -18.978  10.022  48.442  1.00  0.00     0.187 C
ATOM     28  H7  UNL     1     -19.607  10.476  46.669  1.00  0.00     0.169 HD
HETATM   29  N8  UNL     1     -19.014  10.887  49.401  1.00  0.00    -0.373 N
HETATM   30  N9  UNL     1     -17.827   9.159  48.456  1.00  0.00    -0.064 NA
ATOM     31  H82 UNL     1     -19.830  11.498  49.391  1.00  0.00     0.158 HD
ATOM     32  H81 UNL     1     -18.328  10.995  50.147  1.00  0.00     0.158 HD
BRANCH  25  33
HETATM   33  C19 UNL     1     -21.671   8.332  47.939  1.00  0.00     0.118 C
BRANCH  33  34
HETATM   34  C20 UNL     1     -22.825   8.790  48.707  1.00  0.00    -0.017 A
HETATM   35  C21 UNL     1     -22.708   9.737  49.711  1.00  0.00     0.115 A
HETATM   36  N4  UNL     1     -23.787  10.093  50.395  1.00  0.00    -0.199 N
HETATM   37  C22 UNL     1     -25.018   9.600  50.191  1.00  0.00     0.703 A
ATOM     38  H4  UNL     1     -23.672  10.793  51.129  1.00  0.00     0.183 HD
HETATM   39  N6  UNL     1     -25.135   8.664  49.199  1.00  0.00    -0.064 N
HETATM   40  C24 UNL     1     -24.099   8.259  48.475  1.00  0.00     0.151 A
BRANCH  37  41
HETATM   41  N5  UNL     1     -26.061   9.907  50.833  1.00  0.00    -0.228 N
HETATM   42  C23 UNL     1     -26.407   9.710  52.193  1.00  0.00     0.165 C
ATOM     43  H5  UNL     1     -26.776  10.378  50.278  1.00  0.00     0.177 HD
ENDBRANCH  37  41
BRANCH  39  44
HETATM   44  O2  UNL     1     -26.415   8.135  48.972  1.00  0.00    -0.270 OA
ATOM     45  H2  UNL     1     -26.953   8.574  48.325  1.00  0.00     0.245 HD
ENDBRANCH  39  44
ENDBRANCH  33  34
ENDBRANCH  25  33
ENDBRANCH   1  25
TORSDOF 13
ENDMDL