MODEL 3
REMARK VINA RESULT: -6.776244843      2.427      4.097
REMARK  8 active torsions:
REMARK  status: ('A' for Active; 'I' for Inactive)
REMARK    1  A    between atoms: C2_2  and  C3_3
REMARK    2  A    between atoms: C4_4  and  C5_5
REMARK    3  A    between atoms: C5_5  and  C6_6
REMARK    4  A    between atoms: C6_6  and  C7_7
REMARK    5  A    between atoms: C7_7  and  N1_8
REMARK    6  A    between atoms: C9_15  and  C10_16
REMARK    7  A    between atoms: C10_16  and  N5_17
REMARK    8  A    between atoms: C19_28  and  C20_29
REMARK       I    between atoms: C20_29  and  N7_31
REMARK       I    between atoms: C21_33  and  N9_35
ROOT
HETATM    1  N5  UNL     1     -25.045   8.509  49.131  1.00  0.00    -0.309 N
HETATM    2  C11 UNL     1     -25.203   9.478  50.165  1.00  0.00     0.275 A
HETATM    3  O1  UNL     1     -24.719  10.630  49.934  1.00  0.00    -0.265 OA
HETATM    4  C12 UNL     1     -25.872   9.200  51.419  1.00  0.00     0.100 A
HETATM    5  C13 UNL     1     -26.127   9.951  52.498  1.00  0.00     0.010 A
HETATM    6  C14 UNL     1     -26.852   9.174  53.524  1.00  0.00     0.049 A
HETATM    7  C15 UNL     1     -27.017   7.811  52.939  1.00  0.00     0.133 A
HETATM    8  N6  UNL     1     -26.394   7.891  51.619  1.00  0.00    -0.343 N
HETATM    9  C16 UNL     1     -26.220   6.953  50.568  1.00  0.00     0.048 A
HETATM   10  C17 UNL     1     -25.615   7.197  49.431  1.00  0.00     0.040 A
HETATM   11  C18 UNL     1     -25.857   5.827  48.894  1.00  0.00     0.080 A
HETATM   12  C19 UNL     1     -26.567   5.526  50.192  1.00  0.00     0.136 A
ENDROOT
BRANCH   1  13
HETATM   13  C10 UNL     1     -24.502   8.789  47.854  1.00  0.00     0.189 C
BRANCH  13  14
HETATM   14  C9  UNL     1     -23.057   9.121  47.743  1.00  0.00     0.034 A
HETATM   15  N4  UNL     1     -22.664  10.376  47.353  1.00  0.00    -0.361 N
HETATM   16  C4  UNL     1     -21.306  10.408  47.214  1.00  0.00     0.016 A
ATOM     17  H4  UNL     1     -23.291  11.164  47.191  1.00  0.00     0.165 HD
HETATM   18  C3  UNL     1     -20.848   9.149  47.528  1.00  0.00    -0.028 A
HETATM   19  C24 UNL     1     -21.951   8.335  47.864  1.00  0.00    -0.029 A
HETATM   20  C25 UNL     1     -21.820   6.931  48.310  1.00  0.00     0.051 C
BRANCH  16  21
HETATM   21  C5  UNL     1     -20.556  11.591  46.729  1.00  0.00     0.059 C
BRANCH  21  22
HETATM   22  C6  UNL     1     -19.597  11.411  45.621  1.00  0.00     0.026 C
BRANCH  22  23
HETATM   23  C7  UNL     1     -20.084  12.305  44.445  1.00  0.00     0.122 C
BRANCH  23  24
HETATM   24  N1  UNL     1     -20.850  11.592  43.531  1.00  0.00    -0.367 N
HETATM   25  C8  UNL     1     -21.986  11.180  43.337  1.00  0.00     0.196 C
HETATM   26  N2  UNL     1     -22.217  10.440  42.099  1.00  0.00    -0.067 NA
HETATM   27  N3  UNL     1     -23.133  11.307  44.151  1.00  0.00    -0.067 NA
ATOM     28  H1  UNL     1     -20.258  11.315  42.747  1.00  0.00     0.161 HD
ENDBRANCH  23  24
ENDBRANCH  22  23
ENDBRANCH  21  22
ENDBRANCH  16  21
BRANCH  18  29
HETATM   29  C2  UNL     1     -19.450   8.675  47.553  1.00  0.00     0.036 C
HETATM   30  C1  UNL     1     -18.716   9.032  48.832  1.00  0.00     0.010 C
ENDBRANCH  18  29
ENDBRANCH  13  14
ENDBRANCH   1  13
BRANCH  12  31
HETATM   31  C20 UNL     1     -28.027   5.334  50.078  1.00  0.00     0.234 C
HETATM   32  O2  UNL     1     -28.574   5.405  48.950  1.00  0.00    -0.272 OA
HETATM   33  N7  UNL     1     -28.857   5.071  51.199  1.00  0.00    -0.301 N
HETATM   34  C21 UNL     1     -29.823   5.921  51.391  1.00  0.00     0.192 C
ATOM     35  H7  UNL     1     -28.708   4.269  51.812  1.00  0.00     0.171 HD
HETATM   36  N8  UNL     1     -30.014   7.043  50.517  1.00  0.00    -0.063 NA
HETATM   37  N9  UNL     1     -30.713   5.734  52.468  1.00  0.00    -0.364 N
HETATM   38  C22 UNL     1     -30.334   4.884  53.578  1.00  0.00     0.151 C
HETATM   39  C23 UNL     1     -32.011   6.395  52.432  1.00  0.00     0.151 C
ENDBRANCH  12  31
TORSDOF 8
ENDMDL