MODEL 3
REMARK VINA RESULT: -6.663170401      4.214      7.499
REMARK  12 active torsions:
REMARK  status: ('A' for Active; 'I' for Inactive)
REMARK    1  A    between atoms: C2_2  and  N1_3
REMARK       I    between atoms: C3_5  and  N3_7
REMARK    2  A    between atoms: N3_7  and  C4_9
REMARK    3  A    between atoms: C6_13  and  C7_14
REMARK    4  A    between atoms: C7_14  and  C8_15
REMARK    5  A    between atoms: C8_15  and  C9_16
REMARK    6  A    between atoms: C9_16  and  C10_17
REMARK    7  A    between atoms: C10_17  and  C11_18
REMARK    8  A    between atoms: C11_18  and  C12_19
REMARK    9  A    between atoms: C17_25  and  C18_26
REMARK   10  A    between atoms: C18_26  and  C19_27
REMARK   11  A    between atoms: C20_28  and  C21_29
REMARK   12  A    between atoms: C22_30  and  C23_31
ROOT
HETATM    1  C12 UNL     1     -25.275   4.178  48.581  1.00  0.00    -0.048 A
HETATM    2  C13 UNL     1     -25.413   3.144  47.677  1.00  0.00     0.025 A
HETATM    3  C14 UNL     1     -26.542   2.978  46.889  1.00  0.00     0.090 A
HETATM    4  N5  UNL     1     -27.558   3.842  46.987  1.00  0.00    -0.370 N
HETATM    5  C15 UNL     1     -28.754   3.689  46.183  1.00  0.00     0.154 C
HETATM    6  C16 UNL     1     -27.439   4.852  47.858  1.00  0.00     0.098 A
HETATM    7  C17 UNL     1     -26.331   5.057  48.662  1.00  0.00    -0.025 A
ENDROOT
BRANCH   1   8
HETATM    8  C11 UNL     1     -24.113   4.390  49.446  1.00  0.00     0.039 C
BRANCH   8   9
HETATM    9  C10 UNL     1     -22.849   4.810  48.796  1.00  0.00     0.005 C
BRANCH   9  10
HETATM   10  C9  UNL     1     -22.314   6.077  49.328  1.00  0.00     0.001 C
BRANCH  10  11
HETATM   11  C8  UNL     1     -21.691   7.000  48.267  1.00  0.00     0.005 C
BRANCH  11  12
HETATM   12  C7  UNL     1     -21.366   8.272  49.023  1.00  0.00     0.048 C
BRANCH  12  13
HETATM   13  C6  UNL     1     -20.324   9.040  48.286  1.00  0.00     0.001 A
HETATM   14  C5  UNL     1     -19.872  10.310  48.486  1.00  0.00     0.104 A
HETATM   15  N4  UNL     1     -18.925  10.768  47.717  1.00  0.00    -0.345 N
HETATM   16  C4  UNL     1     -18.442   9.962  46.765  1.00  0.00     0.151 A
ATOM     17  H4  UNL     1     -18.561  11.714  47.837  1.00  0.00     0.167 HD
HETATM   18  S1  UNL     1     -19.351   8.534  46.970  1.00  0.00    -0.057 SA
BRANCH  16  19
HETATM   19  N3  UNL     1     -17.495  10.243  45.894  1.00  0.00    -0.311 N
HETATM   20  C3  UNL     1     -17.686   9.739  44.582  1.00  0.00     0.190 C
HETATM   21  N1  UNL     1     -18.705  10.151  43.914  1.00  0.00    -0.365 N
HETATM   22  N2  UNL     1     -16.755   8.790  44.031  1.00  0.00    -0.063 NA
ATOM     23  H1  UNL     1     -19.320  10.825  44.369  1.00  0.00     0.162 HD
ATOM     24  H3  UNL     1     -16.673  10.790  46.148  1.00  0.00     0.170 HD
BRANCH  21  25
HETATM   25  C2  UNL     1     -19.046   9.747  42.591  1.00  0.00     0.118 C
HETATM   26  C1  UNL     1     -20.417  10.254  42.248  1.00  0.00     0.026 C
ENDBRANCH  21  25
ENDBRANCH  16  19
ENDBRANCH  12  13
ENDBRANCH  11  12
ENDBRANCH  10  11
ENDBRANCH   9  10
ENDBRANCH   8   9
ENDBRANCH   1   8
BRANCH   7  27
HETATM   27  C18 UNL     1     -26.343   6.254  49.541  1.00  0.00     0.135 C
BRANCH  27  28
HETATM   28  C19 UNL     1     -25.704   7.372  48.791  1.00  0.00    -0.088 C
HETATM   29  C20 UNL     1     -25.185   8.259  48.160  1.00  0.00    -0.014 C
BRANCH  29  30
HETATM   30  C21 UNL     1     -24.568   9.286  47.389  1.00  0.00    -0.008 C
HETATM   31  C22 UNL     1     -24.018  10.164  46.738  1.00  0.00    -0.034 C
BRANCH  31  32
HETATM   32  C23 UNL     1     -23.360  11.198  45.988  1.00  0.00     0.097 A
HETATM   33  C24 UNL     1     -24.085  12.155  45.292  1.00  0.00     0.113 A
HETATM   34  C25 UNL     1     -23.438  13.140  44.580  1.00  0.00     0.252 A
HETATM   35  O1  UNL     1     -24.141  13.970  43.977  1.00  0.00    -0.268 OA
HETATM   36  N6  UNL     1     -22.087  13.130  44.590  1.00  0.00    -0.275 N
HETATM   37  C26 UNL     1     -21.368  12.211  45.257  1.00  0.00     0.328 A
ATOM     38  H6  UNL     1     -21.590  13.853  44.068  1.00  0.00     0.173 HD
HETATM   39  O2  UNL     1     -20.102  12.261  45.222  1.00  0.00    -0.247 OA
HETATM   40  N7  UNL     1     -22.019  11.244  45.957  1.00  0.00    -0.301 N
ATOM     41  H7  UNL     1     -21.480  10.543  46.466  1.00  0.00     0.171 HD
ENDBRANCH  31  32
ENDBRANCH  29  30
ENDBRANCH  27  28
ENDBRANCH   7  27
TORSDOF 12
ENDMDL