MODEL 3
REMARK VINA RESULT: -6.471130839      2.719      8.711
REMARK  10 active torsions:
REMARK  status: ('A' for Active; 'I' for Inactive)
REMARK    1  A    between atoms: C2_2  and  C3_3
REMARK    2  A    between atoms: C3_3  and  C4_4
REMARK    3  A    between atoms: C4_4  and  C5_5
REMARK    4  A    between atoms: N1_9  and  C9_10
REMARK    5  A    between atoms: C9_10  and  C10_11
REMARK    6  A    between atoms: C10_11  and  C11_12
REMARK    7  A    between atoms: C11_12  and  O1_13
REMARK    8  A    between atoms: O1_13  and  C12_14
REMARK    9  A    between atoms: C15_17  and  C16_18
REMARK   10  A    between atoms: C16_18  and  C17_19
ROOT
HETATM    1  C12 UNL     1     -24.411   5.180  49.667  1.00  0.00     0.142 A
HETATM    2  C13 UNL     1     -24.299   5.270  51.036  1.00  0.00     0.058 A
HETATM    3  C14 UNL     1     -23.727   6.499  51.295  1.00  0.00     0.034 A
HETATM    4  C15 UNL     1     -23.486   7.163  50.114  1.00  0.00     0.035 A
HETATM    5  N5  UNL     1     -23.910   6.341  49.155  1.00  0.00    -0.337 N
ATOM      6  H5  UNL     1     -23.865   6.555  48.158  1.00  0.00     0.168 HD
ENDROOT
BRANCH   1   7
HETATM    7  O1  UNL     1     -24.919   4.154  48.894  1.00  0.00    -0.336 OA
BRANCH   7   8
HETATM    8  C11 UNL     1     -26.231   3.948  48.496  1.00  0.00     0.179 C
BRANCH   8   9
HETATM    9  C10 UNL     1     -27.204   5.032  48.818  1.00  0.00     0.048 C
BRANCH   9  10
HETATM   10  C9  UNL     1     -27.986   4.752  50.086  1.00  0.00     0.150 C
BRANCH  10  11
HETATM   11  N1  UNL     1     -27.902   5.860  51.007  1.00  0.00    -0.302 N
HETATM   12  C8  UNL     1     -27.455   7.082  50.653  1.00  0.00     0.124 A
HETATM   13  C7  UNL     1     -27.505   7.903  51.771  1.00  0.00     0.012 A
HETATM   14  C6  UNL     1     -27.177   9.238  52.006  1.00  0.00     0.040 A
HETATM   15  C25 UNL     1     -27.994   7.135  52.802  1.00  0.00     0.075 A
HETATM   16  C5  UNL     1     -27.325   9.830  53.251  1.00  0.00     0.011 A
HETATM   17  N7  UNL     1     -27.806   9.051  54.236  1.00  0.00    -0.362 N
HETATM   18  C26 UNL     1     -28.134   7.740  54.029  1.00  0.00     0.122 A
HETATM   19  C27 UNL     1     -27.974   9.616  55.553  1.00  0.00     0.155 C
HETATM   20  N6  UNL     1     -28.219   5.910  52.291  1.00  0.00    -0.297 N
ATOM     21  H6  UNL     1     -28.586   5.121  52.824  1.00  0.00     0.187 HD
BRANCH  16  22
HETATM   22  C4  UNL     1     -26.985  11.235  53.492  1.00  0.00     0.057 C
BRANCH  22  23
HETATM   23  C3  UNL     1     -27.814  12.237  52.767  1.00  0.00     0.006 C
BRANCH  23  24
HETATM   24  C2  UNL     1     -28.950  12.833  53.518  1.00  0.00    -0.004 C
HETATM   25  C1  UNL     1     -30.173  11.941  53.510  1.00  0.00     0.005 C
ENDBRANCH  23  24
ENDBRANCH  22  23
ENDBRANCH  16  22
ENDBRANCH  10  11
ENDBRANCH   9  10
ENDBRANCH   8   9
ENDBRANCH   7   8
ENDBRANCH   1   7
BRANCH   4  26
HETATM   26  C16 UNL     1     -22.891   8.486  49.961  1.00  0.00     0.048 C
BRANCH  26  27
HETATM   27  C17 UNL     1     -22.778   9.105  48.808  1.00  0.00     0.050 A
HETATM   28  C18 UNL     1     -21.862   8.774  47.830  1.00  0.00     0.106 A
HETATM   29  N2  UNL     1     -21.832   9.477  46.683  1.00  0.00    -0.350 N
HETATM   30  C19 UNL     1     -22.664  10.515  46.422  1.00  0.00     0.123 A
ATOM     31  H2  UNL     1     -21.147   9.216  45.973  1.00  0.00     0.166 HD
HETATM   32  C20 UNL     1     -22.536  11.122  45.263  1.00  0.00     0.077 A
HETATM   33  N4  UNL     1     -23.549  10.854  47.336  1.00  0.00    -0.308 N
HETATM   34  C21 UNL     1     -21.552  10.772  44.207  1.00  0.00     0.038 A
HETATM   35  C23 UNL     1     -23.264  12.243  44.698  1.00  0.00     0.259 A
HETATM   36  C22 UNL     1     -21.680  11.566  43.175  1.00  0.00     0.092 A
HETATM   37  N3  UNL     1     -22.712  12.506  43.388  1.00  0.00    -0.333 N
ATOM     38  H3  UNL     1     -23.012  13.234  42.740  1.00  0.00     0.168 HD
HETATM   39  O2  UNL     1     -24.202  12.896  45.208  1.00  0.00    -0.267 OA
HETATM   40  C24 UNL     1     -23.611  10.162  48.518  1.00  0.00     0.258 A
ATOM     41  H4  UNL     1     -24.188  11.630  47.165  1.00  0.00     0.170 HD
HETATM   42  O3  UNL     1     -24.480  10.525  49.365  1.00  0.00    -0.267 OA
ENDBRANCH  26  27
ENDBRANCH   4  26
TORSDOF 10
ENDMDL