MODEL 1
REMARK VINA RESULT: -7.699149746      0.000      0.000
REMARK  10 active torsions:
REMARK  status: ('A' for Active; 'I' for Inactive)
REMARK    1  A    between atoms: C5_7  and  C6_8
REMARK    2  A    between atoms: C6_8  and  C7_9
REMARK    3  A    between atoms: C8_12  and  C9_13
REMARK    4  A    between atoms: C9_13  and  C10_14
REMARK    5  A    between atoms: C10_14  and  C11_15
REMARK    6  A    between atoms: C11_15  and  C12_16
REMARK    7  A    between atoms: C15_19  and  C16_20
REMARK    8  A    between atoms: C16_20  and  C17_21
REMARK    9  A    between atoms: C19_23  and  O1_24
REMARK   10  A    between atoms: N3_34  and  C27_35
ROOT
HETATM    1  C1  UNL     1     -24.190  13.761  44.369  1.00  0.00     0.019 C
HETATM    2  C2  UNL     1     -23.225  13.084  44.676  1.00  0.00    -0.057 C
HETATM    3  C3  UNL     1     -22.082  12.276  45.009  1.00  0.00     0.116 C
HETATM    4  C4  UNL     1     -22.330  11.347  45.939  1.00  0.00     0.084 A
HETATM    5  N1  UNL     1     -23.570  11.274  46.440  1.00  0.00    -0.353 N
ATOM      6  H1  UNL     1     -24.341  11.882  46.166  1.00  0.00     0.166 HD
HETATM    7  C5  UNL     1     -23.662  10.282  47.363  1.00  0.00     0.035 A
HETATM    8  C24 UNL     1     -22.414   9.720  47.427  1.00  0.00     0.049 A
HETATM    9  C25 UNL     1     -21.584  10.376  46.548  1.00  0.00     0.064 A
HETATM   10  C26 UNL     1     -20.186   9.973  46.429  1.00  0.00     0.262 C
HETATM   11  O2  UNL     1     -20.059   8.746  46.767  1.00  0.00    -0.267 OA
HETATM   12  N3  UNL     1     -18.956  10.569  46.043  1.00  0.00    -0.282 N
HETATM   13  C28 UNL     1     -18.624  11.852  45.470  1.00  0.00     0.237 C
HETATM   14  C29 UNL     1     -19.506  12.284  44.383  1.00  0.00     0.241 C
HETATM   15  O4  UNL     1     -18.918  12.407  43.255  1.00  0.00    -0.271 OA
HETATM   16  N4  UNL     1     -20.887  12.601  44.296  1.00  0.00    -0.317 N
ATOM     17  H4  UNL     1     -21.077  13.230  43.516  1.00  0.00     0.169 HD
ENDROOT
BRANCH   7  18
HETATM   18  C6  UNL     1     -24.745   9.957  48.051  1.00  0.00     0.059 C
BRANCH  18  19
HETATM   19  C7  UNL     1     -24.584   9.164  49.263  1.00  0.00     0.040 A
HETATM   20  N2  UNL     1     -23.892   9.531  50.363  1.00  0.00    -0.359 N
HETATM   21  C8  UNL     1     -23.959   8.550  51.308  1.00  0.00     0.010 A
ATOM     22  H2  UNL     1     -23.392  10.413  50.471  1.00  0.00     0.166 HD
HETATM   23  C21 UNL     1     -24.724   7.554  50.755  1.00  0.00     0.034 A
HETATM   24  C22 UNL     1     -25.130   7.918  49.466  1.00  0.00    -0.033 A
HETATM   25  C23 UNL     1     -25.971   7.097  48.551  1.00  0.00     0.050 C
BRANCH  21  26
HETATM   26  C9  UNL     1     -23.295   8.636  52.642  1.00  0.00     0.057 C
BRANCH  26  27
HETATM   27  C10 UNL     1     -24.337   8.919  53.700  1.00  0.00     0.011 C
BRANCH  27  28
HETATM   28  C11 UNL     1     -24.597  10.393  53.859  1.00  0.00     0.039 C
BRANCH  28  29
HETATM   29  C12 UNL     1     -26.046  10.661  54.033  1.00  0.00    -0.056 A
HETATM   30  C13 UNL     1     -26.757  10.004  55.026  1.00  0.00     0.008 A
HETATM   31  C14 UNL     1     -28.100  10.308  55.125  1.00  0.00     0.011 A
HETATM   32  C15 UNL     1     -28.741  11.217  54.295  1.00  0.00    -0.022 A
HETATM   33  C19 UNL     1     -27.998  11.846  53.326  1.00  0.00     0.072 A
HETATM   34  C20 UNL     1     -26.641  11.571  53.187  1.00  0.00     0.044 A
BRANCH  32  35
HETATM   35  C16 UNL     1     -30.201  11.472  54.505  1.00  0.00     0.067 C
BRANCH  35  36
HETATM   36  C17 UNL     1     -30.818  10.594  55.503  1.00  0.00    -0.032 C
HETATM   37  C18 UNL     1     -31.348  11.009  56.627  1.00  0.00     0.007 C
ENDBRANCH  35  36
ENDBRANCH  32  35
BRANCH  33  38
HETATM   38  O1  UNL     1     -28.616  12.752  52.491  1.00  0.00    -0.360 OA
ATOM     39  H1  UNL     1     -28.958  13.559  52.857  1.00  0.00     0.217 HD
ENDBRANCH  33  38
ENDBRANCH  28  29
ENDBRANCH  27  28
ENDBRANCH  26  27
ENDBRANCH  21  26
ENDBRANCH  18  19
ENDBRANCH   7  18
BRANCH  12  40
HETATM   40  C27 UNL     1     -17.857   9.716  46.282  1.00  0.00     0.358 C
HETATM   41  O3  UNL     1     -16.858  10.215  46.903  1.00  0.00    -0.283 OA
ENDBRANCH  12  40
TORSDOF 10
ENDMDL