MODEL 3
REMARK VINA RESULT: -7.309735255      1.357      1.578
REMARK  10 active torsions:
REMARK  status: ('A' for Active; 'I' for Inactive)
REMARK    1  A    between atoms: C2_2  and  C3_3
REMARK    2  A    between atoms: C4_4  and  C5_5
REMARK    3  A    between atoms: C5_5  and  C6_6
REMARK    4  A    between atoms: C14_18  and  C15_19
REMARK    5  A    between atoms: C15_19  and  C16_20
REMARK    6  A    between atoms: C16_20  and  C17_21
REMARK    7  A    between atoms: C17_21  and  N3_22
REMARK    8  A    between atoms: N4_25  and  C20_26
REMARK    9  A    between atoms: C24_36  and  C25_37
REMARK   10  A    between atoms: C25_37  and  C26_38
ROOT
HETATM    1  C3  UNL     1     -23.862   9.670  48.966  1.00  0.00    -0.008 A
HETATM    2  C4  UNL     1     -23.629   9.277  50.250  1.00  0.00     0.006 A
HETATM    3  C14 UNL     1     -22.391   9.490  50.906  1.00  0.00     0.047 A
HETATM    4  N5  UNL     1     -21.423  10.107  50.212  1.00  0.00    -0.316 N
HETATM    5  C22 UNL     1     -20.258  10.364  50.672  1.00  0.00     0.130 C
HETATM    6  C23 UNL     1     -21.618  10.525  48.901  1.00  0.00     0.139 A
HETATM    7  N6  UNL     1     -20.809  11.151  48.031  1.00  0.00    -0.284 N
ATOM      8  H6  UNL     1     -19.848  11.441  48.217  1.00  0.00     0.188 HD
HETATM    9  N7  UNL     1     -21.450  11.330  46.907  1.00  0.00    -0.302 N
ATOM     10  H7  UNL     1     -21.066  11.783  46.077  1.00  0.00     0.186 HD
HETATM   11  C24 UNL     1     -22.712  10.821  47.011  1.00  0.00     0.041 A
HETATM   12  C29 UNL     1     -22.845  10.295  48.297  1.00  0.00     0.045 A
ENDROOT
BRANCH   2  13
HETATM   13  C5  UNL     1     -24.694   8.612  51.034  1.00  0.00     0.063 C
BRANCH  13  14
HETATM   14  C6  UNL     1     -25.519   9.390  51.688  1.00  0.00     0.109 A
HETATM   15  N1  UNL     1     -26.199  10.522  51.480  1.00  0.00    -0.328 N
HETATM   16  C7  UNL     1     -26.733  10.493  52.703  1.00  0.00     0.110 A
ATOM     17  H1  UNL     1     -26.279  11.163  50.690  1.00  0.00     0.169 HD
HETATM   18  C8  UNL     1     -27.568  11.256  53.394  1.00  0.00    -0.036 C
HETATM   19  N2  UNL     1     -26.053   9.353  52.923  1.00  0.00    -0.328 N
HETATM   20  C9  UNL     1     -28.159  12.493  52.826  1.00  0.00     0.038 C
HETATM   21  C13 UNL     1     -27.956  10.899  54.783  1.00  0.00     0.038 C
HETATM   22  C10 UNL     1     -29.513  12.720  53.465  1.00  0.00     0.004 C
HETATM   23  C11 UNL     1     -30.160  11.379  53.696  1.00  0.00     0.001 C
HETATM   24  C12 UNL     1     -29.446  10.595  54.779  1.00  0.00     0.004 C
ATOM     25  H2  UNL     1     -25.973   8.714  53.714  1.00  0.00     0.169 HD
ENDBRANCH  13  14
ENDBRANCH   2  13
BRANCH   1  26
HETATM   26  C2  UNL     1     -25.147   9.420  48.341  1.00  0.00     0.003 C
HETATM   27  C1  UNL     1     -25.555   8.226  47.927  1.00  0.00     0.012 C
ENDBRANCH   1  26
BRANCH   3  28
HETATM   28  C15 UNL     1     -22.264   9.082  52.126  1.00  0.00     0.006 C
BRANCH  28  29
HETATM   29  C16 UNL     1     -22.478   9.603  53.456  1.00  0.00     0.049 C
BRANCH  29  30
HETATM   30  C17 UNL     1     -21.120   9.941  54.142  1.00  0.00     0.133 C
BRANCH  30  31
HETATM   31  N3  UNL     1     -21.287  11.235  54.808  1.00  0.00    -0.351 N
HETATM   32  C18 UNL     1     -21.358  12.454  54.257  1.00  0.00     0.109 A
HETATM   33  C19 UNL     1     -21.517  13.383  55.270  1.00  0.00     0.117 A
HETATM   34  N4  UNL     1     -21.542  12.723  56.447  1.00  0.00    -0.295 N
HETATM   35  C21 UNL     1     -21.401  11.425  56.135  1.00  0.00     0.192 A
BRANCH  34  36
HETATM   36  C20 UNL     1     -21.689  13.281  57.752  1.00  0.00     0.360 C
HETATM   37  O1  UNL     1     -22.461  12.711  58.557  1.00  0.00    -0.283 OA
ENDBRANCH  34  36
ENDBRANCH  30  31
ENDBRANCH  29  30
ENDBRANCH  28  29
ENDBRANCH   3  28
BRANCH  11  38
HETATM   38  C25 UNL     1     -23.681  10.807  45.907  1.00  0.00     0.064 C
BRANCH  38  39
HETATM   39  C26 UNL     1     -23.502  11.950  44.910  1.00  0.00    -0.009 A
HETATM   40  C27 UNL     1     -24.767  12.443  44.231  1.00  0.00     0.005 A
HETATM   41  C28 UNL     1     -23.997  13.308  45.169  1.00  0.00     0.005 A
ENDBRANCH  38  39
ENDBRANCH  11  38
TORSDOF 10
ENDMDL