MODEL 1
REMARK VINA RESULT: -6.713409309      0.000      0.000
REMARK  12 active torsions:
REMARK  status: ('A' for Active; 'I' for Inactive)
REMARK    1  A    between atoms: C2_2  and  C3_3
REMARK    2  A    between atoms: C4_4  and  C5_5
REMARK    3  A    between atoms: C5_5  and  O1_7
REMARK    4  A    between atoms: C5_5  and  C7_9
REMARK    5  A    between atoms: C8_10  and  C9_11
REMARK    6  A    between atoms: C9_11  and  N1_12
REMARK    7  A    between atoms: C10_13  and  C11_14
REMARK    8  A    between atoms: C13_19  and  C14_20
REMARK    9  A    between atoms: C21_27  and  C22_28
REMARK   10  A    between atoms: C22_28  and  C23_29
REMARK   11  A    between atoms: C23_29  and  C24_30
REMARK   12  A    between atoms: C24_30  and  N3_31
ROOT
HETATM    1  N1  UNL     1     -23.707   8.393  50.601  1.00  0.00    -0.324 N
HETATM    2  C10 UNL     1     -22.954   8.976  51.468  1.00  0.00     0.147 A
HETATM    3  N2  UNL     1     -23.542   9.623  52.633  1.00  0.00    -0.340 N
ATOM      4  H2  UNL     1     -22.936  10.081  53.314  1.00  0.00     0.167 HD
HETATM    5  C12 UNL     1     -24.938   9.625  52.832  1.00  0.00     0.037 A
HETATM    6  C13 UNL     1     -25.457  10.228  53.846  1.00  0.00     0.059 C
HETATM    7  C27 UNL     1     -25.709   8.953  51.816  1.00  0.00     0.054 A
HETATM    8  C28 UNL     1     -25.156   8.366  50.758  1.00  0.00     0.012 A
HETATM    9  C29 UNL     1     -26.029   7.673  49.771  1.00  0.00     0.068 C
ENDROOT
BRANCH   6  10
HETATM   10  C14 UNL     1     -26.816  10.369  54.268  1.00  0.00     0.043 A
HETATM   11  C15 UNL     1     -27.654  11.304  53.732  1.00  0.00    -0.029 A
HETATM   12  C16 UNL     1     -27.231  12.177  52.617  1.00  0.00     0.051 C
HETATM   13  C17 UNL     1     -28.951  11.446  54.178  1.00  0.00    -0.046 A
HETATM   14  C18 UNL     1     -29.840  12.458  53.572  1.00  0.00     0.049 C
HETATM   15  C19 UNL     1     -29.409  10.611  55.203  1.00  0.00    -0.033 A
HETATM   16  C20 UNL     1     -30.785  10.910  55.676  1.00  0.00     0.050 C
HETATM   17  C21 UNL     1     -28.577   9.670  55.742  1.00  0.00     0.018 A
HETATM   18  N6  UNL     1     -27.299   9.581  55.257  1.00  0.00    -0.354 N
HETATM   19  C26 UNL     1     -26.408   8.623  55.819  1.00  0.00     0.156 C
BRANCH  17  20
HETATM   20  C22 UNL     1     -29.023   8.681  56.750  1.00  0.00     0.059 C
BRANCH  20  21
HETATM   21  C23 UNL     1     -29.937   7.665  56.153  1.00  0.00     0.026 C
BRANCH  21  22
HETATM   22  C24 UNL     1     -29.673   7.034  54.866  1.00  0.00     0.122 C
BRANCH  22  23
HETATM   23  N3  UNL     1     -30.690   7.142  53.846  1.00  0.00    -0.367 N
HETATM   24  C25 UNL     1     -30.401   7.696  52.694  1.00  0.00     0.196 C
HETATM   25  N4  UNL     1     -29.088   8.194  52.438  1.00  0.00    -0.067 NA
HETATM   26  N5  UNL     1     -31.417   7.790  51.715  1.00  0.00    -0.067 NA
ATOM     27  H3  UNL     1     -31.630   6.789  54.021  1.00  0.00     0.161 HD
ENDBRANCH  22  23
ENDBRANCH  21  22
ENDBRANCH  20  21
ENDBRANCH  17  20
ENDBRANCH   6  10
BRANCH   2  28
HETATM   28  C11 UNL     1     -21.513   9.052  51.307  1.00  0.00     0.307 C
HETATM   29  O2  UNL     1     -20.808  10.042  51.144  1.00  0.00    -0.298 OA
ENDBRANCH   2  28
BRANCH   1  30
HETATM   30  C9  UNL     1     -23.192   7.764  49.403  1.00  0.00     0.224 C
BRANCH  30  31
HETATM   31  C8  UNL     1     -22.665   8.729  48.428  1.00  0.00    -0.082 C
HETATM   32  C7  UNL     1     -22.202   9.526  47.636  1.00  0.00    -0.053 C
BRANCH  32  33
HETATM   33  C5  UNL     1     -21.614  10.479  46.677  1.00  0.00     0.181 C
HETATM   34  C6  UNL     1     -20.748   9.673  45.729  1.00  0.00     0.075 C
BRANCH  33  35
HETATM   35  C4  UNL     1     -22.687  11.080  45.849  1.00  0.00    -0.055 C
HETATM   36  C3  UNL     1     -23.550  11.590  45.181  1.00  0.00    -0.103 C
BRANCH  36  37
HETATM   37  C2  UNL     1     -24.604  12.245  44.368  1.00  0.00     0.089 C
HETATM   38  C1  UNL     1     -24.352  13.760  44.347  1.00  0.00     0.018 C
ENDBRANCH  36  37
ENDBRANCH  33  35
BRANCH  33  39
HETATM   39  O1  UNL     1     -20.882  11.439  47.337  1.00  0.00    -0.367 OA
ATOM     40  H1  UNL     1     -19.965  11.199  47.401  1.00  0.00     0.212 HD
ENDBRANCH  33  39
ENDBRANCH  32  33
ENDBRANCH  30  31
ENDBRANCH   1  30
TORSDOF 12
ENDMDL