MODEL 4
REMARK VINA RESULT: -9.832270526      2.122      6.828
REMARK  6 active torsions:
REMARK  status: ('A' for Active; 'I' for Inactive)
REMARK    1  A    between atoms: C4_5  and  C5_6
REMARK    2  A    between atoms: N4_14  and  C9_15
REMARK    3  A    between atoms: C9_15  and  C10_16
REMARK    4  A    between atoms: C11_17  and  C12_18
REMARK    5  A    between atoms: N8_25  and  C13_26
REMARK    6  A    between atoms: C16_37  and  C17_38
ROOT
HETATM    1  C1  UNL     1      12.998  10.580   2.011  1.00  0.00     0.159 C
HETATM    2  N1  UNL     1      14.300  10.342   2.608  1.00  0.00    -0.327 N
HETATM    3  C2  UNL     1      14.444   9.913   3.871  1.00  0.00     0.108 A
HETATM    4  C3  UNL     1      15.687   9.686   4.438  1.00  0.00     0.023 A
HETATM    5  C4  UNL     1      16.081   9.253   5.684  1.00  0.00     0.037 A
HETATM    6  C8  UNL     1      17.431   9.220   5.659  1.00  0.00     0.113 A
HETATM    7  N4  UNL     1      17.938   9.616   4.441  1.00  0.00    -0.328 N
HETATM    8  C15 UNL     1      16.839   9.907   3.682  1.00  0.00     0.073 A
HETATM    9  C16 UNL     1      16.662  10.346   2.392  1.00  0.00     0.136 A
HETATM   10  C18 UNL     1      15.385  10.556   1.879  1.00  0.00     0.266 A
HETATM   11  O5  UNL     1      15.282  10.960   0.684  1.00  0.00    -0.267 OA
ENDROOT
BRANCH   7  12
HETATM   12  C9  UNL     1      19.284   9.630   4.113  1.00  0.00     0.131 C
BRANCH  12  13
HETATM   13  C10 UNL     1      20.093   8.511   3.635  1.00  0.00     0.109 A
HETATM   14  C11 UNL     1      20.183   7.191   3.863  1.00  0.00     0.144 A
HETATM   15  N6  UNL     1      21.220   6.743   3.036  1.00  0.00    -0.279 N
HETATM   16  N7  UNL     1      21.686   7.757   2.382  1.00  0.00    -0.233 N
ATOM     17  H6  UNL     1      21.552   5.781   2.963  1.00  0.00     0.189 HD
HETATM   18  N8  UNL     1      21.067   8.863   2.679  1.00  0.00    -0.217 N
ATOM     19  H7  UNL     1      22.451   7.697   1.710  1.00  0.00     0.209 HD
BRANCH  14  20
HETATM   20  C12 UNL     1      19.466   6.279   4.714  1.00  0.00     0.285 C
HETATM   21  N5  UNL     1      19.036   4.992   4.165  1.00  0.00    -0.056 NA
HETATM   22  O1  UNL     1      19.157   6.441   5.874  1.00  0.00    -0.269 OA
ENDBRANCH  14  20
BRANCH  18  23
HETATM   23  C13 UNL     1      21.298  10.181   2.163  1.00  0.00     0.196 A
HETATM   24  N9  UNL     1      21.481  11.336   2.824  1.00  0.00    -0.220 N
HETATM   25  O2  UNL     1      21.659  12.311   1.955  1.00  0.00    -0.153 OA
ATOM     26  H9  UNL     1      21.481  11.442   3.839  1.00  0.00     0.198 HD
HETATM   27  N10 UNL     1      21.602  11.845   0.743  1.00  0.00    -0.222 N
HETATM   28  C14 UNL     1      21.374  10.502   0.825  1.00  0.00     0.169 A
ATOM     29  H10 UNL     1      21.707  12.385  -0.115  1.00  0.00     0.198 HD
HETATM   30  N11 UNL     1      21.262   9.731  -0.197  1.00  0.00    -0.381 N
ATOM     31 2H11 UNL     1      21.092   8.728  -0.136  1.00  0.00     0.157 HD
ATOM     32 1H11 UNL     1      21.319   9.969  -1.187  1.00  0.00     0.157 HD
ENDBRANCH  18  23
ENDBRANCH  12  13
ENDBRANCH   7  12
BRANCH   5  33
HETATM   33  C5  UNL     1      15.209   8.910   6.823  1.00  0.00     0.109 C
HETATM   34  N2  UNL     1      14.343   9.719   7.332  1.00  0.00    -0.374 N
HETATM   35  C6  UNL     1      13.611   9.156   8.439  1.00  0.00     0.141 C
ATOM     36  H2  UNL     1      14.191  10.666   6.986  1.00  0.00     0.161 HD
HETATM   37  C7  UNL     1      14.524   8.007   8.870  1.00  0.00     0.141 C
HETATM   38  N3  UNL     1      15.113   7.710   7.546  1.00  0.00    -0.374 N
ATOM     39  H3  UNL     1      15.401   6.789   7.214  1.00  0.00     0.161 HD
ENDBRANCH   5  33
BRANCH   9  40
HETATM   40  C17 UNL     1      17.774  10.597   1.502  1.00  0.00     0.217 C
HETATM   41  O3  UNL     1      18.172   9.706   0.735  1.00  0.00    -0.644 OA
HETATM   42  O4  UNL     1      18.385  11.823   1.503  1.00  0.00    -0.644 OA
ENDBRANCH   9  40
TORSDOF 6
ENDMDL