MODEL 2
REMARK VINA RESULT: -9.252587317      1.583      1.822
REMARK  8 active torsions:
REMARK  status: ('A' for Active; 'I' for Inactive)
REMARK    1  A    between atoms: C2_3  and  N2_4
REMARK    2  A    between atoms: C3_7  and  C4_8
REMARK    3  A    between atoms: C4_8  and  O3_9
REMARK    4  A    between atoms: C4_8  and  N3_11
REMARK    5  A    between atoms: N3_11  and  C5_12
REMARK    6  A    between atoms: C5_12  and  C6_13
REMARK    7  A    between atoms: C6_13  and  N4_14
REMARK    8  A    between atoms: N6_22  and  C11_23
ROOT
HETATM    1  N1  UNL     1      17.587  12.121   2.355  1.00  0.00    -0.077 NA
HETATM    2  C1  UNL     1      18.305  10.932   1.964  1.00  0.00     0.191 A
HETATM    3  C2  UNL     1      19.283  10.856   1.021  1.00  0.00     0.179 A
HETATM    4  C3  UNL     1      19.664   9.486   0.989  1.00  0.00     0.150 A
HETATM    5  N5  UNL     1      18.938   8.864   1.870  1.00  0.00    -0.271 N
ATOM      6  H5  UNL     1      19.010   7.864   2.059  1.00  0.00     0.188 HD
HETATM    7  N6  UNL     1      18.099   9.667   2.492  1.00  0.00    -0.066 N
ENDROOT
BRANCH   7   8
HETATM    8  C11 UNL     1      17.094   9.513   3.486  1.00  0.00     0.734 C
HETATM    9  N7  UNL     1      17.406   9.893   4.674  1.00  0.00    -0.127 N
HETATM   10  N8  UNL     1      16.653   9.889   5.871  1.00  0.00    -0.269 N
ATOM     11  H7  UNL     1      18.354  10.258   4.769  1.00  0.00     0.206 HD
HETATM   12  C12 UNL     1      15.394   9.585   6.022  1.00  0.00     0.157 A
ATOM     13  H8  UNL     1      17.156  10.156   6.718  1.00  0.00     0.189 HD
HETATM   14  N9  UNL     1      15.053   9.723   7.322  1.00  0.00    -0.316 N
HETATM   15  C15 UNL     1      14.465   9.221   5.095  1.00  0.00     0.162 A
HETATM   16  C13 UNL     1      13.745   9.488   7.690  1.00  0.00     0.180 A
ATOM     17  H9  UNL     1      15.749   9.995   8.017  1.00  0.00     0.170 HD
HETATM   18  S1  UNL     1      13.409   9.688   9.287  1.00  0.00    -0.040 SA
HETATM   19  N10 UNL     1      12.825   9.134   6.799  1.00  0.00    -0.298 N
HETATM   20  C14 UNL     1      13.167   9.001   5.516  1.00  0.00     0.279 A
ATOM     21  H10 UNL     1      11.864   8.966   7.094  1.00  0.00     0.171 HD
HETATM   22  O5  UNL     1      12.270   8.664   4.702  1.00  0.00    -0.265 OA
HETATM   23  N11 UNL     1      14.602   8.954   3.841  1.00  0.00    -0.278 N
HETATM   24  N12 UNL     1      15.828   8.980   3.101  1.00  0.00    -0.128 N
ATOM     25  H11 UNL     1      13.758   8.701   3.328  1.00  0.00     0.188 HD
ATOM     26  H12 UNL     1      15.791   8.559   2.173  1.00  0.00     0.205 HD
ENDBRANCH   7   8
BRANCH   3  27
HETATM   27  N2  UNL     1      19.823  11.911   0.251  1.00  0.00    -0.110 N
HETATM   28  O1  UNL     1      19.075  12.517  -0.518  1.00  0.00    -0.532 OA
HETATM   29  O2  UNL     1      21.138  12.249   0.328  1.00  0.00    -0.532 OA
ENDBRANCH   3  27
BRANCH   4  30
HETATM   30  C4  UNL     1      20.684   9.114  -0.053  1.00  0.00     0.240 C
BRANCH  30  31
HETATM   31  O3  UNL     1      20.336   9.597  -1.229  1.00  0.00    -0.334 OA
ATOM     32  H3  UNL     1      20.571  10.515  -1.293  1.00  0.00     0.220 HD
ENDBRANCH  30  31
BRANCH  30  33
HETATM   33  N3  UNL     1      21.806   8.413   0.124  1.00  0.00    -0.421 NA
BRANCH  33  34
HETATM   34  C5  UNL     1      22.992   7.670   0.313  1.00  0.00     0.251 C
BRANCH  34  35
HETATM   35  C6  UNL     1      23.147   7.390   1.846  1.00  0.00     0.305 C
BRANCH  35  36
HETATM   36  N4  UNL     1      21.902   7.027   2.462  1.00  0.00     0.095 N
HETATM   37  C7  UNL     1      21.739   7.776   3.684  1.00  0.00     0.298 C
HETATM   38  C8  UNL     1      20.932   7.152   4.752  1.00  0.00     0.198 C
HETATM   39  O4  UNL     1      20.974   5.766   4.775  1.00  0.00    -0.388 OA
HETATM   40  C9  UNL     1      22.139   5.335   4.150  1.00  0.00     0.198 C
HETATM   41  C10 UNL     1      21.963   5.593   2.682  1.00  0.00     0.298 C
ENDBRANCH  35  36
ENDBRANCH  34  35
ENDBRANCH  33  34
ENDBRANCH  30  33
ENDBRANCH   4  30
TORSDOF 8
ENDMDL