MODEL 4
REMARK VINA RESULT: -10.818818439      3.709      5.998
REMARK  7 active torsions:
REMARK  status: ('A' for Active; 'I' for Inactive)
REMARK    1  A    between atoms: C4_12  and  N5_13
REMARK    2  A    between atoms: N5_13  and  C5_15
REMARK    3  A    between atoms: C5_15  and  C6_16
REMARK    4  A    between atoms: N8_22  and  C8_23
REMARK    5  A    between atoms: C8_23  and  C9_24
REMARK    6  A    between atoms: C9_24  and  N9_25
REMARK    7  A    between atoms: C10_29  and  C11_30
ROOT
HETATM    1  C6  UNL     1      16.904  10.500  -0.389  1.00  0.00     0.155 A
HETATM    2  N6  UNL     1      15.797   9.815  -0.647  1.00  0.00    -0.271 N
ATOM      3  H6  UNL     1      15.564   9.349  -1.523  1.00  0.00     0.189 HD
HETATM    4  N7  UNL     1      15.053   9.852   0.443  1.00  0.00    -0.128 N
ATOM      5  H7  UNL     1      14.139   9.408   0.540  1.00  0.00     0.205 HD
HETATM    6  C7  UNL     1      15.669  10.555   1.407  1.00  0.00     0.737 A
HETATM    7  N8  UNL     1      15.603  11.014   2.664  1.00  0.00    -0.008 N
HETATM    8  C15 UNL     1      16.741  11.720   2.934  1.00  0.00     0.708 A
HETATM    9  N14 UNL     1      17.050  12.309   4.020  1.00  0.00    -0.233 N
ATOM     10 1H14 UNL     1      17.900  12.836   4.222  1.00  0.00     0.174 HD
ATOM     11 2H14 UNL     1      16.504  12.358   4.879  1.00  0.00     0.174 HD
HETATM   12  N15 UNL     1      17.463  11.655   1.801  1.00  0.00    -0.109 N
ATOM     13  H15 UNL     1      18.378  12.087   1.673  1.00  0.00     0.207 HD
HETATM   14  N16 UNL     1      16.835  10.964   0.884  1.00  0.00    -0.054 N
ENDROOT
BRANCH   1  15
HETATM   15  C5  UNL     1      18.080  10.768  -1.284  1.00  0.00     0.201 C
BRANCH  15  16
HETATM   16  N5  UNL     1      19.144   9.923  -0.857  1.00  0.00    -0.368 N
ATOM     17  H5  UNL     1      19.279   9.056  -1.378  1.00  0.00     0.161 HD
BRANCH  16  18
HETATM   18  C4  UNL     1      19.945  10.140   0.112  1.00  0.00     0.118 A
HETATM   19  N4  UNL     1      20.570  11.349   0.124  1.00  0.00    -0.284 N
HETATM   20  N3  UNL     1      21.420  11.679   1.081  1.00  0.00    -0.282 N
ATOM     21  H4  UNL     1      20.377  12.016  -0.623  1.00  0.00     0.188 HD
HETATM   22  C3  UNL     1      21.716  10.840   2.093  1.00  0.00     0.151 A
ATOM     23  H3  UNL     1      21.866  12.596   1.052  1.00  0.00     0.188 HD
HETATM   24  N2  UNL     1      22.513  10.902   3.165  1.00  0.00    -0.291 N
HETATM   25  C17 UNL     1      21.106   9.601   2.122  1.00  0.00     0.087 A
HETATM   26  C2  UNL     1      22.404   9.748   3.836  1.00  0.00     0.328 A
ATOM     27  H2  UNL     1      23.102  11.692   3.426  1.00  0.00     0.172 HD
HETATM   28  N1  UNL     1      21.543   8.922   3.220  1.00  0.00    -0.300 N
HETATM   29  O1  UNL     1      23.011   9.441   4.905  1.00  0.00    -0.246 OA
HETATM   30  C1  UNL     1      21.129   7.582   3.595  1.00  0.00     0.161 C
HETATM   31  C16 UNL     1      20.223   9.271   1.121  1.00  0.00     0.083 A
ENDBRANCH  16  18
ENDBRANCH  15  16
ENDBRANCH   1  15
BRANCH   7  32
HETATM   32  C8  UNL     1      14.558  10.840   3.623  1.00  0.00     0.190 C
BRANCH  32  33
HETATM   33  C9  UNL     1      14.373   9.360   3.961  1.00  0.00     0.188 C
BRANCH  33  34
HETATM   34  N9  UNL     1      14.071   9.324   5.396  1.00  0.00    -0.215 N
HETATM   35  N10 UNL     1      13.655   8.263   6.084  1.00  0.00    -0.003 NA
HETATM   36  N11 UNL     1      13.481   8.592   7.357  1.00  0.00    -0.265 N
HETATM   37  C10 UNL     1      13.791   9.898   7.500  1.00  0.00     0.161 A
ATOM     38  H11 UNL     1      13.167   7.967   8.099  1.00  0.00     0.186 HD
HETATM   39  N13 UNL     1      14.148  10.308   6.273  1.00  0.00    -0.268 N
ATOM     40  H13 UNL     1      14.442  11.258   6.047  1.00  0.00     0.190 HD
BRANCH  37  41
HETATM   41  C11 UNL     1      13.735  10.657   8.741  1.00  0.00     0.079 A
HETATM   42  C12 UNL     1      14.628  10.534   9.778  1.00  0.00     0.035 A
HETATM   43  C13 UNL     1      14.265  11.402  10.779  1.00  0.00     0.019 A
HETATM   44  C14 UNL     1      13.140  12.063  10.355  1.00  0.00     0.088 A
HETATM   45  N12 UNL     1      12.856  11.590   9.132  1.00  0.00    -0.363 N
ATOM     46  H12 UNL     1      12.065  11.902   8.567  1.00  0.00     0.165 HD
ENDBRANCH  37  41
ENDBRANCH  33  34
ENDBRANCH  32  33
ENDBRANCH   7  32
TORSDOF 7
ENDMDL