MODEL 4
REMARK VINA RESULT: -9.589596041      2.552      7.422
REMARK  8 active torsions:
REMARK  status: ('A' for Active; 'I' for Inactive)
REMARK    1  A    between atoms: C4_4  and  N1_5
REMARK    2  A    between atoms: N1_5  and  C5_7
REMARK    3  A    between atoms: C6_10  and  N3_11
REMARK    4  A    between atoms: C7_14  and  C8_15
REMARK    5  A    between atoms: C8_15  and  C9_17
REMARK    6  A    between atoms: C9_17  and  O2_18
REMARK    7  A    between atoms: N5_22  and  C10_23
REMARK    8  A    between atoms: C11_26  and  N7_27
ROOT
HETATM    1  C5  UNL     1      15.409  10.617   3.632  1.00  0.00     0.720 A
HETATM    2  N2  UNL     1      14.108  10.771   3.441  1.00  0.00    -0.172 N
ATOM      3  H2  UNL     1      13.538  11.028   4.247  1.00  0.00     0.186 HD
HETATM    4  C6  UNL     1      13.471  10.608   2.235  1.00  0.00     0.147 A
HETATM    5  C7  UNL     1      14.266  10.262   1.171  1.00  0.00     0.142 A
HETATM    6  N4  UNL     1      15.607  10.112   1.414  1.00  0.00    -0.258 N
ATOM      7  H4  UNL     1      16.195   9.854   0.621  1.00  0.00     0.189 HD
HETATM    8  N5  UNL     1      16.195  10.267   2.554  1.00  0.00     0.091 N
ENDROOT
BRANCH   8   9
HETATM    9  C10 UNL     1      17.592  10.103   2.769  1.00  0.00     0.737 A
HETATM   10  N6  UNL     1      18.100   9.043   3.423  1.00  0.00    -0.019 N
HETATM   11  C11 UNL     1      19.437   8.913   3.613  1.00  0.00     0.699 A
ATOM     12  H6  UNL     1      17.469   8.325   3.782  1.00  0.00     0.203 HD
HETATM   13  N9  UNL     1      20.302   9.841   3.154  1.00  0.00    -0.140 N
HETATM   14  C17 UNL     1      19.802  10.899   2.502  1.00  0.00     0.352 A
ATOM     15  H9  UNL     1      21.306   9.740   3.299  1.00  0.00     0.189 HD
HETATM   16  O3  UNL     1      20.613  11.772   2.069  1.00  0.00    -0.246 OA
HETATM   17  N10 UNL     1      18.470  11.019   2.318  1.00  0.00    -0.138 N
ATOM     18  H10 UNL     1      18.115  11.835   1.819  1.00  0.00     0.189 HD
BRANCH  11  19
HETATM   19  N7  UNL     1      19.997   7.793   4.307  1.00  0.00    -0.214 N
HETATM   20  C12 UNL     1      21.430   7.563   4.359  1.00  0.00     0.171 C
HETATM   21  C13 UNL     1      21.643   6.064   4.317  1.00  0.00     0.292 C
HETATM   22  N8  UNL     1      20.537   5.465   3.622  1.00  0.00     0.087 N
HETATM   23  C14 UNL     1      20.849   4.164   3.084  1.00  0.00     0.310 C
HETATM   24  C15 UNL     1      19.416   5.419   4.547  1.00  0.00     0.292 C
HETATM   25  C16 UNL     1      19.127   6.837   4.993  1.00  0.00     0.171 C
ENDBRANCH  11  19
ENDBRANCH   8   9
BRANCH   1  26
HETATM   26  N1  UNL     1      16.055  10.787   4.886  1.00  0.00    -0.189 N
ATOM     27  H1  UNL     1      16.941  11.292   4.921  1.00  0.00     0.184 HD
BRANCH  26  28
HETATM   28  C4  UNL     1      15.514  10.283   6.077  1.00  0.00     0.056 A
HETATM   29  C3  UNL     1      14.546  10.832   6.866  1.00  0.00     0.054 A
HETATM   30  C2  UNL     1      14.126  10.223   8.057  1.00  0.00     0.010 A
HETATM   31  C1  UNL     1      13.072  10.836   8.901  1.00  0.00     0.068 C
HETATM   32  N11 UNL     1      14.667   9.068   8.464  1.00  0.00    -0.328 N
HETATM   33  C19 UNL     1      15.613   8.530   7.691  1.00  0.00     0.247 A
ATOM     34  H11 UNL     1      14.368   8.617   9.329  1.00  0.00     0.169 HD
HETATM   35  C18 UNL     1      16.064   9.072   6.526  1.00  0.00     0.104 A
HETATM   36  O4  UNL     1      16.118   7.435   8.087  1.00  0.00    -0.268 OA
ENDBRANCH  26  28
ENDBRANCH   1  26
BRANCH   5  37
HETATM   37  C8  UNL     1      13.757  10.049  -0.177  1.00  0.00     0.204 C
HETATM   38  O1  UNL     1      12.925   9.147  -0.391  1.00  0.00    -0.288 OA
BRANCH  37  39
HETATM   39  C9  UNL     1      14.213  10.894  -1.325  1.00  0.00     0.249 C
BRANCH  39  40
HETATM   40  O2  UNL     1      15.434  11.501  -1.114  1.00  0.00    -0.393 OA
ATOM     41  H2  UNL     1      15.997  11.028  -0.513  1.00  0.00     0.209 HD
ENDBRANCH  39  40
ENDBRANCH  37  39
ENDBRANCH   5  37
BRANCH   4  42
HETATM   42  N3  UNL     1      12.219  10.783   2.169  1.00  0.00    -0.383 N
ATOM     43  H32 UNL     1      11.573  10.637   2.944  1.00  0.00     0.157 HD
ATOM     44  H31 UNL     1      11.805  11.090   1.289  1.00  0.00     0.157 HD
ENDBRANCH   4  42
TORSDOF 8
ENDMDL