MODEL 5
REMARK VINA RESULT: -9.535794201      2.768      6.678
REMARK  9 active torsions:
REMARK  status: ('A' for Active; 'I' for Inactive)
REMARK    1  A    between atoms: C2_2  and  N1_3
REMARK    2  A    between atoms: N2_6  and  C5_7
REMARK    3  A    between atoms: C5_7  and  C6_8
REMARK    4  A    between atoms: C7_9  and  C8_10
REMARK    5  A    between atoms: C8_10  and  O1_11
REMARK    6  A    between atoms: C8_10  and  N3_13
REMARK    7  A    between atoms: N3_13  and  C9_15
REMARK    8  A    between atoms: C10_16  and  O2_17
REMARK    9  A    between atoms: N8_31  and  C14_32
ROOT
HETATM    1  C6  UNL     1      17.070  11.151   2.072  1.00  0.00     0.087 A
HETATM    2  C7  UNL     1      17.798  12.150   1.548  1.00  0.00     0.126 A
HETATM    3  N6  UNL     1      17.820  13.117   2.563  1.00  0.00    -0.280 N
ATOM      4  H6  UNL     1      18.279  14.026   2.505  1.00  0.00     0.189 HD
HETATM    5  N7  UNL     1      17.153  12.662   3.604  1.00  0.00    -0.234 N
ATOM      6  H7  UNL     1      17.003  13.163   4.480  1.00  0.00     0.209 HD
HETATM    7  N8  UNL     1      16.709  11.449   3.323  1.00  0.00    -0.221 N
ENDROOT
BRANCH   2   8
HETATM    8  C8  UNL     1      18.768  12.228   0.433  1.00  0.00     0.171 C
BRANCH   8   9
HETATM    9  O1  UNL     1      18.791  13.354  -0.229  1.00  0.00    -0.344 OA
ATOM     10  H1  UNL     1      17.948  13.695  -0.502  1.00  0.00     0.219 HD
ENDBRANCH   8   9
BRANCH   8  11
HETATM   11  N3  UNL     1      19.617  11.239  -0.035  1.00  0.00    -0.327 N
ATOM     12  H3  UNL     1      19.642  10.991  -1.023  1.00  0.00     0.168 HD
BRANCH  11  13
HETATM   13  C9  UNL     1      20.471  10.567   0.930  1.00  0.00     0.154 A
HETATM   14  C10 UNL     1      20.266   9.158   0.763  1.00  0.00     0.177 A
HETATM   15  N4  UNL     1      20.796   8.274   1.606  1.00  0.00    -0.287 N
HETATM   16  C11 UNL     1      21.538   8.683   2.640  1.00  0.00     0.331 A
ATOM     17  H4  UNL     1      20.635   7.277   1.462  1.00  0.00     0.172 HD
HETATM   18  O3  UNL     1      22.017   7.812   3.422  1.00  0.00    -0.246 OA
HETATM   19  N5  UNL     1      21.735  10.004   2.801  1.00  0.00    -0.269 N
HETATM   20  C12 UNL     1      22.505  10.402   3.948  1.00  0.00     0.164 C
HETATM   21  C13 UNL     1      21.207  10.959   1.951  1.00  0.00     0.282 A
HETATM   22  O4  UNL     1      21.452  12.187   2.175  1.00  0.00    -0.265 OA
BRANCH  14  23
HETATM   23  O2  UNL     1      19.502   8.693  -0.306  1.00  0.00    -0.344 OA
ATOM     24  H2  UNL     1      18.558   8.805  -0.294  1.00  0.00     0.219 HD
ENDBRANCH  14  23
ENDBRANCH  11  13
ENDBRANCH   8  11
ENDBRANCH   2   8
BRANCH   1  25
HETATM   25  C5  UNL     1      16.705   9.904   1.324  1.00  0.00     0.179 C
BRANCH  25  26
HETATM   26  N2  UNL     1      15.849  10.182   0.229  1.00  0.00    -0.404 N
HETATM   27  C4  UNL     1      14.519   9.741   0.414  1.00  0.00     0.147 C
HETATM   28  C3  UNL     1      13.723   9.276  -0.757  1.00  0.00     0.291 C
HETATM   29  N1  UNL     1      14.248   9.504  -2.060  1.00  0.00     0.091 N
HETATM   30  C17 UNL     1      15.154  10.635  -2.025  1.00  0.00     0.291 C
HETATM   31  C16 UNL     1      16.323  10.179  -1.102  1.00  0.00     0.147 C
BRANCH  29  32
HETATM   32  C2  UNL     1      13.200   9.869  -3.021  1.00  0.00     0.268 C
HETATM   33  C1  UNL     1      13.487   9.459  -4.419  1.00  0.00     0.037 C
ENDBRANCH  29  32
ENDBRANCH  25  26
ENDBRANCH   1  25
BRANCH   7  34
HETATM   34  C14 UNL     1      16.396  10.379   4.298  1.00  0.00     0.196 A
HETATM   35  N9  UNL     1      16.946   9.580   5.097  1.00  0.00    -0.220 N
HETATM   36  O5  UNL     1      16.031   8.958   5.809  1.00  0.00    -0.153 OA
ATOM     37  H9  UNL     1      17.952   9.436   5.183  1.00  0.00     0.198 HD
HETATM   38  N10 UNL     1      14.866   9.341   5.486  1.00  0.00    -0.222 N
HETATM   39  C15 UNL     1      14.961  10.247   4.532  1.00  0.00     0.169 A
ATOM     40  H10 UNL     1      13.996   9.004   5.897  1.00  0.00     0.198 HD
HETATM   41  N11 UNL     1      14.099  10.881   3.896  1.00  0.00    -0.381 N
ATOM     42 2H11 UNL     1      14.172  11.581   3.159  1.00  0.00     0.157 HD
ATOM     43 1H11 UNL     1      13.097  10.789   4.059  1.00  0.00     0.157 HD
ENDBRANCH   7  34
TORSDOF 9
ENDMDL