MODEL 4
REMARK VINA RESULT: -8.680284255      1.950      5.863
REMARK  11 active torsions:
REMARK  status: ('A' for Active; 'I' for Inactive)
REMARK    1  A    between atoms: C2_2  and  O1_3
REMARK    2  A    between atoms: C2_2  and  C3_5
REMARK    3  A    between atoms: C6_10  and  N2_11
REMARK    4  A    between atoms: C11_22  and  N6_23
REMARK    5  A    between atoms: N6_23  and  C12_25
REMARK    6  A    between atoms: C12_25  and  C13_26
REMARK    7  A    between atoms: C17_33  and  N8_34
REMARK    8  A    between atoms: N8_34  and  C18_36
REMARK    9  A    between atoms: C18_36  and  C19_37
REMARK   10  A    between atoms: C19_37  and  O3_38
REMARK   11  A    between atoms: N10_43  and  O4_44
ROOT
HETATM    1  C3  UNL     1      19.540   8.311   4.777  1.00  0.00     0.139 A
HETATM    2  N1  UNL     1      18.317   8.287   5.335  1.00  0.00    -0.337 N
ATOM      3  H1  UNL     1      18.048   7.860   6.222  1.00  0.00     0.167 HD
HETATM    4  C4  UNL     1      17.526   8.948   4.476  1.00  0.00     0.114 A
HETATM    5  C5  UNL     1      18.229   9.389   3.380  1.00  0.00     0.140 A
HETATM    6  C6  UNL     1      17.576  10.093   2.390  1.00  0.00     0.151 A
HETATM    7  N4  UNL     1      16.266  10.317   2.547  1.00  0.00    -0.261 N
ATOM      8  H4  UNL     1      15.798  10.840   1.808  1.00  0.00     0.190 HD
HETATM    9  N5  UNL     1      15.533   9.935   3.547  1.00  0.00    -0.065 N
HETATM   10  C11 UNL     1      14.219  10.195   3.635  1.00  0.00     0.719 A
HETATM   11  N7  UNL     1      13.562   9.724   4.758  1.00  0.00    -0.020 N
ATOM     12  H7  UNL     1      12.562   9.911   4.843  1.00  0.00     0.203 HD
HETATM   13  C17 UNL     1      14.157   9.044   5.729  1.00  0.00     0.694 A
HETATM   14  N9  UNL     1      15.469   8.806   5.605  1.00  0.00    -0.171 N
ATOM     15  H9  UNL     1      15.948   8.285   6.339  1.00  0.00     0.186 HD
HETATM   16  C20 UNL     1      16.177   9.231   4.540  1.00  0.00     0.190 A
HETATM   17  N10 UNL     1      19.489   8.979   3.591  1.00  0.00    -0.204 N
ENDROOT
BRANCH   6  18
HETATM   18  N2  UNL     1      18.245  10.555   1.234  1.00  0.00    -0.361 N
HETATM   19  C7  UNL     1      18.863  11.844   1.063  1.00  0.00     0.152 C
HETATM   20  C8  UNL     1      20.348  11.701   0.753  1.00  0.00     0.252 C
HETATM   21  N3  UNL     1      20.609  10.452   0.056  1.00  0.00    -0.072 N
HETATM   22  C9  UNL     1      19.483  10.168  -0.835  1.00  0.00     0.252 C
ATOM     23  H32 UNL     1      21.503  10.459  -0.436  1.00  0.00     0.277 HD
ATOM     24  H31 UNL     1      20.804   9.682   0.695  1.00  0.00     0.277 HD
HETATM   25  C10 UNL     1      18.353   9.655   0.072  1.00  0.00     0.152 C
ENDBRANCH   6  18
BRANCH  17  26
HETATM   26  O4  UNL     1      20.532   9.215   2.733  1.00  0.00    -0.281 OA
ATOM     27  H4  UNL     1      20.741  10.035   2.303  1.00  0.00     0.245 HD
ENDBRANCH  17  26
BRANCH   1  28
HETATM   28  C2  UNL     1      20.771   7.701   5.359  1.00  0.00     0.184 C
HETATM   29  C1  UNL     1      21.641   8.717   6.043  1.00  0.00     0.048 C
BRANCH  28  30
HETATM   30  O1  UNL     1      21.505   7.117   4.337  1.00  0.00    -0.388 OA
ATOM     31  H1  UNL     1      21.105   7.355   3.509  1.00  0.00     0.210 HD
ENDBRANCH  28  30
ENDBRANCH   1  28
BRANCH  10  32
HETATM   32  N6  UNL     1      13.594  10.825   2.775  1.00  0.00    -0.197 N
ATOM     33  H6  UNL     1      13.802  11.815   2.905  1.00  0.00     0.183 HD
BRANCH  32  34
HETATM   34  C12 UNL     1      12.721  10.714   1.705  1.00  0.00     0.143 C
BRANCH  34  35
HETATM   35  C13 UNL     1      13.390  10.397   0.408  1.00  0.00     0.090 A
HETATM   36  C14 UNL     1      12.996  10.855  -0.814  1.00  0.00     0.040 A
HETATM   37  C15 UNL     1      13.882  10.329  -1.755  1.00  0.00     0.027 A
HETATM   38  C16 UNL     1      14.769   9.575  -1.022  1.00  0.00     0.142 A
HETATM   39  O2  UNL     1      14.435   9.647   0.247  1.00  0.00    -0.321 OA
ENDBRANCH  34  35
ENDBRANCH  32  34
ENDBRANCH  10  32
BRANCH  13  40
HETATM   40  N8  UNL     1      13.490   8.620   6.773  1.00  0.00    -0.223 N
ATOM     41  H8  UNL     1      12.666   9.150   7.054  1.00  0.00     0.177 HD
BRANCH  40  42
HETATM   42  C18 UNL     1      13.833   7.474   7.542  1.00  0.00     0.164 C
BRANCH  42  43
HETATM   43  C19 UNL     1      14.770   7.938   8.665  1.00  0.00     0.184 C
BRANCH  43  44
HETATM   44  O3  UNL     1      16.078   7.642   8.247  1.00  0.00    -0.399 OA
ATOM     45  H3  UNL     1      16.606   7.573   9.034  1.00  0.00     0.209 HD
ENDBRANCH  43  44
ENDBRANCH  42  43
ENDBRANCH  40  42
ENDBRANCH  13  40
TORSDOF 11
ENDMDL