MODEL 1
REMARK VINA RESULT: -9.949065440      0.000      0.000
REMARK  8 active torsions:
REMARK  status: ('A' for Active; 'I' for Inactive)
REMARK    1  A    between atoms: C3_4  and  C4_5
REMARK    2  A    between atoms: C5_12  and  C6_13
REMARK    3  A    between atoms: N5_15  and  C8_16
REMARK    4  A    between atoms: C8_16  and  O1_17
REMARK    5  A    between atoms: O1_17  and  C9_18
REMARK    6  A    between atoms: C9_18  and  O2_19
REMARK    7  A    between atoms: C9_18  and  C10_21
REMARK    8  A    between atoms: C10_21  and  N6_22
ROOT
HETATM    1  C8  UNL     1      20.642  11.648   0.599  1.00  0.00     0.320 C
ENDROOT
BRANCH   1   2
HETATM    2  N5  UNL     1      20.667  11.124   1.972  1.00  0.00    -0.263 N
HETATM    3  C7  UNL     1      21.698  10.598   2.634  1.00  0.00     0.147 A
HETATM    4  C6  UNL     1      21.299  10.229   3.896  1.00  0.00     0.097 A
HETATM    5  N12 UNL     1      19.994  10.555   3.957  1.00  0.00    -0.282 N
HETATM    6  N11 UNL     1      19.635  11.084   2.811  1.00  0.00    -0.238 N
ATOM      7  H12 UNL     1      19.385  10.415   4.762  1.00  0.00     0.188 HD
ATOM      8  H11 UNL     1      18.696  11.417   2.593  1.00  0.00     0.208 HD
BRANCH   4   9
HETATM    9  C5  UNL     1      22.121   9.617   4.930  1.00  0.00     0.108 A
HETATM   10  C4  UNL     1      22.220   8.271   5.184  1.00  0.00     0.093 A
HETATM   11  N2  UNL     1      23.085   8.121   6.220  1.00  0.00    -0.283 N
HETATM   12  N3  UNL     1      23.507   9.311   6.594  1.00  0.00    -0.242 N
ATOM     13  H2  UNL     1      23.362   7.233   6.638  1.00  0.00     0.188 HD
HETATM   14  N4  UNL     1      22.925  10.226   5.815  1.00  0.00    -0.282 N
ATOM     15  H3  UNL     1      24.165   9.501   7.349  1.00  0.00     0.208 HD
ATOM     16  H4  UNL     1      23.070  11.233   5.883  1.00  0.00     0.188 HD
BRANCH  10  17
HETATM   17  C3  UNL     1      21.565   7.160   4.530  1.00  0.00     0.028 A
HETATM   18  C2  UNL     1      20.422   6.479   4.891  1.00  0.00     0.124 A
HETATM   19  N1  UNL     1      20.174   5.508   3.981  1.00  0.00    -0.307 N
HETATM   20  C1  UNL     1      19.035   4.602   4.066  1.00  0.00     0.177 C
HETATM   21  N13 UNL     1      21.130   5.576   3.076  1.00  0.00    -0.310 N
HETATM   22  C17 UNL     1      21.995   6.554   3.358  1.00  0.00     0.122 A
ATOM     23  H13 UNL     1      21.200   4.960   2.266  1.00  0.00     0.186 HD
ENDBRANCH  10  17
ENDBRANCH   4   9
ENDBRANCH   1   2
BRANCH   1  24
HETATM   24  O1  UNL     1      20.551  10.556  -0.242  1.00  0.00    -0.339 OA
BRANCH  24  25
HETATM   25  C9  UNL     1      19.258  10.264  -0.632  1.00  0.00     0.277 C
BRANCH  25  26
HETATM   26  O2  UNL     1      18.660   9.289   0.135  1.00  0.00    -0.369 OA
ATOM     27  H2  UNL     1      18.043   8.751  -0.349  1.00  0.00     0.212 HD
ENDBRANCH  25  26
BRANCH  25  28
HETATM   28  C10 UNL     1      18.371  11.473  -0.705  1.00  0.00     0.196 C
BRANCH  28  29
HETATM   29  N6  UNL     1      16.990  11.035  -0.667  1.00  0.00    -0.278 N
HETATM   30  C11 UNL     1      16.260  10.871   0.460  1.00  0.00     0.331 A
HETATM   31  O3  UNL     1      16.710  11.086   1.615  1.00  0.00    -0.246 OA
HETATM   32  N7  UNL     1      15.018  10.454   0.144  1.00  0.00    -0.296 N
HETATM   33  C12 UNL     1      13.978  10.180   1.082  1.00  0.00     0.161 C
HETATM   34  C13 UNL     1      14.960  10.355  -1.177  1.00  0.00     0.152 A
HETATM   35  C14 UNL     1      13.970   9.983  -2.063  1.00  0.00     0.290 A
HETATM   36  C16 UNL     1      16.182  10.713  -1.711  1.00  0.00     0.160 A
HETATM   37  O4  UNL     1      12.848   9.652  -1.628  1.00  0.00    -0.265 OA
HETATM   38  N8  UNL     1      14.195   9.975  -3.375  1.00  0.00    -0.154 N
HETATM   39  C15 UNL     1      15.389  10.325  -3.882  1.00  0.00     0.680 A
ATOM     40  H8  UNL     1      13.446   9.697  -4.009  1.00  0.00     0.187 HD
HETATM   41  N9  UNL     1      15.607  10.317  -5.139  1.00  0.00    -0.234 N
HETATM   42  N10 UNL     1      16.391  10.697  -3.046  1.00  0.00    -0.174 N
ATOM     43  H92 UNL     1      14.854  10.038  -5.768  1.00  0.00     0.174 HD
ATOM     44  H91 UNL     1      16.513  10.583  -5.524  1.00  0.00     0.174 HD
ATOM     45  H10 UNL     1      17.299  10.964  -3.424  1.00  0.00     0.186 HD
ENDBRANCH  28  29
ENDBRANCH  25  28
ENDBRANCH  24  25
ENDBRANCH   1  24
TORSDOF 8
ENDMDL