MODEL 1
REMARK VINA RESULT: -9.781707892      0.000      0.000
REMARK  10 active torsions:
REMARK  status: ('A' for Active; 'I' for Inactive)
REMARK    1  A    between atoms: C2_2  and  O1_3
REMARK    2  A    between atoms: O1_3  and  C3_4
REMARK    3  A    between atoms: C3_4  and  C4_6
REMARK    4  A    between atoms: C6_8  and  C7_9
REMARK    5  A    between atoms: C7_9  and  C8_11
REMARK    6  A    between atoms: C9_12  and  C10_13
REMARK    7  A    between atoms: C12_15  and  O4_16
REMARK    8  A    between atoms: C13_18  and  O5_19
REMARK    9  A    between atoms: C14_21  and  O6_22
REMARK   10  A    between atoms: C15_24  and  O7_25
ROOT
HETATM    1  C4  UNL     1      19.663   9.105   3.544  1.00  0.00     0.182 C
HETATM    2  C5  UNL     1      19.061   9.352   2.153  1.00  0.00     0.060 C
HETATM    3  C6  UNL     1      20.153  10.117   1.346  1.00  0.00     0.187 C
HETATM    4  N1  UNL     1      21.201   9.188   1.050  1.00  0.00    -0.227 N
HETATM    5  C16 UNL     1      21.697   8.901  -0.119  1.00  0.00     0.331 A
HETATM    6  O8  UNL     1      21.283   9.405  -1.166  1.00  0.00    -0.260 OA
HETATM    7  C17 UNL     1      22.756   7.979  -0.285  1.00  0.00     0.319 A
HETATM    8  O9  UNL     1      23.200   7.737  -1.431  1.00  0.00    -0.262 OA
HETATM    9  N2  UNL     1      23.236   7.403   0.821  1.00  0.00    -0.269 N
ATOM     10  H2  UNL     1      24.000   6.732   0.752  1.00  0.00     0.174 HD
HETATM   11  C18 UNL     1      22.718   7.701   2.021  1.00  0.00     0.351 A
HETATM   12  O10 UNL     1      23.191   7.142   3.052  1.00  0.00    -0.244 OA
HETATM   13  N3  UNL     1      21.717   8.578   2.132  1.00  0.00    -0.165 N
HETATM   14  C19 UNL     1      21.121   8.857   3.406  1.00  0.00     0.261 C
HETATM   15  O11 UNL     1      21.871   8.884   4.400  1.00  0.00    -0.270 OA
ENDROOT
BRANCH   3  16
HETATM   16  C7  UNL     1      19.531  10.887   0.318  1.00  0.00     0.174 C
HETATM   17  O3  UNL     1      20.022  12.031   0.009  1.00  0.00    -0.291 OA
BRANCH  16  18
HETATM   18  C8  UNL     1      18.332  10.408  -0.408  1.00  0.00     0.053 C
HETATM   19  C9  UNL     1      17.284  11.168  -0.578  1.00  0.00     0.018 C
BRANCH  19  20
HETATM   20  C10 UNL     1      16.123  10.676  -1.292  1.00  0.00     0.003 A
HETATM   21  C11 UNL     1      16.026  10.647  -2.646  1.00  0.00     0.053 A
HETATM   22  C12 UNL     1      14.904  10.173  -3.337  1.00  0.00     0.102 A
HETATM   23  C13 UNL     1      13.845   9.712  -2.598  1.00  0.00     0.135 A
HETATM   24  C14 UNL     1      13.927   9.734  -1.204  1.00  0.00     0.136 A
HETATM   25  C15 UNL     1      15.052  10.210  -0.541  1.00  0.00     0.112 A
BRANCH  22  26
HETATM   26  O4  UNL     1      14.838  10.158  -4.721  1.00  0.00    -0.358 OA
ATOM     27  H4  UNL     1      14.048  10.389  -5.195  1.00  0.00     0.217 HD
ENDBRANCH  22  26
BRANCH  23  28
HETATM   28  O5  UNL     1      12.696   9.226  -3.215  1.00  0.00    -0.356 OA
ATOM     29  H5  UNL     1      11.877   9.706  -3.175  1.00  0.00     0.218 HD
ENDBRANCH  23  28
BRANCH  24  30
HETATM   30  O6  UNL     1      12.854   9.268  -0.465  1.00  0.00    -0.356 OA
ATOM     31  H6  UNL     1      12.926   9.245   0.482  1.00  0.00     0.218 HD
ENDBRANCH  24  30
BRANCH  25  32
HETATM   32  O7  UNL     1      15.034  10.190   0.841  1.00  0.00    -0.357 OA
ATOM     33  H7  UNL     1      14.240  10.108   1.358  1.00  0.00     0.217 HD
ENDBRANCH  25  32
ENDBRANCH  19  20
ENDBRANCH  16  18
ENDBRANCH   3  16
BRANCH   1  34
HETATM   34  C3  UNL     1      18.957   7.918   4.088  1.00  0.00     0.272 C
HETATM   35  O2  UNL     1      17.720   7.840   3.900  1.00  0.00    -0.264 OA
BRANCH  34  36
HETATM   36  O1  UNL     1      19.564   6.894   4.787  1.00  0.00    -0.321 OA
BRANCH  36  37
HETATM   37  C2  UNL     1      20.064   5.719   4.186  1.00  0.00     0.174 C
HETATM   38  C1  UNL     1      19.073   4.579   4.267  1.00  0.00     0.034 C
ENDBRANCH  36  37
ENDBRANCH  34  36
ENDBRANCH   1  34
TORSDOF 10
ENDMDL