MODEL 1
REMARK VINA RESULT: -9.606215741      0.000      0.000
REMARK  10 active torsions:
REMARK  status: ('A' for Active; 'I' for Inactive)
REMARK    1  A    between atoms: C2_5  and  C3_6
REMARK    2  A    between atoms: C3_6  and  O1_7
REMARK    3  A    between atoms: O1_7  and  C4_8
REMARK    4  A    between atoms: C4_8  and  C5_9
REMARK    5  A    between atoms: C6_10  and  C7_11
REMARK    6  A    between atoms: C10_16  and  N4_17
REMARK    7  A    between atoms: N6_27  and  N7_29
REMARK    8  A    between atoms: C17_34  and  C18_35
REMARK    9  A    between atoms: C18_35  and  N10_36
REMARK   10  A    between atoms: C18_35  and  N11_40
ROOT
HETATM    1  C4  UNL     1      20.729   9.622   1.989  1.00  0.00     0.157 C
HETATM    2  N6  UNL     1      21.865   9.593   1.313  1.00  0.00    -0.278 N
ATOM      3  H6  UNL     1      22.765   9.575   1.795  1.00  0.00     0.189 HD
ENDROOT
BRANCH   1   4
HETATM    4  O1  UNL     1      20.847   9.611   3.265  1.00  0.00    -0.329 OA
BRANCH   4   5
HETATM    5  C3  UNL     1      20.783   8.892   4.382  1.00  0.00     0.238 C
BRANCH   5   6
HETATM    6  C2  UNL     1      20.204   7.526   4.198  1.00  0.00     0.079 A
HETATM    7  N2  UNL     1      20.927   6.448   3.951  1.00  0.00    -0.284 N
HETATM    8  N1  UNL     1      20.155   5.359   4.090  1.00  0.00    -0.238 N
ATOM      9  H2  UNL     1      21.915   6.445   3.695  1.00  0.00     0.188 HD
HETATM   10  C1  UNL     1      20.525   3.963   3.886  1.00  0.00     0.200 C
HETATM   11  N12 UNL     1      18.938   5.813   4.438  1.00  0.00    -0.283 N
HETATM   12  C17 UNL     1      18.945   7.112   4.502  1.00  0.00     0.110 A
ATOM     13  H12 UNL     1      18.127   5.223   4.625  1.00  0.00     0.188 HD
BRANCH  12  14
HETATM   14  C18 UNL     1      17.845   8.149   4.656  1.00  0.00     0.430 C
BRANCH  14  15
HETATM   15  N10 UNL     1      16.972   8.064   3.524  1.00  0.00    -0.045 N
ATOM     16 3H10 UNL     1      17.070   7.181   3.022  1.00  0.00     0.277 HD
ATOM     17 2H10 UNL     1      15.993   7.965   3.792  1.00  0.00     0.277 HD
ATOM     18 1H10 UNL     1      17.133   8.873   2.926  1.00  0.00     0.277 HD
ENDBRANCH  14  15
BRANCH  14  19
HETATM   19  N11 UNL     1      17.231   8.275   5.895  1.00  0.00    -0.045 N
ATOM     20 3H11 UNL     1      17.424   7.439   6.448  1.00  0.00     0.277 HD
ATOM     21 2H11 UNL     1      17.720   8.986   6.438  1.00  0.00     0.277 HD
ATOM     22 1H11 UNL     1      16.230   8.467   5.919  1.00  0.00     0.277 HD
ENDBRANCH  14  19
ENDBRANCH  12  14
ENDBRANCH   5   6
ENDBRANCH   4   5
ENDBRANCH   1   4
BRANCH   1  23
HETATM   23  C5  UNL     1      19.459   9.639   1.292  1.00  0.00     0.060 C
HETATM   24  C6  UNL     1      18.497  10.470   1.563  1.00  0.00     0.039 C
BRANCH  24  25
HETATM   25  C7  UNL     1      17.201  10.538   0.892  1.00  0.00     0.101 A
HETATM   26  N3  UNL     1      17.191  10.508  -0.486  1.00  0.00    -0.350 N
HETATM   27  C8  UNL     1      16.027  10.480  -1.113  1.00  0.00     0.062 A
ATOM     28  H3  UNL     1      18.065  10.506  -1.012  1.00  0.00     0.166 HD
HETATM   29  C9  UNL     1      16.004  10.403  -2.479  1.00  0.00     0.068 A
HETATM   30  C13 UNL     1      14.845  10.488  -0.423  1.00  0.00     0.064 A
HETATM   31  C10 UNL     1      14.845  10.299  -3.204  1.00  0.00     0.105 A
HETATM   32  C11 UNL     1      13.646  10.295  -2.496  1.00  0.00     0.038 A
HETATM   33  C12 UNL     1      13.620  10.389  -1.131  1.00  0.00     0.034 A
HETATM   34  N5  UNL     1      14.797  10.531   0.890  1.00  0.00    -0.315 N
HETATM   35  C14 UNL     1      13.617  10.540   1.712  1.00  0.00     0.160 C
HETATM   36  C15 UNL     1      16.006  10.555   1.521  1.00  0.00     0.274 A
HETATM   37  O4  UNL     1      15.967  10.584   2.778  1.00  0.00    -0.265 OA
BRANCH  31  38
HETATM   38  N4  UNL     1      14.855  10.135  -4.575  1.00  0.00    -0.116 N
HETATM   39  O2  UNL     1      14.072   9.277  -5.113  1.00  0.00    -0.532 OA
HETATM   40  O3  UNL     1      15.659  10.761  -5.447  1.00  0.00    -0.532 OA
ENDBRANCH  31  38
ENDBRANCH  24  25
ENDBRANCH   1  23
BRANCH   2  41
HETATM   41  N7  UNL     1      21.793   9.587  -0.096  1.00  0.00    -0.274 N
HETATM   42  C16 UNL     1      22.679   8.802  -0.716  1.00  0.00     0.215 C
HETATM   43  N8  UNL     1      22.718   8.705  -2.099  1.00  0.00    -0.065 NA
HETATM   44  N9  UNL     1      23.545   8.054   0.121  1.00  0.00    -0.065 NA
ATOM     45  H7  UNL     1      21.110  10.144  -0.608  1.00  0.00     0.189 HD
ENDBRANCH   2  41
TORSDOF 10
ENDMDL