MODEL 2
REMARK VINA RESULT: -8.596665899      2.541      5.382
REMARK  9 active torsions:
REMARK  status: ('A' for Active; 'I' for Inactive)
REMARK    1  A    between atoms: C3_5  and  N2_6
REMARK    2  A    between atoms: N3_9  and  C6_10
REMARK    3  A    between atoms: C6_10  and  C7_11
REMARK    4  A    between atoms: C7_11  and  N4_12
REMARK    5  A    between atoms: C10_15  and  N5_16
REMARK    6  A    between atoms: N5_16  and  C11_18
REMARK    7  A    between atoms: C14_23  and  N8_24
REMARK    8  A    between atoms: N10_31  and  O2_32
REMARK    9  A    between atoms: C19_38  and  N12_39
ROOT
HETATM    1  N4  UNL     1      20.814  10.511   0.963  1.00  0.00    -0.274 N
HETATM    2  C8  UNL     1      20.801   9.461   0.060  1.00  0.00     0.116 A
HETATM    3  C9  UNL     1      19.709   9.679  -0.745  1.00  0.00     0.071 A
HETATM    4  C10 UNL     1      19.078  10.826  -0.342  1.00  0.00     0.154 A
HETATM    5  N10 UNL     1      19.811  11.289   0.715  1.00  0.00    -0.144 N
ENDROOT
BRANCH   1   6
HETATM    6  C7  UNL     1      21.807  10.640   2.013  1.00  0.00     0.181 C
BRANCH   6   7
HETATM    7  C6  UNL     1      21.322  10.346   3.375  1.00  0.00     0.294 C
BRANCH   7   8
HETATM    8  N3  UNL     1      21.680   9.080   3.949  1.00  0.00     0.093 N
HETATM    9  C5  UNL     1      21.438   9.088   5.362  1.00  0.00     0.293 C
HETATM   10  C4  UNL     1      20.293   8.138   5.747  1.00  0.00     0.171 C
HETATM   11  N2  UNL     1      19.219   8.429   4.839  1.00  0.00    -0.214 N
HETATM   12  C18 UNL     1      19.478   8.097   3.428  1.00  0.00     0.171 C
HETATM   13  C17 UNL     1      20.992   8.035   3.237  1.00  0.00     0.293 C
BRANCH  11  14
HETATM   14  C3  UNL     1      17.980   8.999   5.226  1.00  0.00     0.696 A
HETATM   15  N1  UNL     1      17.251   8.396   6.190  1.00  0.00    -0.180 N
HETATM   16  C2  UNL     1      16.078   8.893   6.586  1.00  0.00     0.109 A
ATOM     17  H1  UNL     1      17.605   7.543   6.624  1.00  0.00     0.185 HD
HETATM   18  C1  UNL     1      15.318   8.179   7.659  1.00  0.00     0.090 C
HETATM   19  N13 UNL     1      15.593  10.022   6.025  1.00  0.00    -0.180 N
HETATM   20  C19 UNL     1      16.322  10.613   5.070  1.00  0.00     0.691 A
ATOM     21  H13 UNL     1      14.697  10.412   6.319  1.00  0.00     0.185 HD
HETATM   22  N11 UNL     1      17.512  10.112   4.666  1.00  0.00    -0.022 N
ATOM     23  H11 UNL     1      18.047  10.584   3.936  1.00  0.00     0.203 HD
BRANCH  20  24
HETATM   24  N12 UNL     1      15.884  11.699   4.510  1.00  0.00    -0.234 N
ATOM     25 2H12 UNL     1      16.475  12.195   3.842  1.00  0.00     0.174 HD
ATOM     26 1H12 UNL     1      14.950  12.031   4.753  1.00  0.00     0.174 HD
ENDBRANCH  20  24
ENDBRANCH  11  14
ENDBRANCH   7   8
ENDBRANCH   6   7
ENDBRANCH   1   6
BRANCH   5  27
HETATM   27  O2  UNL     1      19.452  12.422   1.383  1.00  0.00    -0.266 OA
ATOM     28  H2  UNL     1      19.108  12.490   2.266  1.00  0.00     0.247 HD
ENDBRANCH   5  27
BRANCH   4  29
HETATM   29  N5  UNL     1      17.921  11.416  -0.891  1.00  0.00    -0.332 N
ATOM     30  H5  UNL     1      18.048  12.270  -1.434  1.00  0.00     0.168 HD
BRANCH  29  31
HETATM   31  C11 UNL     1      16.619  10.939  -0.759  1.00  0.00     0.145 A
HETATM   32  C12 UNL     1      16.009  10.834   0.469  1.00  0.00     0.166 A
HETATM   33  N6  UNL     1      16.653  11.200   1.677  1.00  0.00    -0.079 NA
HETATM   34  N7  UNL     1      14.730  10.358   0.552  1.00  0.00    -0.172 N
HETATM   35  C13 UNL     1      14.090  10.249   1.847  1.00  0.00     0.177 C
HETATM   36  C14 UNL     1      14.038   9.985  -0.528  1.00  0.00     0.683 A
HETATM   37  N9  UNL     1      14.627  10.082  -1.752  1.00  0.00    -0.150 N
HETATM   38  C15 UNL     1      13.868   9.677  -2.913  1.00  0.00     0.179 C
HETATM   39  C16 UNL     1      15.874  10.545  -1.847  1.00  0.00     0.291 A
HETATM   40  O1  UNL     1      16.385  10.622  -2.996  1.00  0.00    -0.265 OA
BRANCH  36  41
HETATM   41  N8  UNL     1      12.822   9.525  -0.476  1.00  0.00    -0.234 N
ATOM     42  H82 UNL     1      12.696   8.541  -0.241  1.00  0.00     0.174 HD
ATOM     43  H81 UNL     1      11.997  10.098  -0.654  1.00  0.00     0.174 HD
ENDBRANCH  36  41
ENDBRANCH  29  31
ENDBRANCH   4  29
TORSDOF 9
ENDMDL