MODEL 1
REMARK VINA RESULT: -9.381595467      0.000      0.000
REMARK  8 active torsions:
REMARK  status: ('A' for Active; 'I' for Inactive)
REMARK    1  A    between atoms: N1_1  and  C1_4
REMARK    2  A    between atoms: C3_9  and  C4_10
REMARK    3  A    between atoms: C4_10  and  C5_11
REMARK    4  A    between atoms: C6_12  and  N4_13
REMARK    5  A    between atoms: N5_16  and  N6_17
REMARK    6  A    between atoms: C8_19  and  C9_20
REMARK    7  A    between atoms: C9_20  and  N7_21
REMARK    8  A    between atoms: C17_35  and  N9_36
ROOT
HETATM    1  C5  UNL     1      16.852  10.947  -0.279  1.00  0.00     0.085 A
HETATM    2  C6  UNL     1      16.419  10.818   1.044  1.00  0.00     0.215 A
HETATM    3  N5  UNL     1      15.307  10.102   1.370  1.00  0.00    -0.177 N
HETATM    4  C15 UNL     1      14.591   9.494   0.387  1.00  0.00     0.350 A
HETATM    5  O5  UNL     1      13.561   8.825   0.649  1.00  0.00    -0.244 OA
HETATM    6  N8  UNL     1      14.971   9.591  -0.892  1.00  0.00    -0.273 N
ATOM      7  H8  UNL     1      14.422   9.127  -1.616  1.00  0.00     0.173 HD
HETATM    8  C16 UNL     1      16.056  10.286  -1.236  1.00  0.00     0.263 A
HETATM    9  O6  UNL     1      16.357  10.338  -2.453  1.00  0.00    -0.267 OA
ENDROOT
BRANCH   1  10
HETATM   10  C4  UNL     1      17.997  11.650  -0.767  1.00  0.00     0.040 C
BRANCH  10  11
HETATM   11  C3  UNL     1      19.277  11.647  -0.080  1.00  0.00     0.051 A
HETATM   12  C2  UNL     1      20.100  10.582   0.044  1.00  0.00     0.145 A
HETATM   13  N2  UNL     1      21.281  10.742   0.718  1.00  0.00    -0.178 N
HETATM   14  N3  UNL     1      19.843   9.265  -0.481  1.00  0.00    -0.081 NA
HETATM   15  C1  UNL     1      21.635  11.913   1.248  1.00  0.00     0.678 A
ATOM     16  H2  UNL     1      21.907   9.943   0.817  1.00  0.00     0.185 HD
HETATM   17  N10 UNL     1      20.820  12.974   1.126  1.00  0.00    -0.176 N
HETATM   18  C17 UNL     1      19.669  12.869   0.484  1.00  0.00     0.128 A
ATOM     19  H10 UNL     1      21.091  13.869   1.533  1.00  0.00     0.186 HD
BRANCH  15  20
HETATM   20  N1  UNL     1      22.754  12.032   1.875  1.00  0.00    -0.234 N
ATOM     21  H12 UNL     1      23.279  11.198   2.139  1.00  0.00     0.174 HD
ATOM     22  H11 UNL     1      23.118  12.956   2.111  1.00  0.00     0.174 HD
ENDBRANCH  15  20
BRANCH  18  23
HETATM   23  N9  UNL     1      18.907  13.914   0.384  1.00  0.00    -0.384 N
ATOM     24  H92 UNL     1      17.946  13.859   0.721  1.00  0.00     0.157 HD
ATOM     25  H91 UNL     1      19.264  14.777  -0.026  1.00  0.00     0.157 HD
ENDBRANCH  18  23
ENDBRANCH  10  11
ENDBRANCH   1  10
BRANCH   2  26
HETATM   26  N4  UNL     1      17.154  11.486   2.041  1.00  0.00    -0.095 N
HETATM   27  O1  UNL     1      16.887  12.661   2.328  1.00  0.00    -0.530 OA
HETATM   28  O2  UNL     1      18.161  10.927   2.739  1.00  0.00    -0.530 OA
ENDBRANCH   2  26
BRANCH   3  29
HETATM   29  N6  UNL     1      14.834   9.950   2.675  1.00  0.00    -0.247 N
HETATM   30  C7  UNL     1      13.670  10.402   3.390  1.00  0.00     0.168 C
HETATM   31  C8  UNL     1      14.064   9.513   4.517  1.00  0.00     0.117 C
HETATM   32  C14 UNL     1      15.298   9.239   3.799  1.00  0.00     0.246 C
HETATM   33  O4  UNL     1      16.352   8.604   4.102  1.00  0.00    -0.271 OA
BRANCH  31  34
HETATM   34  C9  UNL     1      14.379  10.247   5.820  1.00  0.00     0.132 C
BRANCH  34  35
HETATM   35  N7  UNL     1      13.731   9.640   6.935  1.00  0.00    -0.408 N
HETATM   36  C10 UNL     1      14.050   8.286   7.199  1.00  0.00     0.143 C
HETATM   37  C11 UNL     1      15.118   8.058   8.235  1.00  0.00     0.187 C
HETATM   38  O3  UNL     1      15.466   9.204   8.925  1.00  0.00    -0.388 OA
HETATM   39  C12 UNL     1      14.291   9.868   9.286  1.00  0.00     0.187 C
HETATM   40  C13 UNL     1      13.617  10.462   8.086  1.00  0.00     0.143 C
ENDBRANCH  34  35
ENDBRANCH  31  34
ENDBRANCH   3  29
TORSDOF 8
ENDMDL