MODEL 1
REMARK VINA RESULT: -9.757045855      0.000      0.000
REMARK  8 active torsions:
REMARK  status: ('A' for Active; 'I' for Inactive)
REMARK    1  A    between atoms: N1_1  and  C1_4
REMARK    2  A    between atoms: C3_8  and  C4_9
REMARK    3  A    between atoms: C5_14  and  C6_15
REMARK    4  A    between atoms: C6_15  and  N5_16
REMARK    5  A    between atoms: C10_21  and  S1_22
REMARK    6  A    between atoms: S1_22  and  C11_25
REMARK    7  A    between atoms: C11_25  and  N6_26
REMARK    8  A    between atoms: N6_26  and  C12_28
ROOT
HETATM    1  N5  UNL     1      14.863  10.615   3.689  1.00  0.00    -0.344 N
HETATM    2  C7  UNL     1      14.749  10.758   5.079  1.00  0.00     0.091 C
HETATM    3  C8  UNL     1      15.724   9.867   5.826  1.00  0.00     0.212 C
HETATM    4  O1  UNL     1      15.897   8.742   5.038  1.00  0.00    -0.383 OA
HETATM    5  C9  UNL     1      16.581   8.982   3.881  1.00  0.00     0.209 C
HETATM    6  C10 UNL     1      16.164  10.286   3.175  1.00  0.00     0.236 C
ENDROOT
BRANCH   1   7
HETATM    7  C6  UNL     1      13.746  10.257   2.932  1.00  0.00     0.149 C
BRANCH   7   8
HETATM    8  C5  UNL     1      14.024   9.722   1.575  1.00  0.00     0.180 A
HETATM    9  N4  UNL     1      14.103   8.426   1.267  1.00  0.00    -0.277 N
HETATM   10  N3  UNL     1      14.360   8.348  -0.021  1.00  0.00    -0.276 N
ATOM     11  H4  UNL     1      13.985   7.642   1.910  1.00  0.00     0.189 HD
HETATM   12  C4  UNL     1      14.447   9.582  -0.540  1.00  0.00     0.193 A
ATOM     13  H3  UNL     1      14.476   7.481  -0.546  1.00  0.00     0.189 HD
HETATM   14  O5  UNL     1      14.235  10.380   0.471  1.00  0.00    -0.271 OA
BRANCH  12  15
HETATM   15  C3  UNL     1      14.723   9.917  -1.949  1.00  0.00     0.101 A
HETATM   16  N2  UNL     1      13.861   9.629  -2.926  1.00  0.00    -0.358 N
HETATM   17  C2  UNL     1      14.154   9.954  -4.195  1.00  0.00     0.136 A
ATOM     18  H2  UNL     1      12.980   9.163  -2.709  1.00  0.00     0.165 HD
HETATM   19  C1  UNL     1      15.328  10.586  -4.560  1.00  0.00     0.114 A
HETATM   20  N10 UNL     1      16.173  10.859  -3.542  1.00  0.00    -0.349 N
HETATM   21  C15 UNL     1      15.901  10.544  -2.269  1.00  0.00     0.123 A
ATOM     22  H10 UNL     1      17.056  11.325  -3.752  1.00  0.00     0.167 HD
BRANCH  19  23
HETATM   23  N1  UNL     1      15.605  10.894  -5.782  1.00  0.00    -0.384 N
ATOM     24  H12 UNL     1      15.507  10.225  -6.546  1.00  0.00     0.157 HD
ATOM     25  H11 UNL     1      15.936  11.819  -6.057  1.00  0.00     0.157 HD
ENDBRANCH  19  23
ENDBRANCH  12  15
ENDBRANCH   7   8
ENDBRANCH   1   7
BRANCH   6  26
HETATM   26  S1  UNL     1      17.328  11.722   3.256  1.00  0.00     0.184 S
HETATM   27  O2  UNL     1      16.479  13.519   3.163  1.00  0.00    -0.224 OA
HETATM   28  O3  UNL     1      17.061  12.078   1.404  1.00  0.00    -0.224 OA
BRANCH  26  29
HETATM   29  C11 UNL     1      19.163  11.698   3.014  1.00  0.00     0.264 C
BRANCH  29  30
HETATM   30  N6  UNL     1      19.802  10.394   2.831  1.00  0.00    -0.357 N
ATOM     31  H6  UNL     1      20.046   9.831   3.646  1.00  0.00     0.162 HD
BRANCH  30  32
HETATM   32  C12 UNL     1      20.058   9.955   1.654  1.00  0.00     0.186 A
HETATM   33  N7  UNL     1      19.097   9.546   0.815  1.00  0.00    -0.280 N
HETATM   34  N8  UNL     1      19.368   9.090  -0.407  1.00  0.00    -0.294 N
ATOM     35  H7  UNL     1      18.124   9.585   1.122  1.00  0.00     0.188 HD
HETATM   36  C13 UNL     1      20.636   9.026  -0.841  1.00  0.00     0.200 A
ATOM     37  H8  UNL     1      18.608   8.787  -1.016  1.00  0.00     0.187 HD
HETATM   38  N9  UNL     1      21.621   9.425  -0.035  1.00  0.00    -0.315 N
HETATM   39  C14 UNL     1      21.361   9.890   1.208  1.00  0.00     0.291 A
ATOM     40  H9  UNL     1      22.587   9.378  -0.362  1.00  0.00     0.170 HD
HETATM   41  O4  UNL     1      22.323  10.264   1.957  1.00  0.00    -0.264 OA
ENDBRANCH  30  32
ENDBRANCH  29  30
ENDBRANCH  26  29
ENDBRANCH   6  26
TORSDOF 8
ENDMDL