MODEL 2
REMARK VINA RESULT: -9.314803804      1.707      2.346
REMARK  8 active torsions:
REMARK  status: ('A' for Active; 'I' for Inactive)
REMARK    1  A    between atoms: N1_1  and  N2_4
REMARK       I    between atoms: C1_6  and  N3_7
REMARK       I    between atoms: C1_6  and  N10_38
REMARK    2  A    between atoms: N3_7  and  C2_9
REMARK    3  A    between atoms: C2_9  and  S1_10
REMARK    4  A    between atoms: C2_9  and  C9_30
REMARK    5  A    between atoms: S1_10  and  C3_11
REMARK    6  A    between atoms: N4_13  and  O1_14
REMARK    7  A    between atoms: C9_30  and  C10_32
REMARK    8  A    between atoms: N10_38  and  N11_40
ROOT
HETATM    1  C2  UNL     1      18.076   9.920   3.147  1.00  0.00     0.245 C
ENDROOT
BRANCH   1   2
HETATM    2  N3  UNL     1      18.727   9.465   1.945  1.00  0.00    -0.202 N
HETATM    3  C1  UNL     1      19.786  10.274   1.432  1.00  0.00     0.712 C
HETATM    4  N2  UNL     1      20.835   9.718   0.919  1.00  0.00    -0.137 N
HETATM    5  N10 UNL     1      19.626  11.681   1.513  1.00  0.00    -0.071 N
ATOM      6  H2  UNL     1      21.572  10.326   0.562  1.00  0.00     0.205 HD
ATOM      7  H10 UNL     1      19.521  12.141   2.417  1.00  0.00     0.212 HD
ATOM      8  H3  UNL     1      18.445   8.603   1.481  1.00  0.00     0.179 HD
BRANCH   4   9
HETATM    9  N1  UNL     1      21.018   8.358   0.824  1.00  0.00    -0.331 N
ATOM     10  H12 UNL     1      21.807   7.961   1.334  1.00  0.00     0.177 HD
ATOM     11  H11 UNL     1      20.417   7.737   0.281  1.00  0.00     0.177 HD
ENDBRANCH   4   9
BRANCH   5  12
HETATM   12  N11 UNL     1      19.618  12.421   0.337  1.00  0.00    -0.024 N
HETATM   13  O5  UNL     1      20.715  12.637  -0.219  1.00  0.00    -0.516 OA
HETATM   14  O6  UNL     1      18.467  12.900  -0.203  1.00  0.00    -0.516 OA
ENDBRANCH   5  12
ENDBRANCH   1   2
BRANCH   1  15
HETATM   15  S1  UNL     1      16.780  11.119   2.844  1.00  0.00    -0.076 SA
BRANCH  15  16
HETATM   16  C3  UNL     1      15.881  10.733   1.326  1.00  0.00     0.091 A
HETATM   17  C4  UNL     1      14.668  10.080   1.363  1.00  0.00     0.160 A
HETATM   18  N4  UNL     1      14.006   9.797   0.206  1.00  0.00    -0.224 N
HETATM   19  C5  UNL     1      14.503  10.140  -0.990  1.00  0.00     0.175 A
HETATM   20  C6  UNL     1      15.714  10.792  -1.028  1.00  0.00     0.156 A
HETATM   21  C8  UNL     1      13.653   9.757  -2.138  1.00  0.00     0.282 C
HETATM   22  N5  UNL     1      16.373  11.072   0.123  1.00  0.00    -0.333 N
HETATM   23  N6  UNL     1      16.405  11.235  -2.191  1.00  0.00    -0.279 N
ATOM     24  H5  UNL     1      17.270  11.555   0.074  1.00  0.00     0.168 HD
HETATM   25  N7  UNL     1      16.216  10.942  -3.545  1.00  0.00    -0.250 N
ATOM     26  H6  UNL     1      17.172  11.881  -2.005  1.00  0.00     0.189 HD
HETATM   27  C7  UNL     1      15.059  10.397  -4.185  1.00  0.00     0.341 C
ATOM     28  H7  UNL     1      17.007  11.144  -4.156  1.00  0.00     0.192 HD
HETATM   29  O2  UNL     1      15.095  10.313  -5.444  1.00  0.00    -0.245 OA
HETATM   30  N8  UNL     1      13.886   9.947  -3.528  1.00  0.00    -0.272 N
ATOM     31  H8  UNL     1      13.099   9.730  -4.138  1.00  0.00     0.174 HD
HETATM   32  O3  UNL     1      12.588   9.189  -1.805  1.00  0.00    -0.265 OA
BRANCH  18  33
HETATM   33  O1  UNL     1      12.799   9.148   0.244  1.00  0.00    -0.283 OA
ATOM     34  H1  UNL     1      11.993   9.633   0.111  1.00  0.00     0.245 HD
ENDBRANCH  18  33
ENDBRANCH  15  16
ENDBRANCH   1  15
BRANCH   1  35
HETATM   35  C9  UNL     1      17.511   8.800   3.935  1.00  0.00     0.216 C
HETATM   36  O4  UNL     1      17.731   7.589   3.688  1.00  0.00    -0.287 OA
BRANCH  35  37
HETATM   37  C10 UNL     1      16.637   9.123   5.079  1.00  0.00     0.123 A
HETATM   38  N9  UNL     1      16.993   9.298   6.342  1.00  0.00    -0.357 N
HETATM   39  C11 UNL     1      16.096   9.577   7.232  1.00  0.00     0.096 A
ATOM     40  H9  UNL     1      17.973   9.213   6.613  1.00  0.00     0.166 HD
HETATM   41  C12 UNL     1      14.793   9.679   6.808  1.00  0.00     0.069 A
HETATM   42  S2  UNL     1      14.950   9.363   5.137  1.00  0.00    -0.079 SA
ENDBRANCH  35  37
ENDBRANCH   1  35
TORSDOF 8
ENDMDL