MODEL 2
REMARK VINA RESULT: -9.755381416      3.089      7.285
REMARK  10 active torsions:
REMARK  status: ('A' for Active; 'I' for Inactive)
REMARK    1  A    between atoms: C2_2  and  N1_3
REMARK    2  A    between atoms: C2_2  and  C3_7
REMARK    3  A    between atoms: N3_10  and  C4_11
REMARK    4  A    between atoms: C5_14  and  N5_15
REMARK    5  A    between atoms: N5_15  and  C6_17
REMARK    6  A    between atoms: C6_17  and  C7_18
REMARK    7  A    between atoms: C7_18  and  N6_19
REMARK    8  A    between atoms: C13_31  and  C14_32
REMARK    9  A    between atoms: C14_32  and  C15_33
REMARK   10  A    between atoms: C17_40  and  O2_41
ROOT
HETATM    1  C4  UNL     1      16.208  10.054   2.236  1.00  0.00     0.715 A
HETATM    2  N4  UNL     1      17.463   9.625   2.492  1.00  0.00    -0.019 N
ATOM      3  H4  UNL     1      17.662   9.215   3.404  1.00  0.00     0.203 HD
HETATM    4  C5  UNL     1      18.458   9.716   1.595  1.00  0.00     0.715 A
HETATM    5  N8  UNL     1      18.169  10.268   0.381  1.00  0.00    -0.068 N
HETATM    6  N9  UNL     1      18.907  10.491  -0.692  1.00  0.00    -0.288 N
ATOM      7  H9  UNL     1      19.898  10.258  -0.765  1.00  0.00     0.187 HD
HETATM    8  C12 UNL     1      18.187  11.064  -1.679  1.00  0.00     0.123 A
HETATM    9  C13 UNL     1      16.908  11.214  -1.197  1.00  0.00     0.030 A
HETATM   10  C18 UNL     1      16.937  10.709   0.081  1.00  0.00     0.172 A
HETATM   11  N12 UNL     1      15.999  10.593   1.006  1.00  0.00    -0.171 N
ATOM     12  H12 UNL     1      15.062  10.928   0.783  1.00  0.00     0.186 HD
ENDROOT
BRANCH   1  13
HETATM   13  N3  UNL     1      15.150   9.951   3.178  1.00  0.00    -0.123 N
HETATM   14  N2  UNL     1      15.158   9.887   4.551  1.00  0.00    -0.290 N
HETATM   15  C3  UNL     1      14.092   9.371   5.028  1.00  0.00     0.036 C
ATOM     16  H2  UNL     1      15.933  10.215   5.127  1.00  0.00     0.187 HD
HETATM   17  C20 UNL     1      13.197   9.014   3.903  1.00  0.00     0.078 C
HETATM   18  C19 UNL     1      13.735   9.894   2.800  1.00  0.00     0.173 C
BRANCH  15  19
HETATM   19  C2  UNL     1      13.693   9.116   6.451  1.00  0.00     0.226 C
HETATM   20  C1  UNL     1      13.848  10.329   7.313  1.00  0.00     0.046 C
BRANCH  19  21
HETATM   21  N1  UNL     1      14.380   7.972   6.967  1.00  0.00    -0.070 N
ATOM     22  H13 UNL     1      14.347   7.198   6.303  1.00  0.00     0.275 HD
ATOM     23  H12 UNL     1      15.387   8.131   6.986  1.00  0.00     0.275 HD
ATOM     24  H11 UNL     1      14.039   7.682   7.883  1.00  0.00     0.275 HD
ENDBRANCH  19  21
ENDBRANCH  15  19
ENDBRANCH   1  13
BRANCH   4  25
HETATM   25  N5  UNL     1      19.661   9.323   1.767  1.00  0.00    -0.222 N
ATOM     26  H5  UNL     1      20.208   9.203   0.915  1.00  0.00     0.177 HD
BRANCH  25  27
HETATM   27  C6  UNL     1      20.344   9.031   2.974  1.00  0.00     0.168 C
BRANCH  27  28
HETATM   28  C7  UNL     1      21.156   7.753   2.896  1.00  0.00     0.292 C
BRANCH  28  29
HETATM   29  N6  UNL     1      21.079   6.971   4.081  1.00  0.00     0.093 N
HETATM   30  C8  UNL     1      21.899   5.816   4.153  1.00  0.00     0.300 C
HETATM   31  C9  UNL     1      21.519   4.722   3.214  1.00  0.00     0.262 C
HETATM   32  N7  UNL     1      20.098   4.608   3.071  1.00  0.00    -0.072 N
HETATM   33  C10 UNL     1      19.354   5.214   4.130  1.00  0.00     0.262 C
ATOM     34  H72 UNL     1      19.799   4.977   2.168  1.00  0.00     0.277 HD
ATOM     35  H71 UNL     1      19.828   3.631   2.957  1.00  0.00     0.277 HD
HETATM   36  C11 UNL     1      19.723   6.650   4.378  1.00  0.00     0.300 C
ENDBRANCH  28  29
ENDBRANCH  27  28
ENDBRANCH  25  27
ENDBRANCH   4  25
BRANCH   9  37
HETATM   37  C14 UNL     1      15.837  11.718  -1.784  1.00  0.00     0.051 C
BRANCH  37  38
HETATM   38  C15 UNL     1      14.922  10.873  -2.526  1.00  0.00     0.088 A
HETATM   39  N10 UNL     1      15.035  10.668  -3.869  1.00  0.00    -0.305 N
HETATM   40  C16 UNL     1      14.033   9.843  -4.217  1.00  0.00     0.326 A
ATOM     41  H10 UNL     1      15.742  11.065  -4.489  1.00  0.00     0.171 HD
HETATM   42  O1  UNL     1      13.782   9.406  -5.368  1.00  0.00    -0.247 OA
HETATM   43  N11 UNL     1      13.305   9.535  -3.106  1.00  0.00    -0.287 N
HETATM   44  C17 UNL     1      13.848  10.167  -2.060  1.00  0.00     0.171 A
ATOM     45  H11 UNL     1      12.486   8.926  -3.077  1.00  0.00     0.172 HD
BRANCH  44  46
HETATM   46  O2  UNL     1      13.403  10.113  -0.755  1.00  0.00    -0.344 OA
ATOM     47  H2  UNL     1      13.577   9.424  -0.126  1.00  0.00     0.219 HD
ENDBRANCH  44  46
ENDBRANCH  37  38
ENDBRANCH   9  37
TORSDOF 10
ENDMDL