MODEL 4
REMARK VINA RESULT: -9.081578628      2.423      8.259
REMARK  11 active torsions:
REMARK  status: ('A' for Active; 'I' for Inactive)
REMARK    1  A    between atoms: O1_2  and  C2_3
REMARK    2  A    between atoms: C3_6  and  N2_7
REMARK    3  A    between atoms: N3_10  and  C6_11
REMARK    4  A    between atoms: C8_13  and  N4_14
REMARK    5  A    between atoms: N4_14  and  C9_16
REMARK    6  A    between atoms: C9_16  and  C10_17
REMARK    7  A    between atoms: C10_17  and  O2_19
REMARK    8  A    between atoms: C12_23  and  N6_24
REMARK    9  A    between atoms: C14_26  and  N7_27
REMARK   10  A    between atoms: C16_32  and  N8_33
REMARK   11  A    between atoms: C19_43  and  N11_44
ROOT
HETATM    1  C6  UNL     1      15.933   9.347   4.392  1.00  0.00     0.124 A
HETATM    2  C7  UNL     1      15.438   9.198   5.687  1.00  0.00     0.097 A
HETATM    3  C8  UNL     1      16.287   8.836   6.711  1.00  0.00     0.120 A
HETATM    4  N5  UNL     1      17.576   8.645   6.380  1.00  0.00    -0.177 N
ATOM      5  H5  UNL     1      18.224   8.378   7.120  1.00  0.00     0.185 HD
HETATM    6  C12 UNL     1      18.066   8.786   5.129  1.00  0.00     0.683 A
HETATM    7  N9  UNL     1      17.222   9.140   4.143  1.00  0.00    -0.177 N
ATOM      8  H9  UNL     1      17.575   9.250   3.192  1.00  0.00     0.186 HD
ENDROOT
BRANCH   1   9
HETATM    9  N3  UNL     1      15.054   9.737   3.333  1.00  0.00    -0.348 N
HETATM   10  C5  UNL     1      14.052  10.755   3.388  1.00  0.00     0.146 C
HETATM   11  C4  UNL     1      13.657  10.984   1.959  1.00  0.00     0.163 C
HETATM   12  N2  UNL     1      14.481  10.133   1.154  1.00  0.00    -0.199 N
HETATM   13  C18 UNL     1      15.043   9.131   2.036  1.00  0.00     0.269 C
BRANCH  12  14
HETATM   14  C3  UNL     1      14.725  10.226  -0.223  1.00  0.00     0.699 A
HETATM   15  N1  UNL     1      13.808   9.969  -1.165  1.00  0.00    -0.154 N
HETATM   16  C2  UNL     1      14.029  10.046  -2.481  1.00  0.00     0.252 A
ATOM     17  H1  UNL     1      12.876   9.695  -0.856  1.00  0.00     0.188 HD
HETATM   18  N12 UNL     1      15.239  10.401  -2.923  1.00  0.00    -0.154 N
HETATM   19  C19 UNL     1      16.209  10.673  -2.017  1.00  0.00     0.693 A
ATOM     20  H12 UNL     1      15.428  10.466  -3.923  1.00  0.00     0.188 HD
HETATM   21  N10 UNL     1      15.952  10.587  -0.699  1.00  0.00    -0.022 N
ATOM     22  H10 UNL     1      16.697  10.798  -0.035  1.00  0.00     0.203 HD
BRANCH  16  23
HETATM   23  O1  UNL     1      13.055   9.774  -3.445  1.00  0.00    -0.326 OA
HETATM   24  C1  UNL     1      13.525   9.456  -4.758  1.00  0.00     0.213 C
ENDBRANCH  16  23
BRANCH  19  25
HETATM   25  N11 UNL     1      17.388  11.024  -2.414  1.00  0.00    -0.234 N
ATOM     26 2H11 UNL     1      18.179  10.982  -1.770  1.00  0.00     0.174 HD
ATOM     27 1H11 UNL     1      17.521  11.338  -3.375  1.00  0.00     0.174 HD
ENDBRANCH  19  25
ENDBRANCH  12  14
ENDBRANCH   1   9
BRANCH   3  28
HETATM   28  N4  UNL     1      15.821   8.701   7.880  1.00  0.00    -0.373 N
ATOM     29  H4  UNL     1      16.337   8.110   8.531  1.00  0.00     0.161 HD
BRANCH  28  30
HETATM   30  C9  UNL     1      14.626   9.316   8.350  1.00  0.00     0.152 C
BRANCH  30  31
HETATM   31  C10 UNL     1      14.914  10.661   8.983  1.00  0.00     0.132 C
HETATM   32  C11 UNL     1      13.624  11.166   9.609  1.00  0.00     0.041 C
BRANCH  31  33
HETATM   33  O2  UNL     1      15.934  10.580   9.926  1.00  0.00    -0.394 OA
ATOM     34  H2  UNL     1      16.290  11.436  10.135  1.00  0.00     0.210 HD
ENDBRANCH  31  33
ENDBRANCH  30  31
ENDBRANCH  28  30
ENDBRANCH   3  28
BRANCH   6  35
HETATM   35  N6  UNL     1      19.424   8.578   4.843  1.00  0.00    -0.214 N
HETATM   36  C13 UNL     1      19.880   8.500   3.450  1.00  0.00     0.174 C
HETATM   37  C14 UNL     1      20.610   7.155   3.360  1.00  0.00     0.204 C
HETATM   38  C15 UNL     1      21.846   7.183   4.229  1.00  0.00     0.069 C
HETATM   39  C16 UNL     1      21.787   8.179   5.339  1.00  0.00     0.204 C
HETATM   40  C17 UNL     1      20.403   8.431   5.875  1.00  0.00     0.174 C
BRANCH  37  41
HETATM   41  N7  UNL     1      19.704   6.170   3.961  1.00  0.00    -0.073 N
ATOM     42  H73 UNL     1      19.568   6.299   4.964  1.00  0.00     0.274 HD
ATOM     43  H72 UNL     1      18.729   6.293   3.689  1.00  0.00     0.274 HD
ATOM     44  H71 UNL     1      20.085   5.257   3.714  1.00  0.00     0.274 HD
ENDBRANCH  37  41
BRANCH  39  45
HETATM   45  N8  UNL     1      22.384   9.462   4.999  1.00  0.00    -0.073 N
ATOM     46  H83 UNL     1      21.726  10.222   5.168  1.00  0.00     0.274 HD
ATOM     47  H82 UNL     1      23.109   9.712   5.671  1.00  0.00     0.274 HD
ATOM     48  H81 UNL     1      22.746   9.502   4.047  1.00  0.00     0.274 HD
ENDBRANCH  39  45
ENDBRANCH   6  35
TORSDOF 11
ENDMDL