MODEL 4
REMARK VINA RESULT: -7.973203053      2.622      8.944
REMARK  11 active torsions:
REMARK  status: ('A' for Active; 'I' for Inactive)
REMARK    1  A    between atoms: O1_2  and  C2_3
REMARK    2  A    between atoms: C5_7  and  O3_8
REMARK    3  A    between atoms: O3_8  and  C6_9
REMARK    4  A    between atoms: C8_12  and  N1_13
REMARK    5  A    between atoms: N2_16  and  C11_17
REMARK    6  A    between atoms: C12_18  and  O4_19
REMARK    7  A    between atoms: C13_21  and  O5_22
REMARK    8  A    between atoms: C14_24  and  O6_25
REMARK    9  A    between atoms: C15_27  and  O7_28
REMARK   10  A    between atoms: C16_30  and  C17_31
REMARK   11  A    between atoms: C17_31  and  O8_32
ROOT
HETATM    1  N1  UNL     1      14.506   9.308   3.390  1.00  0.00     0.157 N
HETATM    2  C9  UNL     1      13.539  10.083   2.630  1.00  0.00     0.309 C
HETATM    3  C10 UNL     1      14.397  11.057   1.812  1.00  0.00     0.305 C
HETATM    4  N2  UNL     1      15.613  10.281   1.674  1.00  0.00     0.126 N
HETATM    5  C18 UNL     1      15.808   9.866   3.048  1.00  0.00     0.547 C
ENDROOT
BRANCH   4   6
HETATM    6  C11 UNL     1      16.694  10.969   1.077  1.00  0.00     0.265 C
HETATM    7  C12 UNL     1      18.005  10.893   1.837  1.00  0.00     0.183 C
HETATM    8  C13 UNL     1      18.953  11.915   1.233  1.00  0.00     0.180 C
HETATM    9  C14 UNL     1      19.175  11.644  -0.241  1.00  0.00     0.178 C
HETATM   10  C15 UNL     1      17.850  11.673  -0.933  1.00  0.00     0.157 C
HETATM   11  C16 UNL     1      17.000  10.541  -0.335  1.00  0.00     0.077 C
BRANCH   7  12
HETATM   12  O4  UNL     1      18.578   9.644   1.592  1.00  0.00    -0.391 OA
ATOM     13  H4  UNL     1      19.256   9.498   2.241  1.00  0.00     0.210 HD
ENDBRANCH   7  12
BRANCH   8  14
HETATM   14  O5  UNL     1      18.459  13.189   1.380  1.00  0.00    -0.390 OA
ATOM     15  H5  UNL     1      17.566  13.245   1.060  1.00  0.00     0.210 HD
ENDBRANCH   8  14
BRANCH   9  16
HETATM   16  O6  UNL     1      20.071  12.574  -0.717  1.00  0.00    -0.390 OA
ATOM     17  H6  UNL     1      20.509  12.970   0.027  1.00  0.00     0.210 HD
ENDBRANCH   9  16
BRANCH  10  18
HETATM   18  O7  UNL     1      17.949  11.553  -2.311  1.00  0.00    -0.392 OA
ATOM     19  H7  UNL     1      17.417  12.183  -2.782  1.00  0.00     0.210 HD
ENDBRANCH  10  18
BRANCH  11  20
HETATM   20  C17 UNL     1      15.742  10.364  -1.159  1.00  0.00     0.173 C
BRANCH  20  21
HETATM   21  O8  UNL     1      15.321  11.642  -1.539  1.00  0.00    -0.400 OA
ATOM     22  H8  UNL     1      14.441  11.551  -1.886  1.00  0.00     0.209 HD
ENDBRANCH  20  21
ENDBRANCH  11  20
ENDBRANCH   4   6
BRANCH   1  23
HETATM   23  C8  UNL     1      14.172   9.476   4.786  1.00  0.00     0.428 C
HETATM   24  S1  UNL     1      15.675   9.931   5.749  1.00  0.00    -0.102 SA
HETATM   25  C7  UNL     1      15.402   8.687   7.082  1.00  0.00     0.139 C
HETATM   26  C6  UNL     1      13.978   8.267   6.684  1.00  0.00     0.276 C
HETATM   27  O9  UNL     1      13.920   8.230   5.313  1.00  0.00    -0.318 OA
BRANCH  26  28
HETATM   28  O3  UNL     1      13.023   9.035   7.283  1.00  0.00    -0.330 OA
BRANCH  28  29
HETATM   29  C5  UNL     1      13.527   9.562   8.466  1.00  0.00     0.270 C
HETATM   30  C4  UNL     1      12.611   9.300   9.642  1.00  0.00     0.087 C
HETATM   31  C3  UNL     1      12.438  10.632  10.364  1.00  0.00     0.178 C
HETATM   32  O2  UNL     1      13.701  11.204  10.520  1.00  0.00    -0.339 OA
HETATM   33  C2  UNL     1      14.270  11.560   9.313  1.00  0.00     0.414 C
HETATM   34  O10 UNL     1      13.543  10.961   8.294  1.00  0.00    -0.308 OA
BRANCH  33  35
HETATM   35  O1  UNL     1      15.630  11.287   9.250  1.00  0.00    -0.344 OA
HETATM   36  C1  UNL     1      16.221  11.258  10.510  1.00  0.00     0.207 C
ENDBRANCH  33  35
ENDBRANCH  28  29
ENDBRANCH  26  28
ENDBRANCH   1  23
TORSDOF 11
ENDMDL