MODEL 5
REMARK VINA RESULT: -9.065012279      1.401      2.636
REMARK  7 active torsions:
REMARK  status: ('A' for Active; 'I' for Inactive)
REMARK    1  A    between atoms: C3_9  and  C4_10
REMARK    2  A    between atoms: N7_17  and  C9_18
REMARK    3  A    between atoms: C9_18  and  C10_19
REMARK    4  A    between atoms: C10_19  and  N8_20
REMARK       I    between atoms: N8_20  and  C11_22
REMARK    5  A    between atoms: C11_22  and  C12_24
REMARK    6  A    between atoms: C17_33  and  C18_34
REMARK    7  A    between atoms: C18_34  and  N10_35
ROOT
HETATM    1  N1  UNL     1      22.302   9.388  -0.682  1.00  0.00    -0.172 NA
HETATM    2  C1  UNL     1      21.519   8.991   0.102  1.00  0.00     0.183 C
HETATM    3  N2  UNL     1      20.620   8.502   1.006  1.00  0.00    -0.280 N
ATOM      4  H2  UNL     1      20.381   7.515   0.918  1.00  0.00     0.179 HD
HETATM    5  C2  UNL     1      20.046   9.139   1.944  1.00  0.00     0.140 C
HETATM    6  N3  UNL     1      19.087   8.605   2.905  1.00  0.00    -0.282 N
ATOM      7  H3  UNL     1      18.870   7.688   3.295  1.00  0.00     0.188 HD
HETATM    8  N4  UNL     1      18.599   9.900   3.052  1.00  0.00    -0.267 N
HETATM    9  C3  UNL     1      17.478  10.753   3.409  1.00  0.00     0.092 C
HETATM   10  C17 UNL     1      17.494  11.980   2.976  1.00  0.00     0.067 C
HETATM   11  N11 UNL     1      18.612  12.472   2.164  1.00  0.00    -0.325 N
ATOM     12  H11 UNL     1      18.603  13.437   1.834  1.00  0.00     0.169 HD
HETATM   13  C19 UNL     1      19.697  11.637   1.830  1.00  0.00     0.254 C
HETATM   14  O3  UNL     1      20.468  11.913   0.895  1.00  0.00    -0.270 OA
HETATM   15  C20 UNL     1      19.885  10.419   2.634  1.00  0.00     0.269 C
ENDROOT
BRANCH   9  16
HETATM   16  C4  UNL     1      16.445  10.211   4.281  1.00  0.00     0.064 A
HETATM   17  C5  UNL     1      16.483  10.172   5.641  1.00  0.00     0.045 A
HETATM   18  C6  UNL     1      15.442   9.650   6.348  1.00  0.00     0.087 A
HETATM   19  C7  UNL     1      15.510   9.622   7.795  1.00  0.00     0.103 C
HETATM   20  C8  UNL     1      14.333   9.150   5.734  1.00  0.00     0.142 A
HETATM   21  N5  UNL     1      15.551   9.600   8.953  1.00  0.00    -0.191 NA
HETATM   22  N6  UNL     1      13.261   8.611   6.528  1.00  0.00    -0.081 NA
HETATM   23  N7  UNL     1      14.260   9.174   4.376  1.00  0.00    -0.299 N
HETATM   24  C16 UNL     1      15.284   9.685   3.686  1.00  0.00     0.261 A
HETATM   25  O2  UNL     1      15.261   9.722   2.413  1.00  0.00    -0.267 OA
BRANCH  23  26
HETATM   26  C9  UNL     1      13.094   8.605   3.752  1.00  0.00     0.153 C
BRANCH  26  27
HETATM   27  C10 UNL     1      12.465   9.373   2.668  1.00  0.00     0.143 C
BRANCH  27  28
HETATM   28  N8  UNL     1      12.766   9.021   1.316  1.00  0.00    -0.358 N
HETATM   29  C11 UNL     1      12.876  10.103   0.364  1.00  0.00     0.248 C
HETATM   30  O1  UNL     1      12.704  11.264   0.781  1.00  0.00    -0.271 OA
ATOM     31  H8  UNL     1      12.896   8.049   1.035  1.00  0.00     0.162 HD
BRANCH  29  32
HETATM   32  C12 UNL     1      13.185   9.798  -1.045  1.00  0.00     0.277 C
HETATM   33  C13 UNL     1      14.490   9.030  -1.185  1.00  0.00     0.044 C
HETATM   34  C14 UNL     1      15.540  10.098  -1.392  1.00  0.00     0.030 C
HETATM   35  C15 UNL     1      14.780  11.244  -1.957  1.00  0.00     0.233 C
HETATM   36  N9  UNL     1      13.365  11.001  -1.825  1.00  0.00    -0.062 N
ATOM     37  H92 UNL     1      12.888  10.960  -2.725  1.00  0.00     0.278 HD
ATOM     38  H91 UNL     1      12.863  11.800  -1.438  1.00  0.00     0.278 HD
ENDBRANCH  29  32
ENDBRANCH  27  28
ENDBRANCH  26  27
ENDBRANCH  23  26
ENDBRANCH   9  16
BRANCH  10  39
HETATM   39  C18 UNL     1      16.405  12.917   3.276  1.00  0.00     0.288 C
BRANCH  39  40
HETATM   40  N10 UNL     1      16.968  14.279   3.268  1.00  0.00    -0.074 N
ATOM     41 3H10 UNL     1      17.266  14.590   4.193  1.00  0.00     0.274 HD
ATOM     42 2H10 UNL     1      17.878  14.329   2.810  1.00  0.00     0.274 HD
ATOM     43 1H10 UNL     1      16.277  14.899   2.846  1.00  0.00     0.274 HD
ENDBRANCH  39  40
ENDBRANCH  10  39
TORSDOF 7
ENDMDL