MODEL 4
REMARK VINA RESULT: -8.683336976      2.359      4.820
REMARK  10 active torsions:
REMARK  status: ('A' for Active; 'I' for Inactive)
REMARK    1  A    between atoms: C3_4  and  O2_5
REMARK    2  A    between atoms: O2_5  and  C4_6
REMARK    3  A    between atoms: C7_11  and  C8_12
REMARK    4  A    between atoms: C8_12  and  O5_13
REMARK    5  A    between atoms: C9_15  and  O6_16
REMARK    6  A    between atoms: C9_15  and  C10_18
REMARK    7  A    between atoms: C13_23  and  O9_24
REMARK    8  A    between atoms: O9_24  and  C14_25
REMARK    9  A    between atoms: C17_28  and  N1_29
REMARK   10  A    between atoms: C19_36  and  O12_37
ROOT
HETATM    1  C1  UNL     1      14.338   9.952  -3.511  1.00  0.00     0.044 C
HETATM    2  C2  UNL     1      14.635  10.443  -2.117  1.00  0.00     0.175 C
HETATM    3  O1  UNL     1      15.597   9.670  -1.514  1.00  0.00    -0.346 OA
HETATM    4  C3  UNL     1      15.871  10.160  -0.240  1.00  0.00     0.316 C
HETATM    5  C13 UNL     1      14.645  10.159   0.641  1.00  0.00     0.321 C
HETATM    6  O11 UNL     1      13.488   9.861  -0.063  1.00  0.00    -0.324 OA
HETATM    7  C19 UNL     1      13.386  10.406  -1.308  1.00  0.00     0.288 C
ENDROOT
BRANCH   4   8
HETATM    8  O2  UNL     1      16.305  11.463  -0.385  1.00  0.00    -0.348 OA
BRANCH   8   9
HETATM    9  C4  UNL     1      17.666  11.591  -0.064  1.00  0.00     0.157 C
HETATM   10  C5  UNL     1      17.829  12.508   1.097  1.00  0.00     0.203 C
HETATM   11  O3  UNL     1      18.269  11.816   2.188  1.00  0.00    -0.358 OA
HETATM   12  C6  UNL     1      18.522  10.505   1.860  1.00  0.00     0.267 C
HETATM   13  O4  UNL     1      19.779  10.182   2.326  1.00  0.00    -0.350 OA
HETATM   14  C12 UNL     1      18.258  10.290   0.435  1.00  0.00     0.075 C
HETATM   15  C7  UNL     1      20.352   9.143   1.637  1.00  0.00     0.193 C
HETATM   16  C9  UNL     1      20.712   9.716   0.259  1.00  0.00     0.174 C
HETATM   17  C11 UNL     1      19.390   9.925  -0.436  1.00  0.00     0.064 C
BRANCH  15  18
HETATM   18  C8  UNL     1      21.530   8.538   2.313  1.00  0.00     0.199 C
BRANCH  18  19
HETATM   19  O5  UNL     1      22.279   9.556   2.882  1.00  0.00    -0.398 OA
ATOM     20  H5  UNL     1      22.284   9.435   3.824  1.00  0.00     0.209 HD
ENDBRANCH  18  19
ENDBRANCH  15  18
BRANCH  16  21
HETATM   21  O6  UNL     1      21.271  10.964   0.487  1.00  0.00    -0.376 OA
ATOM     22  H6  UNL     1      21.031  11.506  -0.256  1.00  0.00     0.211 HD
ENDBRANCH  16  21
BRANCH  16  23
HETATM   23  C10 UNL     1      21.589   8.826  -0.499  1.00  0.00     0.211 C
HETATM   24  O7  UNL     1      22.741   9.211  -0.815  1.00  0.00    -0.646 OA
HETATM   25  O8  UNL     1      21.194   7.558  -0.885  1.00  0.00    -0.646 OA
ENDBRANCH  16  23
ENDBRANCH   8   9
ENDBRANCH   4   8
BRANCH   5  26
HETATM   26  O9  UNL     1      14.819   9.114   1.559  1.00  0.00    -0.326 OA
BRANCH  26  27
HETATM   27  C14 UNL     1      14.795   9.588   2.890  1.00  0.00     0.263 C
HETATM   28  C15 UNL     1      13.464   9.198   3.547  1.00  0.00     0.063 C
HETATM   29  C16 UNL     1      13.637   9.150   5.051  1.00  0.00     0.040 C
HETATM   30  C17 UNL     1      14.813  10.062   5.387  1.00  0.00     0.207 C
HETATM   31  C18 UNL     1      16.048   9.349   4.829  1.00  0.00     0.203 C
HETATM   32  O10 UNL     1      15.848   8.941   3.535  1.00  0.00    -0.359 OA
BRANCH  30  33
HETATM   33  N1  UNL     1      14.903  10.199   6.820  1.00  0.00    -0.073 N
ATOM     34  H13 UNL     1      15.752   9.780   7.198  1.00  0.00     0.274 HD
ATOM     35  H12 UNL     1      15.079  11.161   7.109  1.00  0.00     0.274 HD
ATOM     36  H11 UNL     1      14.058   9.815   7.242  1.00  0.00     0.274 HD
ENDBRANCH  30  33
ENDBRANCH  26  27
ENDBRANCH   5  26
BRANCH   7  37
HETATM   37  O12 UNL     1      12.822  11.686  -1.241  1.00  0.00    -0.369 OA
ATOM     38  H12 UNL     1      11.885  11.620  -1.099  1.00  0.00     0.212 HD
ENDBRANCH   7  37
TORSDOF 10
ENDMDL