MODEL 2
REMARK VINA RESULT: -8.082771296      3.632      8.931
REMARK  10 active torsions:
REMARK  status: ('A' for Active; 'I' for Inactive)
REMARK    1  A    between atoms: C4_4  and  O1_5
REMARK    2  A    between atoms: O1_5  and  C5_6
REMARK    3  A    between atoms: C8_11  and  O4_12
REMARK    4  A    between atoms: C9_14  and  O5_15
REMARK    5  A    between atoms: C10_17  and  O6_18
REMARK    6  A    between atoms: C11_20  and  O7_21
REMARK    7  A    between atoms: O7_21  and  C12_22
REMARK    8  A    between atoms: C13_23  and  N1_24
REMARK    9  A    between atoms: C15_29  and  N2_30
REMARK   10  A    between atoms: C20_36  and  O9_37
ROOT
HETATM    1  C1  UNL     1      19.333   7.276   5.438  1.00  0.00     0.040 C
HETATM    2  C2  UNL     1      19.045   7.488   3.982  1.00  0.00     0.123 C
HETATM    3  C3  UNL     1      19.907   8.624   3.466  1.00  0.00     0.066 C
HETATM    4  C4  UNL     1      18.971   9.735   2.990  1.00  0.00     0.160 C
HETATM    5  C10 UNL     1      18.058  10.004   4.129  1.00  0.00     0.202 C
HETATM    6  C11 UNL     1      17.232   8.800   4.426  1.00  0.00     0.291 C
HETATM    7  O10 UNL     1      17.723   7.711   3.773  1.00  0.00    -0.354 OA
ENDROOT
BRANCH   6   8
HETATM    8  O7  UNL     1      17.149   8.656   5.797  1.00  0.00    -0.349 OA
BRANCH   8   9
HETATM    9  C12 UNL     1      16.018   9.113   6.400  1.00  0.00     0.186 C
HETATM   10  C13 UNL     1      14.899   9.501   5.497  1.00  0.00     0.217 C
HETATM   11  C14 UNL     1      13.604   8.973   6.094  1.00  0.00     0.074 C
HETATM   12  C15 UNL     1      14.005   8.801   7.543  1.00  0.00     0.256 C
HETATM   13  C20 UNL     1      15.366   8.171   7.377  1.00  0.00     0.182 C
BRANCH  10  14
HETATM   14  N1  UNL     1      14.758  10.953   5.393  1.00  0.00    -0.072 N
ATOM     15  H13 UNL     1      14.280  11.338   6.208  1.00  0.00     0.274 HD
ATOM     16  H12 UNL     1      15.657  11.421   5.499  1.00  0.00     0.274 HD
ATOM     17  H11 UNL     1      14.296  11.231   4.527  1.00  0.00     0.274 HD
ENDBRANCH  10  14
BRANCH  12  18
HETATM   18  N2  UNL     1      14.027  10.087   8.188  1.00  0.00     0.100 N
HETATM   19  C16 UNL     1      15.112  10.174   9.176  1.00  0.00     0.299 C
HETATM   20  C17 UNL     1      14.660  11.210  10.199  1.00  0.00     0.198 C
HETATM   21  O8  UNL     1      13.862  12.179   9.571  1.00  0.00    -0.388 OA
HETATM   22  C18 UNL     1      12.600  11.622   9.424  1.00  0.00     0.198 C
HETATM   23  C19 UNL     1      12.809  10.179   9.001  1.00  0.00     0.299 C
ENDBRANCH  12  18
BRANCH  13  24
HETATM   24  O9  UNL     1      16.034   7.979   8.550  1.00  0.00    -0.391 OA
ATOM     25  H9  UNL     1      16.295   8.768   9.011  1.00  0.00     0.210 HD
ENDBRANCH  13  24
ENDBRANCH   8   9
ENDBRANCH   6   8
BRANCH   5  26
HETATM   26  O6  UNL     1      17.302  11.165   3.968  1.00  0.00    -0.388 OA
ATOM     27  H6  UNL     1      17.624  11.897   4.481  1.00  0.00     0.210 HD
ENDBRANCH   5  26
BRANCH   4  28
HETATM   28  O1  UNL     1      19.585  10.805   2.453  1.00  0.00    -0.350 OA
BRANCH  28  29
HETATM   29  C5  UNL     1      19.603  10.918   1.095  1.00  0.00     0.294 C
HETATM   30  O2  UNL     1      19.121   9.707   0.565  1.00  0.00    -0.335 OA
HETATM   31  C6  UNL     1      19.980   9.236  -0.430  1.00  0.00     0.341 C
HETATM   32  O3  UNL     1      19.929  10.159  -1.469  1.00  0.00    -0.364 OA
HETATM   33  C7  UNL     1      18.651  10.694  -1.626  1.00  0.00     0.205 C
HETATM   34  C8  UNL     1      18.408  11.957  -0.881  1.00  0.00     0.175 C
HETATM   35  C9  UNL     1      18.809  12.034   0.525  1.00  0.00     0.204 C
BRANCH  34  36
HETATM   36  O4  UNL     1      17.022  12.225  -1.016  1.00  0.00    -0.391 OA
ATOM     37  H4  UNL     1      16.936  13.171  -0.975  1.00  0.00     0.210 HD
ENDBRANCH  34  36
BRANCH  35  38
HETATM   38  O5  UNL     1      17.668  12.296   1.329  1.00  0.00    -0.388 OA
ATOM     39  H5  UNL     1      16.877  12.268   0.804  1.00  0.00     0.210 HD
ENDBRANCH  35  38
ENDBRANCH  28  29
ENDBRANCH   4  28
TORSDOF 10
ENDMDL