MODEL 5
REMARK VINA RESULT: -8.902253017      2.116      4.062
REMARK  8 active torsions:
REMARK  status: ('A' for Active; 'I' for Inactive)
REMARK    1  A    between atoms: C4_11  and  N4_12
REMARK    2  A    between atoms: N4_12  and  C5_14
REMARK    3  A    between atoms: C5_14  and  C6_15
REMARK    4  A    between atoms: C6_15  and  N5_16
REMARK    5  A    between atoms: N8_20  and  C7_21
REMARK    6  A    between atoms: C7_21  and  C8_22
REMARK    7  A    between atoms: C13_31  and  N10_32
REMARK    8  A    between atoms: C17_36  and  O3_37
ROOT
HETATM    1  N1  UNL     1      20.662   8.415  -0.054  1.00  0.00    -0.234 N
ATOM      2  H11 UNL     1      20.922   7.922   0.801  1.00  0.00     0.174 HD
ATOM      3  H12 UNL     1      21.074   7.913  -0.840  1.00  0.00     0.174 HD
HETATM    4  C1  UNL     1      19.946   9.462  -0.031  1.00  0.00     0.698 A
HETATM    5  N2  UNL     1      19.592  10.133  -1.194  1.00  0.00    -0.198 N
ATOM      6  H2  UNL     1      19.866   9.852  -2.136  1.00  0.00     0.183 HD
HETATM    7  C2  UNL     1      18.851  11.187  -0.905  1.00  0.00     0.157 A
HETATM    8  C3  UNL     1      18.733  11.179   0.466  1.00  0.00     0.178 A
HETATM    9  N3  UNL     1      18.087  12.018   1.314  1.00  0.00    -0.173 N
ATOM     10  H3  UNL     1      17.583  12.810   0.913  1.00  0.00     0.186 HD
HETATM   11  C4  UNL     1      18.070  11.870   2.645  1.00  0.00     0.694 A
HETATM   12  N9  UNL     1      18.740  10.822   3.127  1.00  0.00    -0.021 N
ATOM     13  H9  UNL     1      18.752  10.674   4.136  1.00  0.00     0.203 HD
HETATM   14  C13 UNL     1      19.414   9.936   2.327  1.00  0.00     0.717 A
HETATM   15  N11 UNL     1      19.405  10.122   1.002  1.00  0.00     0.040 N
ENDROOT
BRANCH  11  16
HETATM   16  N4  UNL     1      17.443  12.689   3.432  1.00  0.00    -0.224 N
ATOM     17  H4  UNL     1      18.016  13.307   4.005  1.00  0.00     0.177 HD
BRANCH  16  18
HETATM   18  C5  UNL     1      16.031  12.807   3.573  1.00  0.00     0.160 C
BRANCH  18  19
HETATM   19  C6  UNL     1      15.343  11.500   3.918  1.00  0.00     0.175 C
BRANCH  19  20
HETATM   20  N5  UNL     1      14.418  11.172   2.848  1.00  0.00    -0.227 N
HETATM   21  N6  UNL     1      13.171  11.522   2.703  1.00  0.00    -0.220 N
HETATM   22  N7  UNL     1      12.689  10.998   1.567  1.00  0.00     0.000 NA
ATOM     23  H6  UNL     1      12.644  12.105   3.353  1.00  0.00     0.206 HD
HETATM   24  N8  UNL     1      13.645  10.301   0.977  1.00  0.00    -0.221 N
HETATM   25  C12 UNL     1      14.728  10.404   1.768  1.00  0.00     0.357 A
HETATM   26  O2  UNL     1      15.874   9.885   1.577  1.00  0.00    -0.244 OA
BRANCH  24  27
HETATM   27  C7  UNL     1      13.557   9.572  -0.269  1.00  0.00     0.183 C
BRANCH  27  28
HETATM   28  C8  UNL     1      13.584  10.556  -1.436  1.00  0.00     0.141 C
HETATM   29  C9  UNL     1      14.966  11.015  -1.736  1.00  0.00     0.036 C
HETATM   30  C10 UNL     1      15.096  10.822  -3.235  1.00  0.00     0.029 C
HETATM   31  C11 UNL     1      14.007   9.812  -3.501  1.00  0.00     0.168 C
HETATM   32  O1  UNL     1      13.013  10.044  -2.565  1.00  0.00    -0.384 OA
ENDBRANCH  27  28
ENDBRANCH  24  27
ENDBRANCH  19  20
ENDBRANCH  18  19
ENDBRANCH  16  18
ENDBRANCH  11  16
BRANCH  14  33
HETATM   33  N10 UNL     1      20.087   8.867   2.938  1.00  0.00    -0.215 N
HETATM   34  C14 UNL     1      19.436   7.691   3.492  1.00  0.00     0.146 C
HETATM   35  C15 UNL     1      20.460   7.044   4.399  1.00  0.00     0.015 A
HETATM   36  C16 UNL     1      21.047   5.757   3.925  1.00  0.00     0.039 A
HETATM   37  C18 UNL     1      21.764   7.729   4.155  1.00  0.00     0.039 A
HETATM   38  C17 UNL     1      22.344   6.452   3.587  1.00  0.00     0.124 A
HETATM   39  C19 UNL     1      21.527   8.818   3.148  1.00  0.00     0.148 C
BRANCH  38  40
HETATM   40  O3  UNL     1      22.652   6.477   2.249  1.00  0.00    -0.395 OA
ATOM     41  H3  UNL     1      23.554   6.701   2.052  1.00  0.00     0.210 HD
ENDBRANCH  38  40
ENDBRANCH  14  33
TORSDOF 8
ENDMDL