MODEL 4
REMARK VINA RESULT: -8.263342857      2.247      7.510
REMARK  10 active torsions:
REMARK  status: ('A' for Active; 'I' for Inactive)
REMARK    1  A    between atoms: N1_1  and  C1_4
REMARK    2  A    between atoms: C1_4  and  C2_5
REMARK    3  A    between atoms: N2_7  and  C4_8
REMARK    4  A    between atoms: C6_14  and  N5_15
REMARK    5  A    between atoms: C7_18  and  C8_19
REMARK    6  A    between atoms: C9_24  and  C10_25
REMARK       I    between atoms: C10_25  and  N8_27
REMARK    7  A    between atoms: N9_30  and  C13_31
REMARK    8  A    between atoms: C13_31  and  C14_32
REMARK    9  A    between atoms: C13_31  and  C15_37
REMARK   10  A    between atoms: C14_32  and  N10_33
ROOT
HETATM    1  C2  UNL     1      17.428   9.527   3.885  1.00  0.00     0.030 A
HETATM    2  C3  UNL     1      18.750   9.035   3.713  1.00  0.00     0.133 A
HETATM    3  N2  UNL     1      19.089   9.266   2.436  1.00  0.00    -0.248 N
HETATM    4  N7  UNL     1      18.080   9.859   1.812  1.00  0.00    -0.287 N
ATOM      5  H7  UNL     1      18.079  10.142   0.831  1.00  0.00     0.188 HD
HETATM    6  C9  UNL     1      17.028  10.034   2.693  1.00  0.00     0.129 A
ENDROOT
BRANCH   6   7
HETATM    7  C10 UNL     1      15.767  10.653   2.338  1.00  0.00     0.272 C
HETATM    8  O2  UNL     1      15.443  11.758   2.824  1.00  0.00    -0.266 OA
HETATM    9  N8  UNL     1      14.875  10.000   1.418  1.00  0.00    -0.343 N
HETATM   10  C11 UNL     1      13.632  10.645   1.084  1.00  0.00     0.156 C
HETATM   11  C17 UNL     1      15.145   8.737   0.804  1.00  0.00     0.156 C
HETATM   12  C12 UNL     1      13.634  10.785  -0.421  1.00  0.00     0.293 C
HETATM   13  N9  UNL     1      13.655   9.501  -1.022  1.00  0.00     0.105 N
HETATM   14  C16 UNL     1      13.922   8.441  -0.092  1.00  0.00     0.293 C
BRANCH  13  15
HETATM   15  C13 UNL     1      14.450   9.417  -2.220  1.00  0.00     0.318 C
BRANCH  15  16
HETATM   16  C14 UNL     1      15.163  10.708  -2.539  1.00  0.00     0.273 C
BRANCH  16  17
HETATM   17  N10 UNL     1      16.591  10.515  -2.362  1.00  0.00    -0.077 N
ATOM     18 3H10 UNL     1      16.803   9.768  -1.701  1.00  0.00     0.274 HD
ATOM     19 2H10 UNL     1      17.033  10.107  -3.186  1.00  0.00     0.274 HD
ATOM     20 1H10 UNL     1      17.015  11.403  -2.094  1.00  0.00     0.274 HD
ENDBRANCH  16  17
ENDBRANCH  15  16
BRANCH  15  21
HETATM   21  C15 UNL     1      13.516   9.184  -3.368  1.00  0.00     0.148 A
HETATM   22  N11 UNL     1      13.329   8.025  -4.046  1.00  0.00    -0.270 N
HETATM   23  N12 UNL     1      12.426   8.256  -4.986  1.00  0.00    -0.227 N
ATOM     24  H11 UNL     1      13.798   7.137  -3.865  1.00  0.00     0.190 HD
HETATM   25  N13 UNL     1      12.020   9.498  -4.955  1.00  0.00    -0.227 N
ATOM     26  H12 UNL     1      12.091   7.557  -5.648  1.00  0.00     0.210 HD
HETATM   27  N14 UNL     1      12.687  10.070  -3.962  1.00  0.00    -0.270 N
ATOM     28  H13 UNL     1      11.333   9.936  -5.568  1.00  0.00     0.210 HD
ATOM     29  H14 UNL     1      12.587  11.046  -3.685  1.00  0.00     0.190 HD
ENDBRANCH  15  21
ENDBRANCH  13  15
ENDBRANCH   6   7
BRANCH   1  30
HETATM   30  C1  UNL     1      16.799   9.410   5.181  1.00  0.00     0.096 C
BRANCH  30  31
HETATM   31  N1  UNL     1      17.166   8.671   6.148  1.00  0.00    -0.407 N
ATOM     32  H12 UNL     1      17.924   9.045   6.719  1.00  0.00     0.155 HD
ATOM     33  H11 UNL     1      16.787   7.760   6.405  1.00  0.00     0.155 HD
ENDBRANCH  30  31
ENDBRANCH   1  30
BRANCH   3  34
HETATM   34  C4  UNL     1      20.358   8.921   1.916  1.00  0.00     0.146 A
HETATM   35  N3  UNL     1      21.145   8.035   2.596  1.00  0.00    -0.336 N
HETATM   36  C5  UNL     1      22.353   7.681   2.140  1.00  0.00     0.183 A
ATOM     37  H3  UNL     1      20.804   7.634   3.470  1.00  0.00     0.168 HD
HETATM   38  N4  UNL     1      22.845   8.177   0.998  1.00  0.00    -0.338 N
HETATM   39  C6  UNL     1      22.123   9.050   0.282  1.00  0.00     0.119 A
ATOM     40  H4  UNL     1      23.768   7.890   0.673  1.00  0.00     0.168 HD
HETATM   41  C7  UNL     1      20.843   9.434   0.755  1.00  0.00     0.118 A
BRANCH  39  42
HETATM   42  N5  UNL     1      22.555   9.555  -0.824  1.00  0.00    -0.385 N
ATOM     43  H52 UNL     1      21.973  10.233  -1.315  1.00  0.00     0.157 HD
ATOM     44  H51 UNL     1      23.459   9.299  -1.223  1.00  0.00     0.157 HD
ENDBRANCH  39  42
BRANCH  41  45
HETATM   45  C8  UNL     1      20.081  10.376  -0.030  1.00  0.00     0.272 C
HETATM   46  N6  UNL     1      20.230  11.762   0.210  1.00  0.00    -0.057 NA
HETATM   47  O1  UNL     1      19.289  10.026  -0.921  1.00  0.00    -0.271 OA
ENDBRANCH  41  45
ENDBRANCH   3  34
TORSDOF 10
ENDMDL