MODEL 4
REMARK VINA RESULT: -8.979809361      1.994      6.060
REMARK  11 active torsions:
REMARK  status: ('A' for Active; 'I' for Inactive)
REMARK    1  A    between atoms: C2_5  and  O2_6
REMARK    2  A    between atoms: C3_8  and  C4_9
REMARK    3  A    between atoms: C4_9  and  C5_10
REMARK    4  A    between atoms: C7_15  and  N4_16
REMARK    5  A    between atoms: N4_16  and  C8_18
REMARK    6  A    between atoms: C8_18  and  C9_19
REMARK    7  A    between atoms: C9_19  and  C10_20
REMARK    8  A    between atoms: C10_20  and  O3_21
REMARK    9  A    between atoms: C11_25  and  N6_26
REMARK   10  A    between atoms: C13_28  and  C14_29
REMARK   11  A    between atoms: C14_29  and  C15_30
ROOT
HETATM    1  C5  UNL     1      15.441   9.906   6.067  1.00  0.00     0.030 A
HETATM    2  C6  UNL     1      16.357   9.294   6.884  1.00  0.00     0.123 A
HETATM    3  N2  UNL     1      17.276   8.725   6.104  1.00  0.00    -0.288 N
ATOM      4  H2  UNL     1      18.082   8.198   6.441  1.00  0.00     0.187 HD
HETATM    5  N3  UNL     1      16.997   8.942   4.836  1.00  0.00    -0.068 N
HETATM    6  C7  UNL     1      17.630   8.568   3.691  1.00  0.00     0.715 A
HETATM    7  N5  UNL     1      17.086   8.952   2.535  1.00  0.00    -0.021 N
ATOM      8  H5  UNL     1      17.545   8.681   1.666  1.00  0.00     0.203 HD
HETATM    9  C11 UNL     1      15.954   9.682   2.467  1.00  0.00     0.696 A
HETATM   10  N11 UNL     1      15.354  10.034   3.591  1.00  0.00    -0.173 N
ATOM     11  H11 UNL     1      14.497  10.586   3.556  1.00  0.00     0.186 HD
HETATM   12  C17 UNL     1      15.869   9.668   4.785  1.00  0.00     0.172 A
ENDROOT
BRANCH   9  13
HETATM   13  N6  UNL     1      15.418  10.063   1.205  1.00  0.00    -0.216 N
HETATM   14  C12 UNL     1      14.076  10.036   0.621  1.00  0.00     0.148 C
HETATM   15  C13 UNL     1      14.746  10.053  -0.737  1.00  0.00     0.030 C
HETATM   16  C16 UNL     1      15.944  10.624  -0.011  1.00  0.00     0.148 C
BRANCH  15  17
HETATM   17  C14 UNL     1      14.047  10.978  -1.679  1.00  0.00     0.086 C
BRANCH  17  18
HETATM   18  C15 UNL     1      14.113  10.361  -3.050  1.00  0.00     0.107 A
HETATM   19  N7  UNL     1      15.197  10.165  -3.819  1.00  0.00    -0.274 N
HETATM   20  N8  UNL     1      14.854   9.595  -4.959  1.00  0.00    -0.007 NA
ATOM     21  H7  UNL     1      16.149  10.421  -3.559  1.00  0.00     0.185 HD
HETATM   22  N9  UNL     1      13.544   9.432  -4.903  1.00  0.00    -0.007 NA
HETATM   23  N10 UNL     1      13.071   9.888  -3.756  1.00  0.00    -0.274 N
ATOM     24  H10 UNL     1      12.095   9.883  -3.460  1.00  0.00     0.185 HD
ENDBRANCH  17  18
ENDBRANCH  15  17
ENDBRANCH   9  13
BRANCH   6  25
HETATM   25  N4  UNL     1      18.696   7.881   3.789  1.00  0.00    -0.224 N
ATOM     26  H4  UNL     1      18.605   6.869   3.696  1.00  0.00     0.177 HD
BRANCH  25  27
HETATM   27  C8  UNL     1      20.007   8.397   4.020  1.00  0.00     0.140 C
BRANCH  27  28
HETATM   28  C9  UNL     1      20.900   7.971   2.858  1.00  0.00     0.046 C
BRANCH  28  29
HETATM   29  C10 UNL     1      20.888   9.095   1.844  1.00  0.00     0.165 C
BRANCH  29  30
HETATM   30  O3  UNL     1      19.761   9.035   1.041  1.00  0.00    -0.401 OA
ATOM     31  H3  UNL     1      19.764   9.728   0.391  1.00  0.00     0.209 HD
ENDBRANCH  29  30
ENDBRANCH  28  29
ENDBRANCH  27  28
ENDBRANCH  25  27
ENDBRANCH   6  25
BRANCH   1  32
HETATM   32  C4  UNL     1      14.375  10.580   6.455  1.00  0.00     0.051 C
BRANCH  32  33
HETATM   33  C3  UNL     1      14.009  10.608   7.851  1.00  0.00     0.088 A
HETATM   34  C2  UNL     1      13.343   9.601   8.507  1.00  0.00     0.171 A
HETATM   35  N1  UNL     1      13.166   9.958   9.790  1.00  0.00    -0.287 N
HETATM   36  C1  UNL     1      13.713  11.173   9.940  1.00  0.00     0.326 A
ATOM     37  H1  UNL     1      12.704   9.408  10.514  1.00  0.00     0.172 HD
HETATM   38  O1  UNL     1      13.735  11.829  11.031  1.00  0.00    -0.247 OA
HETATM   39  N12 UNL     1      14.225  11.568   8.767  1.00  0.00    -0.305 N
ATOM     40  H12 UNL     1      14.701  12.454   8.595  1.00  0.00     0.171 HD
BRANCH  34  41
HETATM   41  O2  UNL     1      12.926   8.401   7.906  1.00  0.00    -0.344 OA
ATOM     42  H2  UNL     1      12.532   7.655   8.343  1.00  0.00     0.219 HD
ENDBRANCH  34  41
ENDBRANCH  32  33
ENDBRANCH   1  32
TORSDOF 11
ENDMDL