MODEL 5
REMARK VINA RESULT: -8.825063968      1.954      3.354
REMARK  10 active torsions:
REMARK  status: ('A' for Active; 'I' for Inactive)
REMARK    1  A    between atoms: N2_8  and  C5_9
REMARK    2  A    between atoms: C5_9  and  C6_10
REMARK    3  A    between atoms: C6_10  and  O3_11
REMARK    4  A    between atoms: C6_10  and  C7_13
REMARK    5  A    between atoms: C7_13  and  O4_14
REMARK    6  A    between atoms: O4_14  and  C8_15
REMARK    7  A    between atoms: C11_19  and  C12_20
REMARK    8  A    between atoms: C12_20  and  C13_21
REMARK    9  A    between atoms: C13_21  and  O6_22
REMARK   10  A    between atoms: C14_24  and  O7_25
ROOT
HETATM    1  C6  UNL     1      15.703   9.566   4.807  1.00  0.00     0.162 C
ENDROOT
BRANCH   1   2
HETATM    2  C5  UNL     1      16.627  10.756   4.676  1.00  0.00     0.186 C
BRANCH   2   3
HETATM    3  N2  UNL     1      17.314  10.611   3.384  1.00  0.00    -0.251 N
HETATM    4  C4  UNL     1      18.493   9.972   3.295  1.00  0.00     0.280 A
HETATM    5  C3  UNL     1      19.204   9.785   2.151  1.00  0.00     0.134 A
HETATM    6  O2  UNL     1      18.993   9.500   4.370  1.00  0.00    -0.265 OA
HETATM    7  C2  UNL     1      20.421   9.115   2.111  1.00  0.00     0.269 A
HETATM    8  C16 UNL     1      18.671  10.297   0.963  1.00  0.00     0.129 A
HETATM    9  N1  UNL     1      21.059   8.973   0.936  1.00  0.00    -0.270 N
HETATM   10  O1  UNL     1      20.895   8.658   3.178  1.00  0.00    -0.267 OA
HETATM   11  C1  UNL     1      22.347   8.271   0.852  1.00  0.00     0.164 C
HETATM   12  C18 UNL     1      20.513   9.475  -0.159  1.00  0.00     0.331 A
HETATM   13  N5  UNL     1      19.321  10.144  -0.197  1.00  0.00    -0.298 N
HETATM   14  O9  UNL     1      21.126   9.334  -1.261  1.00  0.00    -0.246 OA
HETATM   15  C17 UNL     1      18.771  10.669  -1.402  1.00  0.00     0.161 C
HETATM   16  C15 UNL     1      17.470  10.944   1.071  1.00  0.00     0.288 A
HETATM   17  N4  UNL     1      16.813  11.093   2.261  1.00  0.00    -0.259 N
HETATM   18  O8  UNL     1      16.935  11.425   0.060  1.00  0.00    -0.264 OA
ATOM     19  H4  UNL     1      15.920  11.584   2.281  1.00  0.00     0.190 HD
ENDBRANCH   2   3
ENDBRANCH   1   2
BRANCH   1  20
HETATM   20  O3  UNL     1      16.300   8.407   4.346  1.00  0.00    -0.392 OA
ATOM     21  H3  UNL     1      15.671   7.838   3.917  1.00  0.00     0.210 HD
ENDBRANCH   1  20
BRANCH   1  22
HETATM   22  C7  UNL     1      14.356   9.813   4.180  1.00  0.00     0.210 C
BRANCH  22  23
HETATM   23  O4  UNL     1      13.923   8.745   3.361  1.00  0.00    -0.333 OA
BRANCH  23  24
HETATM   24  C8  UNL     1      13.869   8.986   1.995  1.00  0.00     0.147 A
HETATM   25  C9  UNL     1      13.326  10.136   1.454  1.00  0.00     0.111 A
HETATM   26  C10 UNL     1      13.297  10.326   0.088  1.00  0.00     0.186 A
HETATM   27  O5  UNL     1      12.804  11.369  -0.403  1.00  0.00    -0.288 OA
HETATM   28  C11 UNL     1      13.808   9.372  -0.762  1.00  0.00     0.045 A
HETATM   29  C14 UNL     1      14.343   8.237  -0.188  1.00  0.00     0.152 A
HETATM   30  N3  UNL     1      14.360   8.073   1.166  1.00  0.00    -0.317 N
ATOM     31  H3  UNL     1      14.762   7.220   1.555  1.00  0.00     0.170 HD
BRANCH  28  32
HETATM   32  C12 UNL     1      13.806   9.512  -2.221  1.00  0.00     0.073 C
BRANCH  32  33
HETATM   33  C13 UNL     1      15.031  10.214  -2.755  1.00  0.00     0.169 C
BRANCH  33  34
HETATM   34  O6  UNL     1      15.170  11.500  -2.280  1.00  0.00    -0.401 OA
ATOM     35  H6  UNL     1      15.983  11.911  -2.547  1.00  0.00     0.209 HD
ENDBRANCH  33  34
ENDBRANCH  32  33
ENDBRANCH  28  32
BRANCH  29  36
HETATM   36  O7  UNL     1      14.873   7.240  -0.979  1.00  0.00    -0.346 OA
ATOM     37  H7  UNL     1      14.309   6.720  -1.539  1.00  0.00     0.219 HD
ENDBRANCH  29  36
ENDBRANCH  23  24
ENDBRANCH  22  23
ENDBRANCH   1  22
TORSDOF 10
ENDMDL