MODEL 2
REMARK VINA RESULT: -8.481596828      0.597      1.496
REMARK  8 active torsions:
REMARK  status: ('A' for Active; 'I' for Inactive)
REMARK    1  A    between atoms: C3_4  and  O1_5
REMARK    2  A    between atoms: N2_7  and  C4_8
REMARK    3  A    between atoms: C4_8  and  C5_9
REMARK       I    between atoms: C5_9  and  N3_11
REMARK    4  A    between atoms: N4_14  and  C8_15
REMARK    5  A    between atoms: C8_15  and  C9_16
REMARK    6  A    between atoms: C9_16  and  N5_17
REMARK    7  A    between atoms: N5_17  and  C10_19
REMARK    8  A    between atoms: N9_26  and  C11_27
ROOT
HETATM    1  C9  UNL     1      17.714  10.930  -1.972  1.00  0.00     0.183 C
ENDROOT
BRANCH   1   2
HETATM    2  C8  UNL     1      16.640   9.979  -2.345  1.00  0.00     0.088 C
BRANCH   2   3
HETATM    3  N4  UNL     1      15.486   9.914  -1.571  1.00  0.00    -0.349 N
HETATM    4  C7  UNL     1      14.652   8.782  -1.617  1.00  0.00     0.088 C
HETATM    5  C6  UNL     1      14.389   8.297  -0.212  1.00  0.00     0.171 C
HETATM    6  N3  UNL     1      14.425   9.302   0.797  1.00  0.00    -0.341 N
HETATM    7  C5  UNL     1      13.871   9.013   2.076  1.00  0.00     0.238 C
HETATM    8  C17 UNL     1      14.994  10.627   0.626  1.00  0.00     0.171 C
HETATM    9  O2  UNL     1      13.367   7.884   2.273  1.00  0.00    -0.272 OA
HETATM   10  C16 UNL     1      15.051  11.034  -0.836  1.00  0.00     0.088 C
BRANCH   7  11
HETATM   11  C4  UNL     1      13.864   9.993   3.187  1.00  0.00     0.238 C
BRANCH  11  12
HETATM   12  N2  UNL     1      14.708   9.540   4.258  1.00  0.00    -0.270 N
HETATM   13  C3  UNL     1      14.262   9.199   5.477  1.00  0.00     0.162 A
HETATM   14  C2  UNL     1      15.367   8.827   6.195  1.00  0.00     0.151 A
HETATM   15  N1  UNL     1      16.477   8.939   5.423  1.00  0.00    -0.310 N
HETATM   16  C1  UNL     1      17.839   8.652   5.781  1.00  0.00     0.160 C
HETATM   17  C18 UNL     1      16.059   9.381   4.224  1.00  0.00     0.330 A
HETATM   18  O3  UNL     1      16.814   9.605   3.245  1.00  0.00    -0.246 OA
BRANCH  13  19
HETATM   19  O1  UNL     1      12.979   9.209   5.943  1.00  0.00    -0.345 OA
ATOM     20  H1  UNL     1      12.199   9.317   5.412  1.00  0.00     0.219 HD
ENDBRANCH  13  19
ENDBRANCH  11  12
ENDBRANCH   7  11
ENDBRANCH   2   3
ENDBRANCH   1   2
BRANCH   1  21
HETATM   21  N5  UNL     1      18.631  10.449  -0.960  1.00  0.00    -0.218 N
ATOM     22  H5  UNL     1      18.975   9.489  -0.995  1.00  0.00     0.178 HD
BRANCH  21  23
HETATM   23  C10 UNL     1      19.010  11.237  -0.013  1.00  0.00     0.717 A
HETATM   24  N6  UNL     1      18.486  12.449   0.307  1.00  0.00    -0.115 N
HETATM   25  N7  UNL     1      19.138  12.959   1.340  1.00  0.00    -0.213 N
ATOM     26  H6  UNL     1      17.707  12.898  -0.176  1.00  0.00     0.207 HD
HETATM   27  N8  UNL     1      20.060  12.083   1.669  1.00  0.00    -0.206 N
ATOM     28  H7  UNL     1      18.960  13.857   1.791  1.00  0.00     0.210 HD
HETATM   29  N9  UNL     1      20.012  11.018   0.864  1.00  0.00    -0.066 N
ATOM     30  H8  UNL     1      20.723  12.201   2.435  1.00  0.00     0.211 HD
BRANCH  29  31
HETATM   31  C11 UNL     1      20.825   9.861   0.883  1.00  0.00     0.119 A
HETATM   32  C12 UNL     1      21.961   9.791   0.109  1.00  0.00     0.037 A
HETATM   33  C13 UNL     1      22.773   8.662   0.113  1.00  0.00     0.019 A
HETATM   34  C14 UNL     1      22.414   7.602   0.918  1.00  0.00     0.090 A
HETATM   35  N10 UNL     1      21.305   7.679   1.669  1.00  0.00    -0.351 N
HETATM   36  C15 UNL     1      20.523   8.772   1.662  1.00  0.00     0.128 A
ATOM     37  H10 UNL     1      21.049   6.888   2.260  1.00  0.00     0.166 HD
HETATM   38  N11 UNL     1      19.476   8.809   2.390  1.00  0.00    -0.384 N
ATOM     39 2H11 UNL     1      18.883   9.638   2.385  1.00  0.00     0.157 HD
ATOM     40 1H11 UNL     1      19.251   8.000   2.969  1.00  0.00     0.157 HD
ENDBRANCH  29  31
ENDBRANCH  21  23
ENDBRANCH   1  21
TORSDOF 8
ENDMDL