MODEL 3
REMARK VINA RESULT: -9.164856077      2.636      7.865
REMARK  9 active torsions:
REMARK  status: ('A' for Active; 'I' for Inactive)
REMARK    1  A    between atoms: C2_3  and  N2_4
REMARK    2  A    between atoms: N2_4  and  C3_6
REMARK    3  A    between atoms: C3_6  and  C4_7
REMARK    4  A    between atoms: N3_9  and  C6_10
REMARK    5  A    between atoms: C6_10  and  C7_11
REMARK    6  A    between atoms: C7_11  and  C8_12
REMARK    7  A    between atoms: C8_12  and  N4_13
REMARK    8  A    between atoms: N4_13  and  C9_15
REMARK    9  A    between atoms: C12_24  and  N8_25
ROOT
HETATM    1  C1  UNL     1      13.408   9.785  -2.938  1.00  0.00     0.180 C
HETATM    2  N1  UNL     1      14.688  10.254  -2.399  1.00  0.00    -0.137 N
HETATM    3  C2  UNL     1      14.870  10.528  -1.101  1.00  0.00     0.690 A
HETATM    4  N12 UNL     1      16.131  10.967  -0.702  1.00  0.00    -0.166 N
ATOM      5  H12 UNL     1      16.277  11.177   0.286  1.00  0.00     0.186 HD
HETATM    6  C15 UNL     1      17.150  11.126  -1.529  1.00  0.00     0.206 A
HETATM    7  C16 UNL     1      18.452  11.587  -1.070  1.00  0.00     0.137 C
HETATM    8  N13 UNL     1      19.479  11.954  -0.686  1.00  0.00    -0.188 NA
HETATM    9  N14 UNL     1      16.944  10.845  -2.829  1.00  0.00    -0.285 N
ATOM     10  H14 UNL     1      17.703  10.954  -3.502  1.00  0.00     0.172 HD
HETATM   11  C17 UNL     1      15.736  10.419  -3.241  1.00  0.00     0.342 A
HETATM   12  O2  UNL     1      15.526  10.149  -4.469  1.00  0.00    -0.246 OA
ENDROOT
BRANCH   3  13
HETATM   13  N2  UNL     1      13.996  10.421  -0.226  1.00  0.00    -0.199 N
ATOM     14  H2  UNL     1      13.576  11.342  -0.104  1.00  0.00     0.183 HD
BRANCH  13  15
HETATM   15  C3  UNL     1      13.366   9.567   0.643  1.00  0.00     0.138 C
BRANCH  15  16
HETATM   16  C4  UNL     1      13.648   9.868   2.103  1.00  0.00     0.082 A
HETATM   17  C5  UNL     1      13.539   8.980   3.166  1.00  0.00     0.144 A
HETATM   18  N3  UNL     1      13.884   9.666   4.259  1.00  0.00    -0.287 N
HETATM   19  N10 UNL     1      14.197  10.911   3.946  1.00  0.00    -0.240 N
HETATM   20  N11 UNL     1      14.051  11.015   2.653  1.00  0.00    -0.284 N
ATOM     21  H10 UNL     1      14.495  11.645   4.588  1.00  0.00     0.208 HD
ATOM     22  H11 UNL     1      14.224  11.872   2.127  1.00  0.00     0.188 HD
BRANCH  18  23
HETATM   23  C6  UNL     1      13.891   9.055   5.597  1.00  0.00     0.151 C
BRANCH  23  24
HETATM   24  C7  UNL     1      14.845   9.853   6.459  1.00  0.00     0.041 C
BRANCH  24  25
HETATM   25  C8  UNL     1      16.172   9.147   6.467  1.00  0.00     0.123 C
BRANCH  25  26
HETATM   26  N4  UNL     1      16.835   9.236   5.192  1.00  0.00    -0.375 N
ATOM     27  H4  UNL     1      16.418   9.797   4.448  1.00  0.00     0.161 HD
BRANCH  26  28
HETATM   28  C9  UNL     1      17.950   8.617   4.973  1.00  0.00     0.121 A
HETATM   29  N5  UNL     1      18.452   7.783   5.911  1.00  0.00    -0.338 N
HETATM   30  C10 UNL     1      19.608   7.146   5.676  1.00  0.00     0.183 A
ATOM     31  H5  UNL     1      17.955   7.639   6.790  1.00  0.00     0.168 HD
HETATM   32  N6  UNL     1      20.300   7.300   4.536  1.00  0.00    -0.337 N
HETATM   33  C11 UNL     1      19.824   8.127   3.582  1.00  0.00     0.141 A
ATOM     34  H6  UNL     1      21.177   6.798   4.393  1.00  0.00     0.168 HD
HETATM   35  N7  UNL     1      20.481   8.315   2.423  1.00  0.00    -0.176 N
HETATM   36  C14 UNL     1      18.654   8.782   3.800  1.00  0.00     0.121 A
HETATM   37  C12 UNL     1      20.011   9.134   1.474  1.00  0.00     0.680 A
ATOM     38  H7  UNL     1      21.360   7.822   2.263  1.00  0.00     0.186 HD
HETATM   39  N9  UNL     1      18.855   9.794   1.668  1.00  0.00    -0.155 N
HETATM   40  C13 UNL     1      18.174   9.627   2.816  1.00  0.00     0.277 A
ATOM     41  H9  UNL     1      18.497  10.419   0.946  1.00  0.00     0.187 HD
HETATM   42  O1  UNL     1      17.089  10.216   3.052  1.00  0.00    -0.267 OA
BRANCH  37  43
HETATM   43  N8  UNL     1      20.701   9.262   0.388  1.00  0.00    -0.234 N
ATOM     44  H82 UNL     1      21.099   8.459  -0.100  1.00  0.00     0.174 HD
ATOM     45  H81 UNL     1      20.843  10.202   0.019  1.00  0.00     0.174 HD
ENDBRANCH  37  43
ENDBRANCH  26  28
ENDBRANCH  25  26
ENDBRANCH  24  25
ENDBRANCH  23  24
ENDBRANCH  18  23
ENDBRANCH  15  16
ENDBRANCH  13  15
ENDBRANCH   3  13
TORSDOF 9
ENDMDL