MODEL 2
REMARK VINA RESULT: -7.655243696      0.103      1.876
REMARK  13 active torsions:
REMARK  status: ('A' for Active; 'I' for Inactive)
REMARK    1  A    between atoms: N2_5  and  C4_6
REMARK    2  A    between atoms: C5_9  and  N4_10
REMARK    3  A    between atoms: N4_10  and  C6_11
REMARK    4  A    between atoms: N4_10  and  C8_15
REMARK    5  A    between atoms: C6_11  and  C7_12
REMARK    6  A    between atoms: C7_12  and  O1_13
REMARK    7  A    between atoms: C8_15  and  C9_16
REMARK    8  A    between atoms: C9_16  and  O2_17
REMARK    9  A    between atoms: C12_22  and  C13_23
REMARK   10  A    between atoms: C13_23  and  O4_24
REMARK   11  A    between atoms: N5_26  and  O5_28
REMARK   12  A    between atoms: N6_30  and  C14_31
REMARK   13  A    between atoms: C14_31  and  O6_32
ROOT
HETATM    1  C4  UNL     1      17.069   9.073   4.698  1.00  0.00     0.683 A
HETATM    2  N3  UNL     1      18.197   8.416   4.990  1.00  0.00    -0.175 N
ATOM      3  H3  UNL     1      18.240   7.895   5.866  1.00  0.00     0.186 HD
HETATM    4  C5  UNL     1      19.296   8.406   4.174  1.00  0.00     0.141 A
HETATM    5  C10 UNL     1      19.287   9.081   3.011  1.00  0.00     0.107 A
HETATM    6  C11 UNL     1      20.338   9.141   2.149  1.00  0.00     0.222 A
HETATM    7  O3  UNL     1      21.414   8.534   2.407  1.00  0.00    -0.285 OA
HETATM    8  C12 UNL     1      20.241   9.883   0.959  1.00  0.00     0.157 A
HETATM    9  N6  UNL     1      19.101  10.531   0.693  1.00  0.00    -0.257 N
HETATM   10  N7  UNL     1      18.068  10.464   1.553  1.00  0.00    -0.275 N
HETATM   11  C15 UNL     1      16.818  11.162   1.258  1.00  0.00     0.180 C
HETATM   12  C16 UNL     1      18.106   9.775   2.694  1.00  0.00     0.155 A
HETATM   13  N8  UNL     1      17.043   9.749   3.540  1.00  0.00    -0.174 N
ATOM     14  H8  UNL     1      16.198  10.260   3.285  1.00  0.00     0.186 HD
ENDROOT
BRANCH   4  15
HETATM   15  N4  UNL     1      20.436   7.588   4.570  1.00  0.00    -0.342 N
BRANCH  15  16
HETATM   16  C6  UNL     1      21.314   8.255   5.483  1.00  0.00     0.155 C
BRANCH  16  17
HETATM   17  C7  UNL     1      22.757   7.912   5.470  1.00  0.00     0.184 C
BRANCH  17  18
HETATM   18  O1  UNL     1      23.535   8.233   4.426  1.00  0.00    -0.399 OA
ATOM     19  H1  UNL     1      24.436   8.507   4.552  1.00  0.00     0.209 HD
ENDBRANCH  17  18
ENDBRANCH  16  17
ENDBRANCH  15  16
BRANCH  15  20
HETATM   20  C8  UNL     1      20.505   6.326   3.951  1.00  0.00     0.091 C
BRANCH  20  21
HETATM   21  C9  UNL     1      19.528   5.257   4.232  1.00  0.00     0.208 C
BRANCH  21  22
HETATM   22  O2  UNL     1      19.079   5.264   5.575  1.00  0.00    -0.396 OA
ATOM     23  H2  UNL     1      18.433   4.589   5.750  1.00  0.00     0.209 HD
ENDBRANCH  21  22
ENDBRANCH  20  21
ENDBRANCH  15  20
ENDBRANCH   4  15
BRANCH   1  24
HETATM   24  N2  UNL     1      15.931   9.067   5.571  1.00  0.00    -0.214 N
HETATM   25  C3  UNL     1      16.140   8.746   6.987  1.00  0.00     0.171 C
HETATM   26  C2  UNL     1      15.394   9.858   7.735  1.00  0.00     0.292 C
HETATM   27  N1  UNL     1      13.972   9.624   7.530  1.00  0.00     0.087 N
HETATM   28  C1  UNL     1      13.501   8.876   8.675  1.00  0.00     0.310 C
HETATM   29  C18 UNL     1      13.692   8.901   6.310  1.00  0.00     0.292 C
HETATM   30  C17 UNL     1      14.592   9.349   5.171  1.00  0.00     0.171 C
ENDBRANCH   1  24
BRANCH   8  31
HETATM   31  C13 UNL     1      21.395   9.855   0.102  1.00  0.00     0.193 C
HETATM   32  N5  UNL     1      21.522   8.934  -0.788  1.00  0.00    -0.245 N
ATOM     33  H5  UNL     1      20.802   8.218  -0.887  1.00  0.00     0.196 HD
BRANCH  31  34
HETATM   34  O4  UNL     1      22.396  10.781   0.177  1.00  0.00    -0.343 OA
ATOM     35  H4  UNL     1      23.069  10.867  -0.488  1.00  0.00     0.219 HD
ENDBRANCH  31  34
BRANCH  32  36
HETATM   36  O5  UNL     1      22.612   8.913  -1.593  1.00  0.00    -0.288 OA
ATOM     37  H5  UNL     1      23.330   8.319  -1.407  1.00  0.00     0.244 HD
ENDBRANCH  32  36
ENDBRANCH   8  31
BRANCH   9  38
HETATM   38  C14 UNL     1      18.948  11.368  -0.503  1.00  0.00     0.314 C
BRANCH  38  39
HETATM   39  O6  UNL     1      19.756  12.493  -0.470  1.00  0.00    -0.380 OA
ATOM     40  H6  UNL     1      19.403  13.210  -0.984  1.00  0.00     0.211 HD
ENDBRANCH  38  39
ENDBRANCH   9  38
TORSDOF 13
ENDMDL