MODEL 4
REMARK VINA RESULT: -8.641577170      2.478      7.215
REMARK  12 active torsions:
REMARK  status: ('A' for Active; 'I' for Inactive)
REMARK    1  A    between atoms: N1_2  and  C3_4
REMARK    2  A    between atoms: C4_7  and  N3_8
REMARK    3  A    between atoms: N3_8  and  C5_10
REMARK    4  A    between atoms: C5_10  and  C6_11
REMARK    5  A    between atoms: C7_16  and  O1_17
REMARK    6  A    between atoms: O1_17  and  C8_18
REMARK    7  A    between atoms: C8_18  and  C9_19
REMARK    8  A    between atoms: C9_19  and  N6_20
REMARK    9  A    between atoms: N7_24  and  N8_25
REMARK   10  A    between atoms: C10_28  and  N9_29
REMARK   11  A    between atoms: C11_34  and  N11_35
REMARK   12  A    between atoms: N11_35  and  C12_37
ROOT
HETATM    1  N3  UNL     1      13.906   9.426   0.305  1.00  0.00    -0.219 N
ATOM      2  H3  UNL     1      13.032   9.938   0.427  1.00  0.00     0.178 HD
ENDROOT
BRANCH   1   3
HETATM    3  C4  UNL     1      14.628   9.705  -0.710  1.00  0.00     0.707 A
HETATM    4  N2  UNL     1      14.080   9.581  -1.942  1.00  0.00    -0.021 N
HETATM    5  C3  UNL     1      14.814   9.867  -3.027  1.00  0.00     0.708 A
ATOM      6  H2  UNL     1      13.113   9.272  -2.044  1.00  0.00     0.203 HD
HETATM    7  N12 UNL     1      16.071  10.266  -2.859  1.00  0.00    -0.021 N
HETATM    8  C11 UNL     1      16.636  10.395  -1.649  1.00  0.00     0.707 A
ATOM      9  H12 UNL     1      16.628  10.484  -3.685  1.00  0.00     0.203 HD
HETATM   10  N10 UNL     1      15.893  10.107  -0.569  1.00  0.00    -0.021 N
ATOM     11  H10 UNL     1      16.296  10.197   0.364  1.00  0.00     0.203 HD
BRANCH   5  12
HETATM   12  N1  UNL     1      14.287   9.755  -4.352  1.00  0.00    -0.225 N
HETATM   13  C1  UNL     1      15.175  10.024  -5.451  1.00  0.00     0.168 C
HETATM   14  C2  UNL     1      12.925   9.390  -4.592  1.00  0.00     0.168 C
ENDBRANCH   5  12
BRANCH   8  15
HETATM   15  N11 UNL     1      17.837  10.781  -1.564  1.00  0.00    -0.220 N
ATOM     16  H11 UNL     1      18.260  11.190  -2.396  1.00  0.00     0.178 HD
BRANCH  15  17
HETATM   17  C12 UNL     1      18.658  10.686  -0.373  1.00  0.00     0.114 C
HETATM   18  C13 UNL     1      19.644   9.592  -0.564  1.00  0.00     0.041 C
HETATM   19  C14 UNL     1      20.763   9.717   0.413  1.00  0.00     0.142 C
HETATM   20  S1  UNL     1      20.771  11.473   0.799  1.00  0.00     0.146 S
HETATM   21  O2  UNL     1      20.366  11.616   2.222  1.00  0.00    -0.228 OA
HETATM   22  O3  UNL     1      22.061  12.114   0.463  1.00  0.00    -0.228 OA
HETATM   23  C15 UNL     1      19.450  11.996  -0.303  1.00  0.00     0.165 C
ENDBRANCH  15  17
ENDBRANCH   8  15
ENDBRANCH   1   3
BRANCH   1  24
HETATM   24  C5  UNL     1      14.249   8.436   1.284  1.00  0.00     0.200 C
BRANCH  24  25
HETATM   25  C6  UNL     1      14.332   8.984   2.652  1.00  0.00     0.089 A
HETATM   26  N4  UNL     1      13.240   9.130   3.410  1.00  0.00    -0.296 N
HETATM   27  N5  UNL     1      13.331   9.627   4.644  1.00  0.00    -0.263 N
ATOM     28  H4  UNL     1      12.329   8.857   3.040  1.00  0.00     0.187 HD
HETATM   29  C7  UNL     1      14.496   9.995   5.165  1.00  0.00     0.261 A
ATOM     30  H5  UNL     1      12.484   9.727   5.202  1.00  0.00     0.190 HD
HETATM   31  N7  UNL     1      15.602   9.856   4.414  1.00  0.00    -0.206 N
HETATM   32  C10 UNL     1      15.554   9.357   3.161  1.00  0.00     0.150 A
BRANCH  29  33
HETATM   33  O1  UNL     1      14.597  10.502   6.421  1.00  0.00    -0.318 OA
BRANCH  33  34
HETATM   34  C8  UNL     1      13.749  10.244   7.478  1.00  0.00     0.206 C
BRANCH  34  35
HETATM   35  C9  UNL     1      14.122  10.932   8.752  1.00  0.00     0.256 C
BRANCH  35  36
HETATM   36  N6  UNL     1      12.972  11.744   9.152  1.00  0.00    -0.077 N
ATOM     37  H63 UNL     1      12.168  11.632   8.534  1.00  0.00     0.274 HD
ATOM     38  H62 UNL     1      12.526  11.414  10.007  1.00  0.00     0.274 HD
ATOM     39  H61 UNL     1      13.297  12.709   9.216  1.00  0.00     0.274 HD
ENDBRANCH  35  36
ENDBRANCH  34  35
ENDBRANCH  33  34
ENDBRANCH  29  33
BRANCH  31  40
HETATM   40  N8  UNL     1      16.820  10.233   4.940  1.00  0.00    -0.334 N
ATOM     41  H82 UNL     1      17.059  11.224   4.976  1.00  0.00     0.177 HD
ATOM     42  H81 UNL     1      17.457   9.513   5.281  1.00  0.00     0.177 HD
ENDBRANCH  31  40
BRANCH  32  43
HETATM   43  N9  UNL     1      16.600   9.218   2.436  1.00  0.00    -0.382 N
ATOM     44  H92 UNL     1      16.653   9.567   1.480  1.00  0.00     0.157 HD
ATOM     45  H91 UNL     1      17.414   8.743   2.825  1.00  0.00     0.157 HD
ENDBRANCH  32  43
ENDBRANCH  24  25
ENDBRANCH   1  24
TORSDOF 12
ENDMDL