MODEL 5
REMARK VINA RESULT: -7.862640951      1.924      2.876
REMARK  11 active torsions:
REMARK  status: ('A' for Active; 'I' for Inactive)
REMARK    1  A    between atoms: O1_2  and  N1_3
REMARK    2  A    between atoms: N1_3  and  C2_5
REMARK    3  A    between atoms: C3_6  and  N2_7
REMARK    4  A    between atoms: C5_13  and  N4_14
REMARK    5  A    between atoms: C12_26  and  N8_27
REMARK    6  A    between atoms: N10_33  and  C14_34
REMARK    7  A    between atoms: C14_34  and  C15_35
REMARK    8  A    between atoms: C15_35  and  C16_36
REMARK    9  A    between atoms: C15_35  and  O4_40
REMARK   10  A    between atoms: C16_36  and  C17_37
REMARK   11  A    between atoms: C17_37  and  O3_38
ROOT
HETATM    1  N4  UNL     1      21.490   9.150   2.728  1.00  0.00    -0.353 N
HETATM    2  C6  UNL     1      22.247  10.095   3.518  1.00  0.00     0.227 C
HETATM    3  C7  UNL     1      22.688   9.429   4.799  1.00  0.00     0.238 C
HETATM    4  O2  UNL     1      22.878  10.157   5.786  1.00  0.00    -0.272 OA
HETATM    5  N5  UNL     1      22.880   8.041   4.884  1.00  0.00    -0.336 N
HETATM    6  C8  UNL     1      23.725   7.441   5.925  1.00  0.00     0.154 C
HETATM    7  C9  UNL     1      22.249   7.162   3.943  1.00  0.00     0.212 C
HETATM    8  C10 UNL     1      20.983   6.608   4.440  1.00  0.00     0.086 C
HETATM    9  N6  UNL     1      19.992   6.162   4.811  1.00  0.00    -0.195 NA
HETATM   10  C11 UNL     1      22.055   7.819   2.608  1.00  0.00     0.165 C
ENDROOT
BRANCH   1  11
HETATM   11  C5  UNL     1      20.267   9.556   2.139  1.00  0.00     0.150 A
HETATM   12  C4  UNL     1      19.045   9.449   2.756  1.00  0.00     0.124 A
HETATM   13  N3  UNL     1      18.994   9.001   4.019  1.00  0.00    -0.334 N
HETATM   14  C13 UNL     1      17.868   9.846   2.087  1.00  0.00     0.155 A
HETATM   15  C3  UNL     1      17.804   8.932   4.653  1.00  0.00     0.146 A
ATOM     16  H3  UNL     1      19.848   8.714   4.497  1.00  0.00     0.168 HD
HETATM   17  C2  UNL     1      16.646   9.308   4.034  1.00  0.00     0.173 A
HETATM   18  N10 UNL     1      16.707   9.762   2.738  1.00  0.00    -0.310 N
HETATM   19  N9  UNL     1      17.962  10.334   0.844  1.00  0.00    -0.174 N
HETATM   20  C12 UNL     1      19.151  10.442   0.242  1.00  0.00     0.679 A
ATOM     21  H9  UNL     1      17.118  10.628   0.352  1.00  0.00     0.186 HD
HETATM   22  N7  UNL     1      20.264  10.061   0.875  1.00  0.00    -0.175 N
ATOM     23  H7  UNL     1      21.155  10.154   0.387  1.00  0.00     0.186 HD
BRANCH  15  24
HETATM   24  N2  UNL     1      17.789   8.495   5.880  1.00  0.00    -0.382 N
ATOM     25  H22 UNL     1      17.196   7.694   6.096  1.00  0.00     0.157 HD
ATOM     26  H21 UNL     1      18.356   8.944   6.599  1.00  0.00     0.157 HD
ENDBRANCH  15  24
BRANCH  17  27
HETATM   27  N1  UNL     1      15.511   9.266   4.640  1.00  0.00    -0.248 N
ATOM     28  H1  UNL     1      14.812   8.585   4.346  1.00  0.00     0.196 HD
BRANCH  27  29
HETATM   29  O1  UNL     1      15.225  10.121   5.676  1.00  0.00    -0.284 OA
HETATM   30  C1  UNL     1      14.152   9.899   6.575  1.00  0.00     0.237 C
ENDBRANCH  27  29
ENDBRANCH  17  27
BRANCH  18  31
HETATM   31  C14 UNL     1      15.425  10.143   2.177  1.00  0.00     0.164 C
BRANCH  31  32
HETATM   32  C15 UNL     1      14.796   9.156   1.261  1.00  0.00     0.141 C
BRANCH  32  33
HETATM   33  C16 UNL     1      14.135   9.512   0.005  1.00  0.00     0.059 C
BRANCH  33  34
HETATM   34  C17 UNL     1      14.479   8.831  -1.258  1.00  0.00     0.166 C
BRANCH  34  35
HETATM   35  O3  UNL     1      14.838   7.496  -0.905  1.00  0.00    -0.401 OA
ATOM     36  H3  UNL     1      15.639   7.563  -0.398  1.00  0.00     0.209 HD
ENDBRANCH  34  35
ENDBRANCH  33  34
ENDBRANCH  32  33
BRANCH  32  37
HETATM   37  O4  UNL     1      13.986   8.252   2.010  1.00  0.00    -0.389 OA
HETATM   38  C18 UNL     1      12.750   8.731   2.312  1.00  0.00     0.202 C
ENDBRANCH  32  37
ENDBRANCH  31  32
ENDBRANCH  18  31
BRANCH  20  39
HETATM   39  N8  UNL     1      19.246  10.920  -0.979  1.00  0.00    -0.234 N
ATOM     40  H82 UNL     1      19.322  10.293  -1.780  1.00  0.00     0.174 HD
ATOM     41  H81 UNL     1      19.243  11.931  -1.115  1.00  0.00     0.174 HD
ENDBRANCH  20  39
ENDBRANCH   1  11
TORSDOF 11
ENDMDL