MODEL 4
REMARK VINA RESULT: -9.500687766      1.913      4.389
REMARK  10 active torsions:
REMARK  status: ('A' for Active; 'I' for Inactive)
REMARK    1  A    between atoms: C4_4  and  N1_5
REMARK    2  A    between atoms: N1_5  and  C5_7
REMARK    3  A    between atoms: C5_7  and  C6_8
REMARK    4  A    between atoms: C5_7  and  C8_16
REMARK    5  A    between atoms: C8_16  and  N6_17
REMARK    6  A    between atoms: N7_23  and  C11_24
REMARK    7  A    between atoms: C11_24  and  C12_25
REMARK    8  A    between atoms: C12_25  and  C13_26
REMARK    9  A    between atoms: C13_26  and  N8_27
REMARK   10  A    between atoms: C15_32  and  N10_33
ROOT
HETATM    1  C8  UNL     1      14.627  10.050   3.807  1.00  0.00     0.178 C
HETATM    2  C9  UNL     1      13.632   9.137   4.497  1.00  0.00     0.073 C
HETATM    3  C10 UNL     1      12.782   8.735   3.279  1.00  0.00     0.275 C
HETATM    4  N7  UNL     1      13.700   8.624   2.195  1.00  0.00     0.091 N
HETATM    5  C17 UNL     1      14.926   9.317   2.549  1.00  0.00     0.313 C
ENDROOT
BRANCH   1   6
HETATM    6  C5  UNL     1      15.787  10.434   4.653  1.00  0.00     0.191 C
BRANCH   6   7
HETATM    7  N1  UNL     1      16.977  10.314   3.856  1.00  0.00    -0.361 N
ATOM      8  H1  UNL     1      17.513   9.453   3.963  1.00  0.00     0.162 HD
BRANCH   7   9
HETATM    9  C4  UNL     1      17.427  11.159   3.040  1.00  0.00     0.124 A
HETATM   10  C3  UNL     1      18.136  10.895   1.893  1.00  0.00     0.084 A
HETATM   11  C2  UNL     1      18.446  12.117   1.276  1.00  0.00     0.076 A
HETATM   12  C1  UNL     1      19.206  12.281   0.008  1.00  0.00     0.079 C
HETATM   13  O3  UNL     1      17.924  13.027   2.056  1.00  0.00    -0.241 OA
HETATM   14  N12 UNL     1      17.326  12.494   3.091  1.00  0.00    -0.245 N
ATOM     15  H12 UNL     1      16.853  13.018   3.827  1.00  0.00     0.196 HD
ENDBRANCH   7   9
ENDBRANCH   6   7
BRANCH   6  16
HETATM   16  C6  UNL     1      15.948   9.583   5.852  1.00  0.00     0.137 A
HETATM   17  N2  UNL     1      16.705   8.486   6.024  1.00  0.00    -0.273 N
HETATM   18  N3  UNL     1      16.610   7.979   7.218  1.00  0.00    -0.225 N
ATOM     19  H2  UNL     1      17.296   8.090   5.292  1.00  0.00     0.189 HD
HETATM   20  N4  UNL     1      15.765   8.759   7.867  1.00  0.00    -0.003 NA
ATOM     21  H3  UNL     1      17.088   7.153   7.577  1.00  0.00     0.205 HD
HETATM   22  N5  UNL     1      15.343   9.742   7.069  1.00  0.00    -0.264 N
HETATM   23  C7  UNL     1      14.421  10.787   7.408  1.00  0.00     0.176 C
ENDBRANCH   6  16
ENDBRANCH   1   6
BRANCH   1  24
HETATM   24  N6  UNL     1      13.843  11.260   3.456  1.00  0.00    -0.066 N
ATOM     25  H63 UNL     1      13.795  11.408   2.448  1.00  0.00     0.275 HD
ATOM     26  H62 UNL     1      12.846  11.137   3.634  1.00  0.00     0.275 HD
ATOM     27  H61 UNL     1      14.225  12.070   3.945  1.00  0.00     0.275 HD
ENDBRANCH   1  24
BRANCH   4  28
HETATM   28  C11 UNL     1      13.246   9.098   0.928  1.00  0.00     0.274 C
BRANCH  28  29
HETATM   29  C12 UNL     1      14.393   9.590   0.055  1.00  0.00     0.050 C
BRANCH  29  30
HETATM   30  C13 UNL     1      13.820  10.675  -0.850  1.00  0.00     0.140 C
BRANCH  30  31
HETATM   31  N8  UNL     1      14.362  10.539  -2.191  1.00  0.00    -0.250 N
HETATM   32  C14 UNL     1      13.670   9.918  -3.159  1.00  0.00     0.344 A
HETATM   33  O1  UNL     1      12.550   9.463  -2.881  1.00  0.00    -0.246 OA
HETATM   34  N9  UNL     1      14.225   9.815  -4.393  1.00  0.00    -0.141 N
HETATM   35  C15 UNL     1      15.457  10.328  -4.657  1.00  0.00     0.683 A
ATOM     36  H9  UNL     1      13.710   9.344  -5.136  1.00  0.00     0.189 HD
HETATM   37  N11 UNL     1      16.119  10.941  -3.674  1.00  0.00    -0.141 N
HETATM   38  C16 UNL     1      15.582  11.055  -2.426  1.00  0.00     0.344 A
ATOM     39  H11 UNL     1      17.044  11.330  -3.858  1.00  0.00     0.189 HD
HETATM   40  O2  UNL     1      16.250  11.636  -1.555  1.00  0.00    -0.246 OA
BRANCH  35  41
HETATM   41  N10 UNL     1      16.005  10.242  -5.823  1.00  0.00    -0.234 N
ATOM     42 2H10 UNL     1      16.114  11.088  -6.382  1.00  0.00     0.174 HD
ATOM     43 1H10 UNL     1      16.336   9.357  -6.206  1.00  0.00     0.174 HD
ENDBRANCH  35  41
ENDBRANCH  30  31
ENDBRANCH  29  30
ENDBRANCH  28  29
ENDBRANCH   4  28
TORSDOF 10
ENDMDL