MODEL 1
REMARK VINA RESULT: -9.243811615      0.000      0.000
REMARK  9 active torsions:
REMARK  status: ('A' for Active; 'I' for Inactive)
REMARK    1  A    between atoms: N2_5  and  C4_6
REMARK    2  A    between atoms: C4_6  and  C5_7
REMARK    3  A    between atoms: C5_7  and  C6_8
REMARK    4  A    between atoms: C6_8  and  N3_9
REMARK    5  A    between atoms: N3_9  and  C8_11
REMARK    6  A    between atoms: C9_14  and  N5_15
REMARK    7  A    between atoms: N5_15  and  N6_17
REMARK    8  A    between atoms: C11_23  and  C12_24
REMARK    9  A    between atoms: N8_25  and  N9_27
REMARK       I    between atoms: C13_29  and  N11_31
REMARK       I    between atoms: N11_31  and  C14_33
ROOT
HETATM    1  C8  UNL     1      17.665  10.148   1.798  1.00  0.00     0.717 A
HETATM    2  N4  UNL     1      18.291   9.348   2.669  1.00  0.00    -0.019 N
ATOM      3  H4  UNL     1      19.310   9.311   2.635  1.00  0.00     0.203 HD
HETATM    4  C9  UNL     1      17.669   8.596   3.577  1.00  0.00     0.712 A
HETATM    5  N7  UNL     1      16.315   8.635   3.632  1.00  0.00    -0.171 N
ATOM      6  H7  UNL     1      15.812   8.070   4.317  1.00  0.00     0.186 HD
HETATM    7  C10 UNL     1      15.649   9.411   2.792  1.00  0.00     0.173 A
HETATM    8  C11 UNL     1      14.269   9.603   2.641  1.00  0.00     0.045 A
HETATM    9  C15 UNL     1      14.134  10.498   1.609  1.00  0.00     0.125 A
HETATM   10  N13 UNL     1      15.400  10.795   1.196  1.00  0.00    -0.288 N
ATOM     11  H13 UNL     1      15.620  11.438   0.435  1.00  0.00     0.187 HD
HETATM   12  N14 UNL     1      16.284  10.160   1.889  1.00  0.00    -0.068 N
ENDROOT
BRANCH   1  13
HETATM   13  N3  UNL     1      18.286  10.924   0.792  1.00  0.00    -0.220 N
HETATM   14  C7  UNL     1      18.587  12.313   1.172  1.00  0.00     0.168 C
BRANCH  13  15
HETATM   15  C6  UNL     1      18.653  10.393  -0.483  1.00  0.00     0.142 C
BRANCH  15  16
HETATM   16  C5  UNL     1      17.847  10.920  -1.647  1.00  0.00     0.041 C
BRANCH  16  17
HETATM   17  C4  UNL     1      16.657  10.086  -1.898  1.00  0.00     0.129 C
BRANCH  17  18
HETATM   18  N2  UNL     1      15.651  10.667  -2.723  1.00  0.00    -0.368 N
HETATM   19  C3  UNL     1      15.727  10.448  -4.096  1.00  0.00     0.078 C
HETATM   20  C2  UNL     1      14.527  10.085  -4.864  1.00  0.00     0.139 C
HETATM   21  N1  UNL     1      13.420   9.581  -4.119  1.00  0.00    -0.291 NA
HETATM   22  C1  UNL     1      13.239   8.134  -4.330  1.00  0.00     0.116 C
HETATM   23  C17 UNL     1      13.416   9.839  -2.735  1.00  0.00     0.076 C
HETATM   24  C16 UNL     1      14.364  10.847  -2.201  1.00  0.00     0.101 C
ENDBRANCH  17  18
ENDBRANCH  16  17
ENDBRANCH  15  16
ENDBRANCH  13  15
ENDBRANCH   1  13
BRANCH   4  25
HETATM   25  N5  UNL     1      18.286   7.810   4.385  1.00  0.00    -0.138 N
ATOM     26  H5  UNL     1      18.901   7.083   4.021  1.00  0.00     0.205 HD
BRANCH  25  27
HETATM   27  N6  UNL     1      18.114   7.950   5.754  1.00  0.00    -0.331 N
ATOM     28  H62 UNL     1      17.871   8.866   6.131  1.00  0.00     0.177 HD
ATOM     29  H61 UNL     1      18.232   7.144   6.368  1.00  0.00     0.177 HD
ENDBRANCH  25  27
ENDBRANCH   4  25
BRANCH   8  30
HETATM   30  C12 UNL     1      13.247   8.943   3.463  1.00  0.00     0.124 C
HETATM   31  N8  UNL     1      13.133   9.125   4.686  1.00  0.00    -0.309 N
ATOM     32  H8  UNL     1      12.377   8.596   5.123  1.00  0.00     0.186 HD
BRANCH  31  33
HETATM   33  N9  UNL     1      13.831   9.894   5.530  1.00  0.00    -0.274 N
HETATM   34  C13 UNL     1      13.904   9.617   6.804  1.00  0.00     0.210 C
HETATM   35  N10 UNL     1      13.219   8.470   7.268  1.00  0.00    -0.062 NA
HETATM   36  N11 UNL     1      14.659  10.473   7.665  1.00  0.00    -0.284 N
HETATM   37  C14 UNL     1      14.752  10.192   9.038  1.00  0.00     0.335 C
ATOM     38  H11 UNL     1      15.131  11.291   7.281  1.00  0.00     0.172 HD
HETATM   39  N12 UNL     1      15.493  11.025   9.901  1.00  0.00    -0.040 NA
HETATM   40  O1  UNL     1      14.168   9.189   9.506  1.00  0.00    -0.251 OA
ATOM     41  H9  UNL     1      14.318  10.715   5.170  1.00  0.00     0.189 HD
ENDBRANCH  31  33
ENDBRANCH   8  30
TORSDOF 9
ENDMDL