MODEL 5
REMARK VINA RESULT: -6.899723663      5.175      7.165
REMARK  2 active torsions:
REMARK  status: ('A' for Active; 'I' for Inactive)
REMARK    1  A    between atoms: N5_18  and  C6_19
REMARK    2  A    between atoms: C6_19  and  N6_20
ROOT
HETATM    1  N1  UNL     1     -25.777   6.076  24.213  1.00  0.00    -0.383 N
ATOM      2  H11 UNL     1     -26.283   6.795  23.696  1.00  0.00     0.157 HD
ATOM      3  H12 UNL     1     -25.771   6.050  25.232  1.00  0.00     0.157 HD
HETATM    4  C1  UNL     1     -25.159   5.198  23.554  1.00  0.00     0.133 A
HETATM    5  N2  UNL     1     -24.479   4.229  24.250  1.00  0.00    -0.293 N
ATOM      6  H2  UNL     1     -24.483   4.220  25.270  1.00  0.00     0.172 HD
HETATM    7  C2  UNL     1     -23.809   3.294  23.561  1.00  0.00     0.326 A
HETATM    8  O1  UNL     1     -23.184   2.402  24.186  1.00  0.00    -0.247 OA
HETATM    9  N3  UNL     1     -23.789   3.288  22.218  1.00  0.00    -0.302 N
ATOM     10  H3  UNL     1     -23.269   2.562  21.725  1.00  0.00     0.171 HD
HETATM   11  C3  UNL     1     -24.452   4.234  21.510  1.00  0.00     0.136 A
HETATM   12  C4  UNL     1     -24.417   4.211  20.125  1.00  0.00     0.278 A
HETATM   13  O2  UNL     1     -23.760   3.294  19.575  1.00  0.00    -0.265 OA
HETATM   14  N4  UNL     1     -25.083   5.164  19.502  1.00  0.00    -0.273 N
ATOM     15  H4  UNL     1     -25.079   5.179  18.482  1.00  0.00     0.173 HD
HETATM   16  C5  UNL     1     -25.759   6.107  20.151  1.00  0.00     0.331 A
HETATM   17  O3  UNL     1     -26.388   7.009  19.493  1.00  0.00    -0.246 OA
HETATM   18  N5  UNL     1     -25.840   6.192  21.529  1.00  0.00    -0.269 N
HETATM   19  C7  UNL     1     -25.168   5.233  22.179  1.00  0.00     0.117 A
ENDROOT
BRANCH  18  20
HETATM   20  C6  UNL     1     -26.609   7.258  22.102  1.00  0.00     0.364 C
BRANCH  20  21
HETATM   21  N6  UNL     1     -28.005   6.983  21.814  1.00  0.00    -0.063 N
ATOM     22  H63 UNL     1     -28.612   7.786  21.978  1.00  0.00     0.276 HD
ATOM     23  H62 UNL     1     -28.195   6.876  20.818  1.00  0.00     0.276 HD
ATOM     24  H61 UNL     1     -28.270   6.163  22.361  1.00  0.00     0.276 HD
ENDBRANCH  20  21
ENDBRANCH  18  20
TORSDOF 2
ENDMDL