MODEL 3
REMARK VINA RESULT: -7.293368633      1.708      5.028
REMARK  3 active torsions:
REMARK  status: ('A' for Active; 'I' for Inactive)
REMARK    1  A    between atoms: N1_1  and  C1_4
REMARK    2  A    between atoms: C2_7  and  O1_8
REMARK    3  A    between atoms: O1_8  and  C3_9
ROOT
HETATM    1  O1  UNL     1     -25.359   7.155  22.130  1.00  0.00    -0.296 OA
ENDROOT
BRANCH   1   2
HETATM    2  C2  UNL     1     -25.137   5.796  22.208  1.00  0.00     0.254 A
HETATM    3  N2  UNL     1     -24.674   5.141  23.294  1.00  0.00    -0.153 N
HETATM    4  C1  UNL     1     -24.578   3.828  23.025  1.00  0.00     0.693 A
ATOM      5  H2  UNL     1     -24.433   5.577  24.184  1.00  0.00     0.188 HD
HETATM    6  N6  UNL     1     -24.991   3.697  21.753  1.00  0.00    -0.129 N
HETATM    7  N5  UNL     1     -25.333   4.878  21.245  1.00  0.00    -0.250 N
ATOM      8  H6  UNL     1     -25.037   2.814  21.246  1.00  0.00     0.205 HD
ATOM      9  H5  UNL     1     -25.679   5.054  20.302  1.00  0.00     0.191 HD
BRANCH   4  10
HETATM   10  N1  UNL     1     -24.169   2.898  23.834  1.00  0.00    -0.233 N
ATOM     11  H12 UNL     1     -23.977   2.973  24.833  1.00  0.00     0.174 HD
ATOM     12  H11 UNL     1     -23.971   1.926  23.596  1.00  0.00     0.174 HD
ENDBRANCH   4  10
ENDBRANCH   1   2
BRANCH   1  13
HETATM   13  C3  UNL     1     -26.644   7.722  21.937  1.00  0.00     0.316 C
HETATM   14  C4  UNL     1     -27.501   7.455  23.114  1.00  0.00     0.264 C
HETATM   15  O2  UNL     1     -26.952   7.395  24.243  1.00  0.00    -0.270 OA
HETATM   16  N3  UNL     1     -28.903   7.270  22.987  1.00  0.00    -0.276 N
HETATM   17  C5  UNL     1     -29.485   7.094  21.709  1.00  0.00     0.329 C
ATOM     18  H3  UNL     1     -29.492   7.265  23.819  1.00  0.00     0.173 HD
HETATM   19  O3  UNL     1     -30.717   6.931  21.596  1.00  0.00    -0.247 OA
HETATM   20  N4  UNL     1     -28.639   7.104  20.546  1.00  0.00    -0.276 N
HETATM   21  C6  UNL     1     -27.241   7.287  20.659  1.00  0.00     0.264 C
ATOM     22  H4  UNL     1     -29.055   6.977  19.623  1.00  0.00     0.173 HD
HETATM   23  O4  UNL     1     -26.515   7.081  19.673  1.00  0.00    -0.270 OA
ENDBRANCH   1  13
TORSDOF 3
ENDMDL