MODEL 3
REMARK VINA RESULT: -6.552623693      1.838      4.301
REMARK  5 active torsions:
REMARK  status: ('A' for Active; 'I' for Inactive)
REMARK    1  A    between atoms: N1_1  and  N2_4
REMARK    2  A    between atoms: N2_4  and  C1_6
REMARK    3  A    between atoms: C2_9  and  N4_10
REMARK    4  A    between atoms: N4_10  and  C3_12
REMARK    5  A    between atoms: C5_18  and  C6_19
ROOT
HETATM    1  C1  UNL     1     -28.393   7.420  21.941  1.00  0.00     0.186 C
HETATM    2  N3  UNL     1     -29.602   6.839  21.839  1.00  0.00    -0.171 N
ATOM      3  H3  UNL     1     -29.596   5.831  21.685  1.00  0.00     0.186 HD
HETATM    4  C2  UNL     1     -30.824   7.412  21.911  1.00  0.00     0.687 C
HETATM    5  N5  UNL     1     -31.103   8.728  21.918  1.00  0.00    -0.177 N
ATOM      6  H5  UNL     1     -32.063   8.964  21.667  1.00  0.00     0.185 HD
HETATM    7  C4  UNL     1     -30.306   9.795  22.208  1.00  0.00     0.149 C
HETATM    8  N6  UNL     1     -30.857  11.079  22.144  1.00  0.00    -0.081 NA
HETATM    9  C5  UNL     1     -28.962   9.774  22.574  1.00  0.00     0.097 C
HETATM   10  C7  UNL     1     -28.091   8.718  22.341  1.00  0.00     0.234 C
HETATM   11  O3  UNL     1     -26.882   8.957  22.512  1.00  0.00    -0.283 OA
ENDROOT
BRANCH   1  12
HETATM   12  N2  UNL     1     -27.368   6.699  21.634  1.00  0.00    -0.288 N
ATOM     13  H2  UNL     1     -26.920   6.104  22.333  1.00  0.00     0.188 HD
BRANCH  12  14
HETATM   14  N1  UNL     1     -26.884   6.751  20.325  1.00  0.00    -0.344 N
ATOM     15  H12 UNL     1     -26.160   7.426  20.078  1.00  0.00     0.176 HD
ATOM     16  H11 UNL     1     -27.273   6.106  19.637  1.00  0.00     0.176 HD
ENDBRANCH  12  14
ENDBRANCH   1  12
BRANCH   4  17
HETATM   17  N4  UNL     1     -31.842   6.608  21.982  1.00  0.00    -0.167 N
ATOM     18  H4  UNL     1     -31.716   5.636  21.703  1.00  0.00     0.186 HD
BRANCH  17  19
HETATM   19  C3  UNL     1     -33.114   7.023  22.429  1.00  0.00     0.368 C
HETATM   20  O1  UNL     1     -33.185   7.700  23.483  1.00  0.00    -0.283 OA
ENDBRANCH  17  19
ENDBRANCH   4  17
BRANCH   9  21
HETATM   21  C6  UNL     1     -28.429  10.943  23.248  1.00  0.00     0.277 C
HETATM   22  O2  UNL     1     -27.855  11.840  22.598  1.00  0.00    -0.301 OA
ENDBRANCH   9  21
TORSDOF 5
ENDMDL