MODEL 4
REMARK VINA RESULT: -7.474331239      1.757      5.783
REMARK  3 active torsions:
REMARK  status: ('A' for Active; 'I' for Inactive)
REMARK    1  A    between atoms: N1_1  and  C1_4
REMARK    2  A    between atoms: C3_13  and  C4_14
REMARK    3  A    between atoms: C4_14  and  C5_15
ROOT
HETATM    1  C1  UNL     1     -31.138   8.989  22.439  1.00  0.00     0.127 A
HETATM    2  N2  UNL     1     -32.312   8.938  23.100  1.00  0.00    -0.292 N
ATOM      3  H2  UNL     1     -32.669   9.781  23.547  1.00  0.00     0.172 HD
HETATM    4  C2  UNL     1     -33.014   7.815  23.182  1.00  0.00     0.340 A
HETATM    5  O1  UNL     1     -34.123   7.742  23.800  1.00  0.00    -0.245 OA
HETATM    6  N3  UNL     1     -32.517   6.713  22.581  1.00  0.00    -0.251 N
ATOM      7  H3  UNL     1     -33.040   5.838  22.632  1.00  0.00     0.191 HD
HETATM    8  N4  UNL     1     -31.368   6.743  21.927  1.00  0.00    -0.297 N
ATOM      9  H4  UNL     1     -31.033   5.885  21.487  1.00  0.00     0.187 HD
HETATM   10  C3  UNL     1     -30.623   7.855  21.817  1.00  0.00     0.076 A
ENDROOT
BRANCH  10  11
HETATM   11  C4  UNL     1     -29.338   7.896  21.091  1.00  0.00     0.140 C
BRANCH  11  12
HETATM   12  C5  UNL     1     -28.205   7.284  21.790  1.00  0.00     0.105 A
HETATM   13  N5  UNL     1     -28.141   7.056  23.127  1.00  0.00    -0.295 N
HETATM   14  C6  UNL     1     -26.976   6.475  23.442  1.00  0.00     0.340 A
ATOM     15  H5  UNL     1     -28.875   7.293  23.794  1.00  0.00     0.172 HD
HETATM   16  O2  UNL     1     -26.584   6.126  24.579  1.00  0.00    -0.245 OA
HETATM   17  N6  UNL     1     -26.301   6.335  22.305  1.00  0.00    -0.250 N
HETATM   18  N7  UNL     1     -27.042   6.823  21.302  1.00  0.00    -0.285 N
ATOM     19  H6  UNL     1     -25.372   5.924  22.212  1.00  0.00     0.192 HD
ATOM     20  H7  UNL     1     -26.767   6.843  20.320  1.00  0.00     0.188 HD
ENDBRANCH  11  12
ENDBRANCH  10  11
BRANCH   1  21
HETATM   21  N1  UNL     1     -30.532  10.115  22.406  1.00  0.00    -0.384 N
ATOM     22  H12 UNL     1     -29.596  10.214  22.013  1.00  0.00     0.157 HD
ATOM     23  H11 UNL     1     -31.025  10.923  22.787  1.00  0.00     0.157 HD
ENDBRANCH   1  21
TORSDOF 3
ENDMDL