MODEL 4
REMARK VINA RESULT: -6.211326886      2.219      3.130
REMARK  8 active torsions:
REMARK  status: ('A' for Active; 'I' for Inactive)
REMARK    1  A    between atoms: N2_3  and  S1_4
REMARK    2  A    between atoms: S1_4  and  N3_5
REMARK    3  A    between atoms: S1_4  and  N4_8
REMARK    4  A    between atoms: S1_4  and  N9_21
REMARK    5  A    between atoms: N4_8  and  C2_10
REMARK    6  A    between atoms: C2_10  and  N5_11
REMARK    7  A    between atoms: C4_15  and  N7_16
REMARK    8  A    between atoms: N9_21  and  N10_22
ROOT
HETATM    1  N1  UNL     1     -36.956  12.692  22.271  1.00  0.00    -0.176 NA
HETATM    2  C1  UNL     1     -36.125  12.260  21.535  1.00  0.00     0.184 C
HETATM    3  N2  UNL     1     -35.156  11.677  20.657  1.00  0.00    -0.030 NA
ENDROOT
BRANCH   3   4
HETATM    4  S1  UNL     1     -33.683  11.877  21.248  1.00  0.00     0.089 SA
BRANCH   4   5
HETATM    5  N3  UNL     1     -32.577  11.883  19.951  1.00  0.00    -0.349 N
ATOM      6  H32 UNL     1     -31.949  12.654  19.722  1.00  0.00     0.166 HD
ATOM      7  H31 UNL     1     -32.653  10.994  19.457  1.00  0.00     0.166 HD
ENDBRANCH   4   5
BRANCH   4   8
HETATM    8  N4  UNL     1     -33.522  10.504  22.029  1.00  0.00    -0.322 N
ATOM      9  H4  UNL     1     -34.217   9.762  21.943  1.00  0.00     0.171 HD
BRANCH   8  10
HETATM   10  C2  UNL     1     -32.360  10.343  22.864  1.00  0.00     0.281 C
BRANCH  10  11
HETATM   11  N5  UNL     1     -32.041   8.953  22.525  1.00  0.00    -0.255 N
HETATM   12  C3  UNL     1     -32.732   7.851  22.844  1.00  0.00     0.220 A
HETATM   13  N6  UNL     1     -32.127   6.753  22.377  1.00  0.00    -0.185 N
HETATM   14  C4  UNL     1     -31.022   7.210  21.748  1.00  0.00     0.691 A
ATOM     15  H6  UNL     1     -32.432   5.784  22.475  1.00  0.00     0.185 HD
HETATM   16  N8  UNL     1     -30.991   8.539  21.850  1.00  0.00    -0.128 N
ATOM     17  H8  UNL     1     -30.265   9.142  21.463  1.00  0.00     0.206 HD
BRANCH  14  18
HETATM   18  N7  UNL     1     -30.146   6.488  21.152  1.00  0.00    -0.233 N
ATOM     19  H72 UNL     1     -29.422   5.936  21.610  1.00  0.00     0.174 HD
ATOM     20  H71 UNL     1     -30.059   6.369  20.143  1.00  0.00     0.174 HD
ENDBRANCH  14  18
ENDBRANCH  10  11
ENDBRANCH   8  10
ENDBRANCH   4   8
BRANCH   4  21
HETATM   21  N9  UNL     1     -33.574  13.224  22.274  1.00  0.00    -0.040 NA
BRANCH  21  22
HETATM   22  N10 UNL     1     -32.408  13.948  21.914  1.00  0.00    -0.335 N
ATOM     23 2H10 UNL     1     -32.270  14.949  22.048  1.00  0.00     0.173 HD
ATOM     24 1H10 UNL     1     -31.747  13.287  21.505  1.00  0.00     0.173 HD
ENDBRANCH  21  22
ENDBRANCH   4  21
ENDBRANCH   3   4
TORSDOF 8
ENDMDL