MODEL 3
REMARK VINA RESULT: -7.578636968      1.967      3.263
REMARK  4 active torsions:
REMARK  status: ('A' for Active; 'I' for Inactive)
REMARK    1  A    between atoms: N2_4  and  C1_6
REMARK    2  A    between atoms: C1_6  and  N3_7
REMARK    3  A    between atoms: C3_13  and  N6_14
REMARK       I    between atoms: N6_14  and  C4_16
REMARK       I    between atoms: C4_16  and  N8_20
REMARK    4  A    between atoms: N8_20  and  C5_22
ROOT
HETATM    1  N6  UNL     1     -30.993   9.379  21.928  1.00  0.00    -0.020 N
ATOM      2  H6  UNL     1     -31.150   8.562  21.339  1.00  0.00     0.203 HD
HETATM    3  C4  UNL     1     -32.090  10.171  22.393  1.00  0.00     0.705 C
HETATM    4  N7  UNL     1     -32.641   9.839  23.513  1.00  0.00    -0.234 N
ATOM      5  H71 UNL     1     -33.424  10.403  23.844  1.00  0.00     0.174 HD
ATOM      6  H72 UNL     1     -32.332   9.045  24.072  1.00  0.00     0.174 HD
HETATM    7  N8  UNL     1     -32.516  11.264  21.623  1.00  0.00    -0.020 N
ATOM      8  H8  UNL     1     -31.805  11.854  21.191  1.00  0.00     0.203 HD
ENDROOT
BRANCH   1   9
HETATM    9  C3  UNL     1     -29.792   9.728  22.275  1.00  0.00     0.716 A
HETATM   10  N3  UNL     1     -28.703   9.005  21.989  1.00  0.00    -0.103 N
HETATM   11  N4  UNL     1     -27.645   9.643  22.487  1.00  0.00    -0.278 N
HETATM   12  C2  UNL     1     -28.049  10.777  23.097  1.00  0.00     0.215 A
ATOM     13  H4  UNL     1     -26.678   9.324  22.419  1.00  0.00     0.188 HD
HETATM   14  N5  UNL     1     -29.401  10.817  22.956  1.00  0.00    -0.184 N
ATOM     15  H5  UNL     1     -30.015  11.551  23.308  1.00  0.00     0.185 HD
BRANCH  10  16
HETATM   16  C1  UNL     1     -28.603   7.764  21.280  1.00  0.00     0.306 C
BRANCH  16  17
HETATM   17  N2  UNL     1     -29.092   6.654  22.034  1.00  0.00    -0.322 N
HETATM   18  N1  UNL     1     -30.123   6.079  21.658  1.00  0.00    -0.348 N
ATOM     19  H12 UNL     1     -30.602   6.405  20.820  1.00  0.00     0.176 HD
ATOM     20  H11 UNL     1     -30.472   5.286  22.196  1.00  0.00     0.176 HD
ATOM     21  H2  UNL     1     -28.600   6.340  22.870  1.00  0.00     0.181 HD
ENDBRANCH  16  17
ENDBRANCH  10  16
ENDBRANCH   1   9
BRANCH   7  22
HETATM   22  C5  UNL     1     -33.755  11.566  21.430  1.00  0.00     0.722 A
HETATM   23  N9  UNL     1     -34.605  12.280  22.189  1.00  0.00    -0.116 N
HETATM   24  N10 UNL     1     -35.799  12.354  21.623  1.00  0.00     0.006 NA
ATOM     25  H9  UNL     1     -34.362  12.709  23.083  1.00  0.00     0.202 HD
HETATM   26  N11 UNL     1     -35.699  11.676  20.488  1.00  0.00     0.006 NA
HETATM   27  N12 UNL     1     -34.472  11.192  20.355  1.00  0.00    -0.116 N
ATOM     28  H12 UNL     1     -34.131  10.633  19.573  1.00  0.00     0.202 HD
ENDBRANCH   7  22
TORSDOF 4
ENDMDL