MODEL 5
REMARK VINA RESULT: -6.451195455      2.640      5.756
REMARK  4 active torsions:
REMARK  status: ('A' for Active; 'I' for Inactive)
REMARK    1  A    between atoms: N1_1  and  O1_4
REMARK    2  A    between atoms: O1_4  and  C1_5
REMARK    3  A    between atoms: C1_5  and  C2_6
REMARK    4  A    between atoms: C2_6  and  N2_7
ROOT
HETATM    1  N2  UNL     1     -27.904   8.674  22.917  1.00  0.00    -0.281 N
HETATM    2  C3  UNL     1     -27.937   7.357  22.724  1.00  0.00     0.331 A
HETATM    3  O2  UNL     1     -26.951   6.685  23.089  1.00  0.00    -0.246 OA
HETATM    4  N3  UNL     1     -28.967   6.705  22.160  1.00  0.00    -0.273 N
ATOM      5  H3  UNL     1     -28.954   5.694  22.030  1.00  0.00     0.173 HD
HETATM    6  C4  UNL     1     -30.020   7.455  21.773  1.00  0.00     0.280 A
HETATM    7  O3  UNL     1     -31.004   6.867  21.240  1.00  0.00    -0.265 OA
HETATM    8  C5  UNL     1     -30.061   8.832  21.940  1.00  0.00     0.150 A
HETATM    9  N4  UNL     1     -30.984   9.752  21.637  1.00  0.00    -0.301 N
ATOM     10  H4  UNL     1     -31.889   9.593  21.196  1.00  0.00     0.171 HD
HETATM   11  C6  UNL     1     -30.472  10.933  22.032  1.00  0.00     0.326 A
HETATM   12  O4  UNL     1     -31.035  12.038  21.920  1.00  0.00    -0.247 OA
HETATM   13  N5  UNL     1     -29.250  10.738  22.571  1.00  0.00    -0.292 N
ATOM     14  H5  UNL     1     -28.647  11.470  22.948  1.00  0.00     0.172 HD
HETATM   15  C7  UNL     1     -28.952   9.424  22.533  1.00  0.00     0.148 A
ENDROOT
BRANCH   1  16
HETATM   16  C2  UNL     1     -26.789   9.310  23.518  1.00  0.00     0.164 C
BRANCH  16  17
HETATM   17  C1  UNL     1     -25.791   9.890  22.560  1.00  0.00     0.220 C
BRANCH  17  18
HETATM   18  O1  UNL     1     -24.534   9.808  23.167  1.00  0.00    -0.286 OA
BRANCH  18  19
HETATM   19  N1  UNL     1     -24.400   8.535  23.605  1.00  0.00    -0.311 N
ATOM     20  H12 UNL     1     -24.503   8.219  24.569  1.00  0.00     0.184 HD
ATOM     21  H11 UNL     1     -24.178   7.968  22.787  1.00  0.00     0.184 HD
ENDBRANCH  18  19
ENDBRANCH  17  18
ENDBRANCH  16  17
ENDBRANCH   1  16
TORSDOF 4
ENDMDL