MODEL 5
REMARK VINA RESULT: -6.669650569      2.512      5.513
REMARK  4 active torsions:
REMARK  status: ('A' for Active; 'I' for Inactive)
REMARK    1  A    between atoms: N1_1  and  C1_5
REMARK    2  A    between atoms: C1_5  and  C2_6
REMARK    3  A    between atoms: C2_6  and  N2_7
REMARK    4  A    between atoms: N2_7  and  C3_9
ROOT
HETATM    1  C3  UNL     1     -32.712  11.852  22.254  1.00  0.00     0.132 A
HETATM    2  N3  UNL     1     -31.845  12.786  21.837  1.00  0.00    -0.337 N
ATOM      3  H3  UNL     1     -32.145  13.749  21.690  1.00  0.00     0.168 HD
HETATM    4  C4  UNL     1     -30.568  12.418  21.619  1.00  0.00     0.182 A
HETATM    5  N4  UNL     1     -30.141  11.155  21.806  1.00  0.00    -0.346 N
ATOM      6  H4  UNL     1     -29.164  10.920  21.630  1.00  0.00     0.167 HD
HETATM    7  C5  UNL     1     -30.987  10.205  22.222  1.00  0.00     0.133 A
HETATM    8  C6  UNL     1     -30.578   8.891  22.424  1.00  0.00     0.278 A
HETATM    9  O1  UNL     1     -29.369   8.581  22.210  1.00  0.00    -0.265 OA
HETATM   10  N5  UNL     1     -31.488   8.005  22.840  1.00  0.00    -0.274 N
ATOM     11  H5  UNL     1     -31.202   7.038  22.992  1.00  0.00     0.173 HD
HETATM   12  C7  UNL     1     -32.769   8.350  23.065  1.00  0.00     0.327 A
HETATM   13  O2  UNL     1     -33.637   7.511  23.460  1.00  0.00    -0.247 OA
HETATM   14  N6  UNL     1     -33.185   9.607  22.876  1.00  0.00    -0.303 N
ATOM     15  H6  UNL     1     -34.158   9.861  23.047  1.00  0.00     0.171 HD
HETATM   16  C8  UNL     1     -32.301  10.532  22.457  1.00  0.00     0.113 A
ENDROOT
BRANCH   1  17
HETATM   17  N2  UNL     1     -33.941  12.104  22.487  1.00  0.00    -0.373 N
ATOM     18  H2  UNL     1     -34.328  11.760  23.365  1.00  0.00     0.161 HD
BRANCH  17  19
HETATM   19  C2  UNL     1     -34.827  12.829  21.621  1.00  0.00     0.148 C
BRANCH  19  20
HETATM   20  C1  UNL     1     -36.068  11.947  21.429  1.00  0.00     0.249 C
BRANCH  20  21
HETATM   21  N1  UNL     1     -37.127  12.804  20.895  1.00  0.00    -0.078 N
ATOM     22  H13 UNL     1     -38.047  12.364  20.919  1.00  0.00     0.274 HD
ATOM     23  H12 UNL     1     -37.345  13.595  21.500  1.00  0.00     0.274 HD
ATOM     24  H11 UNL     1     -36.842  13.084  19.956  1.00  0.00     0.274 HD
ENDBRANCH  20  21
ENDBRANCH  19  20
ENDBRANCH  17  19
ENDBRANCH   1  17
TORSDOF 4
ENDMDL