MODEL 2
REMARK VINA RESULT: -6.835237349      1.396      2.155
REMARK  2 active torsions:
REMARK  status: ('A' for Active; 'I' for Inactive)
REMARK    1  A    between atoms: N3_4  and  N4_6
REMARK    2  A    between atoms: C2_8  and  C3_9
ROOT
HETATM    1  C3  UNL     1     -31.687  10.300  22.684  1.00  0.00     0.090 A
HETATM    2  C4  UNL     1     -30.542  10.877  22.175  1.00  0.00     0.137 A
HETATM    3  N5  UNL     1     -30.544  12.274  21.937  1.00  0.00    -0.081 NA
HETATM    4  N6  UNL     1     -29.494  10.085  21.934  1.00  0.00    -0.296 N
ATOM      5  H6  UNL     1     -28.634  10.485  21.556  1.00  0.00     0.171 HD
HETATM    6  C5  UNL     1     -29.560   8.765  22.184  1.00  0.00     0.328 A
HETATM    7  O1  UNL     1     -28.539   8.036  21.941  1.00  0.00    -0.247 OA
HETATM    8  N7  UNL     1     -30.658   8.165  22.680  1.00  0.00    -0.275 N
ATOM      9  H7  UNL     1     -30.681   7.160  22.858  1.00  0.00     0.173 HD
HETATM   10  C6  UNL     1     -31.725   8.947  22.929  1.00  0.00     0.264 A
HETATM   11  O2  UNL     1     -32.766   8.413  23.395  1.00  0.00    -0.267 OA
ENDROOT
BRANCH   1  12
HETATM   12  C2  UNL     1     -32.853  11.125  22.963  1.00  0.00     0.127 C
HETATM   13  N4  UNL     1     -33.744  11.375  22.088  1.00  0.00    -0.309 N
ATOM     14  H4  UNL     1     -33.639  10.985  21.152  1.00  0.00     0.186 HD
BRANCH  13  15
HETATM   15  N3  UNL     1     -34.859  12.167  22.367  1.00  0.00    -0.276 N
HETATM   16  C1  UNL     1     -35.858  12.289  21.572  1.00  0.00     0.215 C
HETATM   17  N1  UNL     1     -35.929  11.623  20.319  1.00  0.00    -0.065 NA
HETATM   18  N2  UNL     1     -36.930  13.137  21.994  1.00  0.00    -0.065 NA
ATOM     19  H3  UNL     1     -34.880  12.676  23.251  1.00  0.00     0.189 HD
ENDBRANCH  13  15
ENDBRANCH   1  12
TORSDOF 2
ENDMDL