MODEL 4
REMARK VINA RESULT: -6.257301628      3.820      6.403
REMARK  12 active torsions:
REMARK  status: ('A' for Active; 'I' for Inactive)
REMARK    1  A    between atoms: N1_1  and  C1_5
REMARK    2  A    between atoms: C2_8  and  N3_9
REMARK    3  A    between atoms: N3_9  and  N4_11
REMARK    4  A    between atoms: N4_11  and  C3_13
REMARK    5  A    between atoms: C9_21  and  C10_22
REMARK    6  A    between atoms: C10_22  and  N6_23
REMARK    7  A    between atoms: N7_26  and  N8_28
REMARK       I    between atoms: N8_28  and  C12_30
REMARK    8  A    between atoms: C12_30  and  C13_32
REMARK    9  A    between atoms: C13_32  and  C14_33
REMARK   10  A    between atoms: C13_32  and  C15_36
REMARK   11  A    between atoms: C14_33  and  O3_34
REMARK   12  A    between atoms: C15_36  and  C16_37
ROOT
HETATM    1  N6  UNL     1      26.723  18.481   0.998  1.00  0.00    -0.056 NA
HETATM    2  O1  UNL     1      26.695  17.540   2.002  1.00  0.00    -0.207 OA
HETATM    3  C11 UNL     1      25.589  16.679   1.858  1.00  0.00     0.268 C
HETATM    4  N7  UNL     1      25.662  15.380   1.924  1.00  0.00    -0.261 N
ATOM      5  H7  UNL     1      26.554  14.915   2.089  1.00  0.00     0.190 HD
HETATM    6  N9  UNL     1      24.425  17.450   1.637  1.00  0.00    -0.233 N
ATOM      7  H9  UNL     1      23.456  17.194   1.827  1.00  0.00     0.183 HD
HETATM    8  S1  UNL     1      25.022  18.924   0.970  1.00  0.00     0.328 S
HETATM    9  O5  UNL     1      24.531  19.158  -0.410  1.00  0.00    -0.186 OA
HETATM   10  O6  UNL     1      24.759  20.087   1.887  1.00  0.00    -0.186 OA
ENDROOT
BRANCH   1  11
HETATM   11  C10 UNL     1      27.021  17.788  -0.231  1.00  0.00     0.178 C
BRANCH  11  12
HETATM   12  C9  UNL     1      28.489  17.907  -0.601  1.00  0.00     0.181 C
HETATM   13  N5  UNL     1      28.872  16.819  -1.459  1.00  0.00    -0.210 N
HETATM   14  C2  UNL     1      29.841  16.876  -2.500  1.00  0.00     0.691 C
ATOM     15  H5  UNL     1      28.407  15.923  -1.307  1.00  0.00     0.179 HD
HETATM   16  N2  UNL     1      30.021  17.886  -3.250  1.00  0.00    -0.187 N
HETATM   17  C1  UNL     1      29.308  19.129  -3.191  1.00  0.00     0.362 C
ATOM     18  H2  UNL     1      30.744  17.804  -3.964  1.00  0.00     0.180 HD
HETATM   19  S2  UNL     1      28.659  19.451  -1.541  1.00  0.00    -0.088 SA
BRANCH  14  20
HETATM   20  N3  UNL     1      30.648  15.729  -2.712  1.00  0.00    -0.132 N
ATOM     21  H3  UNL     1      31.660  15.800  -2.604  1.00  0.00     0.205 HD
BRANCH  20  22
HETATM   22  N4  UNL     1      30.089  14.522  -3.060  1.00  0.00    -0.287 N
ATOM     23  H4  UNL     1      30.443  13.673  -2.621  1.00  0.00     0.187 HD
BRANCH  22  24
HETATM   24  C3  UNL     1      29.043  14.413  -4.004  1.00  0.00     0.048 A
HETATM   25  C4  UNL     1      29.161  14.830  -5.314  1.00  0.00     0.031 A
HETATM   26  C5  UNL     1      28.123  14.713  -6.214  1.00  0.00     0.002 A
HETATM   27  C6  UNL     1      26.914  14.165  -5.816  1.00  0.00     0.000 A
HETATM   28  C7  UNL     1      26.769  13.740  -4.512  1.00  0.00     0.002 A
HETATM   29  C8  UNL     1      27.819  13.867  -3.632  1.00  0.00     0.031 A
ENDBRANCH  22  24
ENDBRANCH  20  22
ENDBRANCH  14  20
BRANCH  17  30
HETATM   30  N1  UNL     1      30.117  20.272  -3.586  1.00  0.00    -0.049 N
ATOM     31  H13 UNL     1      30.241  20.296  -4.598  1.00  0.00     0.277 HD
ATOM     32  H12 UNL     1      29.602  21.144  -3.460  1.00  0.00     0.277 HD
ATOM     33  H11 UNL     1      31.018  20.309  -3.108  1.00  0.00     0.277 HD
ENDBRANCH  17  30
ENDBRANCH  11  12
ENDBRANCH   1  11
BRANCH   4  34
HETATM   34  N8  UNL     1      24.479  14.632   1.762  1.00  0.00    -0.267 N
HETATM   35  C12 UNL     1      24.518  13.346   1.205  1.00  0.00     0.242 C
HETATM   36  O2  UNL     1      25.646  12.864   0.858  1.00  0.00    -0.271 OA
ATOM     37  H8  UNL     1      23.586  15.030   2.053  1.00  0.00     0.190 HD
BRANCH  35  38
HETATM   38  C13 UNL     1      23.267  12.557   1.015  1.00  0.00     0.105 C
BRANCH  38  39
HETATM   39  C14 UNL     1      22.705  12.830  -0.327  1.00  0.00     0.178 C
BRANCH  39  40
HETATM   40  O3  UNL     1      23.541  13.705  -1.041  1.00  0.00    -0.400 OA
ATOM     41  H3  UNL     1      23.393  13.617  -1.975  1.00  0.00     0.209 HD
ENDBRANCH  39  40
ENDBRANCH  38  39
BRANCH  38  42
HETATM   42  C15 UNL     1      23.439  11.199   1.509  1.00  0.00     0.048 C
BRANCH  42  43
HETATM   43  C16 UNL     1      23.791  10.920   2.917  1.00  0.00     0.124 C
HETATM   44  C17 UNL     1      22.829  10.391   3.890  1.00  0.00     0.058 C
HETATM   45  C18 UNL     1      23.381   9.046   3.398  1.00  0.00     0.170 C
HETATM   46  O4  UNL     1      24.518   9.707   3.003  1.00  0.00    -0.386 OA
ENDBRANCH  42  43
ENDBRANCH  38  42
ENDBRANCH  35  38
ENDBRANCH   4  34
TORSDOF 12
ENDMDL