MODEL 3
REMARK VINA RESULT: -5.310622452      1.886      2.602
REMARK  12 active torsions:
REMARK  status: ('A' for Active; 'I' for Inactive)
REMARK    1  A    between atoms: C1_4  and  C2_5
REMARK    2  A    between atoms: C1_4  and  S3_43
REMARK    3  A    between atoms: C2_5  and  C3_6
REMARK    4  A    between atoms: C3_6  and  N2_7
REMARK    5  A    between atoms: C3_6  and  C4_11
REMARK       I    between atoms: C4_11  and  N3_13
REMARK    6  A    between atoms: N3_13  and  C5_15
REMARK    7  A    between atoms: C7_19  and  C8_20
REMARK    8  A    between atoms: C9_21  and  O2_22
REMARK    9  A    between atoms: C10_24  and  C11_25
REMARK   10  A    between atoms: C11_25  and  C12_26
REMARK   11  A    between atoms: C11_25  and  S1_29
REMARK   12  A    between atoms: S1_29  and  N5_30
ROOT
HETATM    1  C5  UNL     1      27.349  17.522  -0.238  1.00  0.00     0.110 A
HETATM    2  N4  UNL     1      26.687  16.556   0.351  1.00  0.00    -0.325 N
ATOM      3  H4  UNL     1      26.508  15.637  -0.052  1.00  0.00     0.169 HD
HETATM    4  C6  UNL     1      26.251  16.987   1.653  1.00  0.00     0.144 A
HETATM    5  C7  UNL     1      25.563  16.250   2.506  1.00  0.00     0.073 C
HETATM    6  O7  UNL     1      26.706  18.280   1.781  1.00  0.00    -0.328 OA
HETATM    7  C15 UNL     1      27.421  18.705   0.647  1.00  0.00     0.254 A
ENDROOT
BRANCH   5   8
HETATM    8  C8  UNL     1      25.130  16.711   3.820  1.00  0.00     0.035 A
HETATM    9  C9  UNL     1      25.897  16.360   4.918  1.00  0.00     0.087 A
HETATM   10  C10 UNL     1      25.665  16.659   6.224  1.00  0.00     0.013 A
HETATM   11  C13 UNL     1      24.580  17.393   6.689  1.00  0.00     0.063 A
HETATM   12  S2  UNL     1      23.507  17.920   5.464  1.00  0.00    -0.083 SA
HETATM   13  C14 UNL     1      23.969  17.445   3.894  1.00  0.00     0.080 A
HETATM   14  N6  UNL     1      23.249  17.740   2.841  1.00  0.00    -0.393 N
ATOM     15  H62 UNL     1      23.525  17.455   1.901  1.00  0.00     0.156 HD
ATOM     16  H61 UNL     1      22.388  18.284   2.895  1.00  0.00     0.156 HD
BRANCH   9  17
HETATM   17  O2  UNL     1      27.052  15.605   4.642  1.00  0.00    -0.359 OA
ATOM     18  H2  UNL     1      27.188  14.842   5.190  1.00  0.00     0.217 HD
ENDBRANCH   9  17
BRANCH  10  19
HETATM   19  C11 UNL     1      26.654  16.190   7.256  1.00  0.00     0.265 C
BRANCH  19  20
HETATM   20  C12 UNL     1      26.110  15.983   8.588  1.00  0.00     0.198 C
HETATM   21  O3  UNL     1      25.570  14.848   8.875  1.00  0.00    -0.647 OA
HETATM   22  O4  UNL     1      26.096  16.884   9.631  1.00  0.00    -0.647 OA
ENDBRANCH  19  20
BRANCH  19  23
HETATM   23  S1  UNL     1      27.996  17.363   7.376  1.00  0.00     0.243 S
HETATM   24  O5  UNL     1      28.916  17.242   6.192  1.00  0.00    -0.205 OA
HETATM   25  O6  UNL     1      27.506  18.770   7.434  1.00  0.00    -0.205 OA
BRANCH  23  26
HETATM   26  N5  UNL     1      28.918  17.055   8.800  1.00  0.00    -0.327 N
ATOM     27  H52 UNL     1      28.661  16.374   9.514  1.00  0.00     0.168 HD
ATOM     28  H51 UNL     1      29.745  17.651   8.813  1.00  0.00     0.168 HD
ENDBRANCH  23  26
ENDBRANCH  19  23
ENDBRANCH  10  19
ENDBRANCH   5   8
BRANCH   1  29
HETATM   29  N3  UNL     1      27.915  17.429  -1.525  1.00  0.00    -0.313 N
HETATM   30  C4  UNL     1      27.085  17.281  -2.664  1.00  0.00     0.254 C
HETATM   31  O1  UNL     1      25.851  17.232  -2.519  1.00  0.00    -0.271 OA
ATOM     32  H3  UNL     1      28.927  17.469  -1.638  1.00  0.00     0.170 HD
BRANCH  30  33
HETATM   33  C3  UNL     1      27.707  17.187  -4.036  1.00  0.00     0.281 C
BRANCH  33  34
HETATM   34  C2  UNL     1      27.627  15.759  -4.470  1.00  0.00     0.114 C
BRANCH  34  35
HETATM   35  C1  UNL     1      28.919  15.088  -4.476  1.00  0.00     0.123 C
HETATM   36  N1  UNL     1      29.591  14.686  -5.472  1.00  0.00    -0.391 N
ATOM     37  H12 UNL     1      29.178  14.900  -6.380  1.00  0.00     0.156 HD
ATOM     38  H11 UNL     1      30.496  14.216  -5.476  1.00  0.00     0.156 HD
BRANCH  35  39
HETATM   39  S3  UNL     1      29.640  14.715  -2.893  1.00  0.00     0.149 S
HETATM   40  O8  UNL     1      30.481  15.902  -2.467  1.00  0.00    -0.590 OA
HETATM   41  O9  UNL     1      30.489  13.501  -3.001  1.00  0.00    -0.590 OA
HETATM   42  O10 UNL     1      28.404  14.492  -1.796  1.00  0.00    -0.590 OA
ENDBRANCH  35  39
ENDBRANCH  34  35
ENDBRANCH  33  34
BRANCH  33  43
HETATM   43  N2  UNL     1      26.850  17.971  -4.957  1.00  0.00    -0.066 N
ATOM     44  H23 UNL     1      26.648  17.482  -5.830  1.00  0.00     0.275 HD
ATOM     45  H22 UNL     1      25.887  18.058  -4.631  1.00  0.00     0.275 HD
ATOM     46  H21 UNL     1      27.308  18.871  -5.098  1.00  0.00     0.275 HD
ENDBRANCH  33  43
ENDBRANCH  30  33
ENDBRANCH   1  29
TORSDOF 12
ENDMDL