MODEL 2
REMARK VINA RESULT: -5.416382801      2.144      2.566
REMARK  10 active torsions:
REMARK  status: ('A' for Active; 'I' for Inactive)
REMARK    1  A    between atoms: S1_2  and  C2_3
REMARK    2  A    between atoms: C4_8  and  N2_9
REMARK       I    between atoms: N2_9  and  C5_11
REMARK    3  A    between atoms: C5_11  and  C6_13
REMARK    4  A    between atoms: C6_13  and  O3_15
REMARK    5  A    between atoms: O3_15  and  C8_16
REMARK    6  A    between atoms: C8_16  and  C11_19
REMARK       I    between atoms: C11_19  and  N3_21
REMARK    7  A    between atoms: N3_21  and  N4_23
REMARK    8  A    between atoms: N4_23  and  C12_25
REMARK    9  A    between atoms: C12_25  and  C13_26
REMARK   10  A    between atoms: C13_26  and  N5_27
ROOT
HETATM    1  N2  UNL     1      27.124  18.505   0.820  1.00  0.00    -0.333 N
ATOM      2  H2  UNL     1      26.389  18.542   1.526  1.00  0.00     0.164 HD
HETATM    3  C5  UNL     1      27.379  17.253   0.262  1.00  0.00     0.247 C
HETATM    4  O2  UNL     1      28.280  17.034  -0.613  1.00  0.00    -0.271 OA
ENDROOT
BRANCH   1   5
HETATM    5  C4  UNL     1      27.778  19.750   0.517  1.00  0.00     0.312 C
HETATM    6  C3  UNL     1      27.239  20.396  -0.690  1.00  0.00     0.257 C
HETATM    7  N1  UNL     1      27.901  21.242  -1.592  1.00  0.00    -0.337 N
HETATM    8  O1  UNL     1      25.996  20.145  -0.932  1.00  0.00    -0.270 OA
HETATM    9  C2  UNL     1      29.024  20.973  -2.434  1.00  0.00     0.239 C
ATOM     10  H1  UNL     1      27.525  22.188  -1.658  1.00  0.00     0.164 HD
HETATM   11  C17 UNL     1      30.247  20.520  -1.759  1.00  0.00     0.251 C
HETATM   12  N8  UNL     1      31.103  21.406  -1.054  1.00  0.00    -0.353 N
HETATM   13  O7  UNL     1      30.543  19.273  -1.818  1.00  0.00    -0.270 OA
HETATM   14  C16 UNL     1      31.502  22.718  -1.508  1.00  0.00     0.182 C
ATOM     15  H8  UNL     1      31.464  21.091  -0.153  1.00  0.00     0.162 HD
HETATM   16  C15 UNL     1      30.781  23.824  -0.763  1.00  0.00     0.177 C
HETATM   17  N7  UNL     1      30.133  23.479   0.375  1.00  0.00    -0.397 NA
HETATM   18  C14 UNL     1      29.475  23.470   1.371  1.00  0.00     0.240 C
HETATM   19  S3  UNL     1      29.370  21.885   2.273  1.00  0.00     0.054 SA
HETATM   20  N6  UNL     1      28.721  24.481   2.045  1.00  0.00    -0.059 NA
HETATM   21  S2  UNL     1      27.565  20.912   1.870  1.00  0.00     0.237 S
HETATM   22  O5  UNL     1      26.555  21.951   1.504  1.00  0.00    -0.213 OA
HETATM   23  O6  UNL     1      27.168  20.206   3.138  1.00  0.00    -0.213 OA
BRANCH   9  24
HETATM   24  S1  UNL     1      28.624  19.827  -3.809  1.00  0.00    -0.139 SA
HETATM   25  C1  UNL     1      26.979  20.249  -4.463  1.00  0.00     0.092 C
ENDBRANCH   9  24
ENDBRANCH   1   5
BRANCH   3  26
HETATM   26  C6  UNL     1      26.586  16.035   0.657  1.00  0.00     0.211 C
HETATM   27  C7  UNL     1      25.919  16.470   1.984  1.00  0.00     0.050 C
BRANCH  26  28
HETATM   28  O3  UNL     1      25.563  15.820  -0.247  1.00  0.00    -0.357 OA
BRANCH  28  29
HETATM   29  C8  UNL     1      25.539  14.597  -0.860  1.00  0.00     0.137 C
HETATM   30  C9  UNL     1      26.398  13.689   0.089  1.00  0.00     0.056 C
HETATM   31  C10 UNL     1      24.227  13.936  -1.028  1.00  0.00     0.056 C
BRANCH  29  32
HETATM   32  C11 UNL     1      26.401  14.545  -2.109  1.00  0.00     0.269 C
HETATM   33  O4  UNL     1      26.072  15.239  -3.062  1.00  0.00    -0.268 OA
HETATM   34  N3  UNL     1      27.523  13.715  -2.112  1.00  0.00    -0.272 N
ATOM     35  H3  UNL     1      27.705  13.169  -1.270  1.00  0.00     0.189 HD
BRANCH  34  36
HETATM   36  N4  UNL     1      28.400  13.575  -3.156  1.00  0.00    -0.332 N
ATOM     37  H4  UNL     1      28.165  13.015  -3.976  1.00  0.00     0.180 HD
BRANCH  36  38
HETATM   38  C12 UNL     1      29.642  14.240  -3.048  1.00  0.00     0.166 C
BRANCH  38  39
HETATM   39  C13 UNL     1      29.591  15.661  -3.609  1.00  0.00     0.250 C
BRANCH  39  40
HETATM   40  N5  UNL     1      30.316  16.500  -2.692  1.00  0.00    -0.078 N
ATOM     41  H53 UNL     1      29.885  17.414  -2.557  1.00  0.00     0.274 HD
ATOM     42  H52 UNL     1      30.254  16.183  -1.724  1.00  0.00     0.274 HD
ATOM     43  H51 UNL     1      31.275  16.555  -3.036  1.00  0.00     0.274 HD
ENDBRANCH  39  40
ENDBRANCH  38  39
ENDBRANCH  36  38
ENDBRANCH  34  36
ENDBRANCH  29  32
ENDBRANCH  28  29
ENDBRANCH  26  28
ENDBRANCH   3  26
TORSDOF 10
ENDMDL