MODEL 5
REMARK VINA RESULT: -4.849439757      0.976      1.221
REMARK  16 active torsions:
REMARK  status: ('A' for Active; 'I' for Inactive)
REMARK    1  A    between atoms: C3_3  and  N1_4
REMARK    2  A    between atoms: C4_8  and  O1_9
REMARK    3  A    between atoms: O1_9  and  C5_10
REMARK    4  A    between atoms: C7_12  and  C8_13
REMARK    5  A    between atoms: C8_13  and  N2_14
REMARK    6  A    between atoms: C11_20  and  N3_21
REMARK    7  A    between atoms: C12_26  and  O3_27
REMARK    8  A    between atoms: O3_27  and  C13_28
REMARK    9  A    between atoms: C14_30  and  C15_31
REMARK   10  A    between atoms: C15_31  and  O5_32
REMARK   11  A    between atoms: C16_37  and  C17_38
REMARK   12  A    between atoms: C17_38  and  O6_39
REMARK   13  A    between atoms: C18_41  and  O7_42
REMARK   14  A    between atoms: C19_44  and  O8_45
REMARK   15  A    between atoms: O8_45  and  C20_46
REMARK   16  A    between atoms: C24_50  and  N5_51
ROOT
HETATM    1  C1  UNL     1      26.431  13.834   0.262  1.00  0.00     0.015 C
HETATM    2  C2  UNL     1      25.801  14.965  -0.548  1.00  0.00     0.051 C
HETATM    3  C3  UNL     1      24.913  15.803   0.347  1.00  0.00     0.244 C
HETATM    4  C4  UNL     1      25.711  16.124   1.590  1.00  0.00     0.294 C
HETATM    5  O2  UNL     1      26.956  16.591   1.221  1.00  0.00    -0.327 OA
HETATM    6  C12 UNL     1      27.058  16.994  -0.081  1.00  0.00     0.295 C
HETATM    7  C19 UNL     1      26.901  15.869  -1.081  1.00  0.00     0.183 C
ENDROOT
BRANCH   6   8
HETATM    8  O3  UNL     1      28.370  17.491  -0.252  1.00  0.00    -0.326 OA
BRANCH   8   9
HETATM    9  C13 UNL     1      28.392  18.853  -0.389  1.00  0.00     0.296 C
HETATM   10  O4  UNL     1      27.125  19.282  -0.792  1.00  0.00    -0.324 OA
HETATM   11  C14 UNL     1      27.119  20.585  -1.224  1.00  0.00     0.347 C
HETATM   12  N4  UNL     1      27.741  20.681  -2.506  1.00  0.00    -0.038 N
HETATM   13  C16 UNL     1      28.828  19.774  -2.674  1.00  0.00     0.245 C
ATOM     14  H42 UNL     1      27.055  20.568  -3.251  1.00  0.00     0.281 HD
ATOM     15  H41 UNL     1      28.037  21.639  -2.694  1.00  0.00     0.281 HD
HETATM   16  C18 UNL     1      29.436  19.249  -1.412  1.00  0.00     0.206 C
BRANCH  11  17
HETATM   17  C15 UNL     1      25.666  21.009  -1.384  1.00  0.00     0.225 C
BRANCH  17  18
HETATM   18  O5  UNL     1      24.825  20.132  -0.726  1.00  0.00    -0.397 OA
ATOM     19  H5  UNL     1      25.203  19.261  -0.699  1.00  0.00     0.209 HD
ENDBRANCH  17  18
ENDBRANCH  11  17
BRANCH  13  20
HETATM   20  C17 UNL     1      29.950  20.472  -3.454  1.00  0.00     0.200 C
BRANCH  20  21
HETATM   21  O6  UNL     1      30.543  19.539  -4.286  1.00  0.00    -0.399 OA
ATOM     22  H6  UNL     1      30.209  19.670  -5.165  1.00  0.00     0.209 HD
ENDBRANCH  20  21
ENDBRANCH  13  20
BRANCH  16  23
HETATM   23  O7  UNL     1      30.204  18.118  -1.772  1.00  0.00    -0.388 OA
ATOM     24  H7  UNL     1      29.905  17.781  -2.609  1.00  0.00     0.210 HD
ENDBRANCH  16  23
ENDBRANCH   8   9
ENDBRANCH   6   8
BRANCH   7  25
HETATM   25  O8  UNL     1      28.017  15.110  -1.259  1.00  0.00    -0.373 OA
BRANCH  25  26
HETATM   26  C20 UNL     1      28.620  15.187  -2.482  1.00  0.00     0.152 C
HETATM   27  C21 UNL     1      28.774  13.895  -3.207  1.00  0.00     0.034 C
HETATM   28  C22 UNL     1      27.561  13.755  -4.116  1.00  0.00     0.005 C
HETATM   29  C23 UNL     1      27.097  15.151  -4.360  1.00  0.00     0.035 C
HETATM   30  C24 UNL     1      27.900  16.070  -3.473  1.00  0.00     0.212 C
BRANCH  30  31
HETATM   31  N5  UNL     1      28.862  16.745  -4.359  1.00  0.00    -0.073 N
ATOM     32  H53 UNL     1      29.215  16.119  -5.083  1.00  0.00     0.274 HD
ATOM     33  H52 UNL     1      28.407  17.432  -4.960  1.00  0.00     0.274 HD
ATOM     34  H51 UNL     1      29.621  17.161  -3.816  1.00  0.00     0.274 HD
ENDBRANCH  30  31
ENDBRANCH  25  26
ENDBRANCH   7  25
BRANCH   4  35
HETATM   35  O1  UNL     1      25.034  16.969   2.454  1.00  0.00    -0.352 OA
BRANCH  35  36
HETATM   36  C5  UNL     1      25.842  17.531   3.424  1.00  0.00     0.155 C
HETATM   37  C6  UNL     1      25.673  16.912   4.775  1.00  0.00     0.040 C
HETATM   38  C7  UNL     1      25.805  17.942   5.902  1.00  0.00     0.013 C
HETATM   39  C9  UNL     1      26.958  18.837   5.578  1.00  0.00     0.008 C
HETATM   40  C10 UNL     1      26.583  19.699   4.393  1.00  0.00     0.036 C
HETATM   41  C11 UNL     1      25.600  19.024   3.482  1.00  0.00     0.212 C
BRANCH  38  42
HETATM   42  C8  UNL     1      26.154  17.168   7.163  1.00  0.00     0.234 C
BRANCH  42  43
HETATM   43  N2  UNL     1      27.073  16.097   6.881  1.00  0.00    -0.079 N
ATOM     44  H23 UNL     1      27.849  16.413   6.298  1.00  0.00     0.274 HD
ATOM     45  H22 UNL     1      27.601  15.828   7.711  1.00  0.00     0.274 HD
ATOM     46  H21 UNL     1      26.595  15.298   6.466  1.00  0.00     0.274 HD
ENDBRANCH  42  43
ENDBRANCH  38  42
BRANCH  41  47
HETATM   47  N3  UNL     1      25.864  19.525   2.124  1.00  0.00    -0.073 N
ATOM     48  H33 UNL     1      26.840  19.435   1.837  1.00  0.00     0.274 HD
ATOM     49  H32 UNL     1      25.468  18.940   1.388  1.00  0.00     0.274 HD
ATOM     50  H31 UNL     1      25.522  20.486   2.111  1.00  0.00     0.274 HD
ENDBRANCH  41  47
ENDBRANCH  35  36
ENDBRANCH   4  35
BRANCH   3  51
HETATM   51  N1  UNL     1      23.739  15.008   0.650  1.00  0.00    -0.070 N
ATOM     52  H13 UNL     1      23.055  15.000  -0.106  1.00  0.00     0.274 HD
ATOM     53  H12 UNL     1      23.929  14.006   0.666  1.00  0.00     0.274 HD
ATOM     54  H11 UNL     1      23.359  15.357   1.531  1.00  0.00     0.274 HD
ENDBRANCH   3  51
TORSDOF 16
ENDMDL