MODEL 3
REMARK VINA RESULT: -5.871638175      4.054      7.469
REMARK  14 active torsions:
REMARK  status: ('A' for Active; 'I' for Inactive)
REMARK       I    between atoms: C2_2  and  N1_4
REMARK    1  A    between atoms: N1_4  and  C3_6
REMARK    2  A    between atoms: C4_7  and  O2_8
REMARK    3  A    between atoms: C5_10  and  C6_11
REMARK    4  A    between atoms: C6_11  and  N2_12
REMARK    5  A    between atoms: N2_12  and  C7_14
REMARK    6  A    between atoms: C8_15  and  O3_16
REMARK    7  A    between atoms: C9_18  and  N3_19
REMARK    8  A    between atoms: C11_25  and  C12_26
REMARK    9  A    between atoms: C12_26  and  N4_27
REMARK   10  A    between atoms: N4_27  and  N5_29
REMARK   11  A    between atoms: C15_38  and  O7_39
REMARK   12  A    between atoms: O7_39  and  C16_40
REMARK   13  A    between atoms: C21_45  and  N7_46
REMARK   14  A    between atoms: C22_50  and  O8_51
ROOT
HETATM    1  C3  UNL     1      31.756  22.355  -4.665  1.00  0.00     0.149 C
HETATM    2  C4  UNL     1      30.967  21.169  -5.201  1.00  0.00     0.174 C
HETATM    3  C5  UNL     1      30.551  20.319  -4.054  1.00  0.00     0.172 C
HETATM    4  O6  UNL     1      31.095  20.803  -2.877  1.00  0.00    -0.349 OA
HETATM    5  C15 UNL     1      30.697  22.067  -2.513  1.00  0.00     0.291 C
HETATM    6  C22 UNL     1      30.840  23.032  -3.666  1.00  0.00     0.198 C
ENDROOT
BRANCH   3   7
HETATM    7  C6  UNL     1      29.031  20.152  -3.962  1.00  0.00     0.149 C
BRANCH   7   8
HETATM    8  N2  UNL     1      28.619  19.160  -3.071  1.00  0.00    -0.410 N
ATOM      9  H2  UNL     1      28.030  19.420  -2.280  1.00  0.00     0.153 HD
BRANCH   8  10
HETATM   10  C7  UNL     1      28.986  17.837  -3.228  1.00  0.00     0.139 C
HETATM   11  C8  UNL     1      29.422  17.057  -2.037  1.00  0.00     0.176 C
HETATM   12  C9  UNL     1      28.196  16.440  -1.412  1.00  0.00     0.245 C
HETATM   13  C10 UNL     1      27.119  16.551  -2.468  1.00  0.00     0.186 C
HETATM   14  O4  UNL     1      26.347  15.440  -2.594  1.00  0.00    -0.372 OA
HETATM   15  C14 UNL     1      27.778  17.038  -3.708  1.00  0.00     0.177 C
HETATM   16  C11 UNL     1      26.527  14.652  -3.688  1.00  0.00     0.165 C
HETATM   17  C13 UNL     1      27.037  15.325  -4.916  1.00  0.00     0.201 C
HETATM   18  O5  UNL     1      28.179  16.040  -4.571  1.00  0.00    -0.379 OA
BRANCH  11  19
HETATM   19  O3  UNL     1      30.210  15.995  -2.499  1.00  0.00    -0.391 OA
ATOM     20  H3  UNL     1      29.672  15.479  -3.089  1.00  0.00     0.210 HD
ENDBRANCH  11  19
BRANCH  12  21
HETATM   21  N3  UNL     1      27.827  17.064  -0.168  1.00  0.00    -0.070 N
ATOM     22  H33 UNL     1      28.468  17.822   0.064  1.00  0.00     0.274 HD
ATOM     23  H32 UNL     1      26.965  17.602  -0.271  1.00  0.00     0.274 HD
ATOM     24  H31 UNL     1      27.752  16.400   0.602  1.00  0.00     0.274 HD
ENDBRANCH  12  21
BRANCH  16  25
HETATM   25  C12 UNL     1      27.395  13.430  -3.423  1.00  0.00     0.174 C
BRANCH  25  26
HETATM   26  N4  UNL     1      28.620  13.574  -4.177  1.00  0.00    -0.320 N
ATOM     27  H4  UNL     1      28.575  13.756  -5.180  1.00  0.00     0.181 HD
BRANCH  26  28
HETATM   28  N5  UNL     1      29.725  13.479  -3.622  1.00  0.00    -0.254 N
HETATM   29  N6  UNL     1      30.762  12.949  -3.245  1.00  0.00    -0.331 N
ATOM     30  H62 UNL     1      30.601  12.020  -3.634  1.00  0.00     0.178 HD
ATOM     31  H61 UNL     1      31.671  12.870  -2.788  1.00  0.00     0.178 HD
ATOM     32  H5  UNL     1      29.841  14.422  -3.252  1.00  0.00     0.207 HD
ENDBRANCH  26  28
ENDBRANCH  25  26
ENDBRANCH  16  25
ENDBRANCH   8  10
ENDBRANCH   7   8
ENDBRANCH   3   7
BRANCH   2  33
HETATM   33  O2  UNL     1      31.853  20.524  -6.089  1.00  0.00    -0.391 OA
ATOM     34  H2  UNL     1      31.540  19.628  -6.132  1.00  0.00     0.210 HD
ENDBRANCH   2  33
BRANCH   1  35
HETATM   35  N1  UNL     1      32.234  23.212  -5.695  1.00  0.00    -0.352 N
HETATM   36  C2  UNL     1      33.510  23.819  -5.561  1.00  0.00     0.214 C
HETATM   37  C1  UNL     1      34.103  24.729  -6.578  1.00  0.00     0.117 C
HETATM   38  O1  UNL     1      34.240  23.611  -4.534  1.00  0.00    -0.274 OA
ATOM     39  H1  UNL     1      31.665  23.388  -6.522  1.00  0.00     0.163 HD
ENDBRANCH   1  35
BRANCH   5  40
HETATM   40  O7  UNL     1      31.313  22.519  -1.360  1.00  0.00    -0.351 OA
BRANCH  40  41
HETATM   41  C16 UNL     1      30.821  22.045  -0.183  1.00  0.00     0.155 C
HETATM   42  C17 UNL     1      29.405  21.546  -0.300  1.00  0.00     0.034 C
HETATM   43  C18 UNL     1      28.724  21.275   0.992  1.00  0.00     0.003 C
HETATM   44  C19 UNL     1      29.021  22.248   2.095  1.00  0.00     0.002 C
HETATM   45  C20 UNL     1      30.489  22.616   2.149  1.00  0.00     0.035 C
HETATM   46  C21 UNL     1      30.785  23.242   0.783  1.00  0.00     0.212 C
BRANCH  46  47
HETATM   47  N7  UNL     1      29.648  24.048   0.376  1.00  0.00    -0.073 N
ATOM     48  H73 UNL     1      29.602  24.210  -0.630  1.00  0.00     0.274 HD
ATOM     49  H72 UNL     1      28.754  23.564   0.463  1.00  0.00     0.274 HD
ATOM     50  H71 UNL     1      29.703  24.906   0.925  1.00  0.00     0.274 HD
ENDBRANCH  46  47
ENDBRANCH  40  41
ENDBRANCH   5  40
BRANCH   6  51
HETATM   51  O8  UNL     1      31.321  24.271  -3.263  1.00  0.00    -0.388 OA
ATOM     52  H8  UNL     1      30.623  24.893  -3.095  1.00  0.00     0.210 HD
ENDBRANCH   6  51
TORSDOF 14
ENDMDL