MODEL 1
REMARK VINA RESULT: -4.920410093      0.000      0.000
REMARK  16 active torsions:
REMARK  status: ('A' for Active; 'I' for Inactive)
REMARK    1  A    between atoms: C2_2  and  C3_4
REMARK    2  A    between atoms: C3_4  and  C4_5
REMARK    3  A    between atoms: C4_5  and  O3_7
REMARK    4  A    between atoms: O3_7  and  C5_8
REMARK    5  A    between atoms: C6_9  and  O4_10
REMARK    6  A    between atoms: O4_10  and  C7_11
REMARK    7  A    between atoms: C12_18  and  O7_19
REMARK    8  A    between atoms: C16_24  and  O8_26
REMARK    9  A    between atoms: C18_28  and  O9_29
REMARK   10  A    between atoms: C18_28  and  C19_31
REMARK   11  A    between atoms: C19_31  and  O10_32
REMARK   12  A    between atoms: C19_31  and  C20_34
REMARK   13  A    between atoms: C20_34  and  O11_35
REMARK   14  A    between atoms: C23_39  and  O12_40
REMARK   15  A    between atoms: C24_42  and  C25_43
REMARK   16  A    between atoms: C25_43  and  O13_44
ROOT
HETATM    1  C5  UNL     1      26.120  16.971   0.024  1.00  0.00     0.179 C
HETATM    2  C6  UNL     1      25.928  15.815   0.965  1.00  0.00     0.161 C
HETATM    3  C11 UNL     1      26.227  14.451   0.542  1.00  0.00     0.067 C
HETATM    4  C12 UNL     1      26.526  14.202  -0.912  1.00  0.00     0.134 C
HETATM    5  C13 UNL     1      26.060  15.346  -1.774  1.00  0.00     0.041 C
HETATM    6  C14 UNL     1      26.006  15.342  -3.198  1.00  0.00     0.041 C
HETATM    7  C15 UNL     1      24.864  14.360  -3.125  1.00  0.00     0.047 C
HETATM    8  C16 UNL     1      24.588  15.185  -1.831  1.00  0.00     0.066 C
HETATM    9  C17 UNL     1      23.541  16.125  -2.136  1.00  0.00     0.047 C
HETATM   10  C18 UNL     1      27.005  15.246  -4.216  1.00  0.00     0.093 C
HETATM   11  C21 UNL     1      27.796  16.536  -4.244  1.00  0.00     0.070 C
HETATM   12  C22 UNL     1      27.188  17.686  -3.574  1.00  0.00     0.009 C
HETATM   13  C23 UNL     1      26.708  17.756  -2.226  1.00  0.00     0.054 C
HETATM   14  C24 UNL     1      26.729  16.575  -1.291  1.00  0.00     0.071 C
ENDROOT
BRANCH  10  15
HETATM   15  O9  UNL     1      26.202  15.227  -5.414  1.00  0.00    -0.386 OA
ATOM     16  H9  UNL     1      26.861  15.103  -6.087  1.00  0.00     0.210 HD
ENDBRANCH  10  15
BRANCH  10  17
HETATM   17  C19 UNL     1      27.887  14.079  -4.409  1.00  0.00     0.176 C
BRANCH  17  18
HETATM   18  O10 UNL     1      27.966  13.646  -5.709  1.00  0.00    -0.390 OA
ATOM     19  H10 UNL     1      27.810  12.715  -5.816  1.00  0.00     0.210 HD
ENDBRANCH  17  18
BRANCH  17  20
HETATM   20  C20 UNL     1      29.326  14.502  -4.047  1.00  0.00     0.198 C
BRANCH  20  21
HETATM   21  O11 UNL     1      30.008  13.511  -3.360  1.00  0.00    -0.398 OA
ATOM     22  H11 UNL     1      30.422  13.840  -2.571  1.00  0.00     0.209 HD
ENDBRANCH  20  21
ENDBRANCH  17  20
ENDBRANCH  10  17
BRANCH   4  23
HETATM   23  O7  UNL     1      27.772  13.711  -1.091  1.00  0.00    -0.395 OA
ATOM     24  H7  UNL     1      28.336  14.336  -1.531  1.00  0.00     0.210 HD
ENDBRANCH   4  23
BRANCH   8  25
HETATM   25  O8  UNL     1      24.032  14.204  -0.947  1.00  0.00    -0.389 OA
ATOM     26  H8  UNL     1      23.398  13.610  -1.332  1.00  0.00     0.210 HD
ENDBRANCH   8  25
BRANCH  14  27
HETATM   27  C25 UNL     1      28.192  16.389  -0.972  1.00  0.00     0.184 C
BRANCH  27  28
HETATM   28  O13 UNL     1      28.926  17.597  -1.125  1.00  0.00    -0.400 OA
ATOM     29  H13 UNL     1      29.862  17.456  -1.037  1.00  0.00     0.209 HD
ENDBRANCH  27  28
ENDBRANCH  14  27
BRANCH  13  30
HETATM   30  O12 UNL     1      25.485  18.459  -2.210  1.00  0.00    -0.364 OA
ATOM     31  H12 UNL     1      25.066  18.368  -3.058  1.00  0.00     0.217 HD
ENDBRANCH  13  30
BRANCH   1  32
HETATM   32  O3  UNL     1      26.915  17.968   0.629  1.00  0.00    -0.312 OA
BRANCH  32  33
HETATM   33  C4  UNL     1      26.563  19.263   0.898  1.00  0.00     0.266 C
HETATM   34  O2  UNL     1      25.442  19.678   0.538  1.00  0.00    -0.265 OA
BRANCH  33  35
HETATM   35  C3  UNL     1      27.461  20.199   1.606  1.00  0.00     0.188 C
BRANCH  35  36
HETATM   36  C2  UNL     1      28.492  20.764   0.700  1.00  0.00     0.132 C
HETATM   37  C1  UNL     1      29.419  21.846   1.185  1.00  0.00     0.091 C
HETATM   38  O1  UNL     1      28.676  20.425  -0.456  1.00  0.00    -0.298 OA
ENDBRANCH  35  36
ENDBRANCH  33  35
ENDBRANCH  32  33
ENDBRANCH   1  32
BRANCH   2  39
HETATM   39  O4  UNL     1      26.614  16.136   2.148  1.00  0.00    -0.322 OA
BRANCH  39  40
HETATM   40  C7  UNL     1      25.818  16.372   3.216  1.00  0.00     0.319 A
HETATM   41  O5  UNL     1      24.440  16.404   3.023  1.00  0.00    -0.327 OA
HETATM   42  C8  UNL     1      24.299  16.210   4.396  1.00  0.00     0.220 C
HETATM   43  C9  UNL     1      25.799  16.510   4.510  1.00  0.00     0.168 A
HETATM   44  C10 UNL     1      26.438  15.952   5.720  1.00  0.00     0.057 C
HETATM   45  O6  UNL     1      26.249  17.638   3.875  1.00  0.00    -0.309 OA
ENDBRANCH  39  40
ENDBRANCH   2  39
TORSDOF 16
ENDMDL