MODEL 3
REMARK VINA RESULT: -5.092922552      4.203      9.983
REMARK  15 active torsions:
REMARK  status: ('A' for Active; 'I' for Inactive)
REMARK    1  A    between atoms: C2_2  and  C3_3
REMARK    2  A    between atoms: C3_3  and  C4_4
REMARK    3  A    between atoms: C5_6  and  O2_7
REMARK    4  A    between atoms: O2_7  and  C6_8
REMARK    5  A    between atoms: C7_9  and  O3_10
REMARK    6  A    between atoms: C8_12  and  C9_13
REMARK    7  A    between atoms: C9_13  and  N1_14
REMARK    8  A    between atoms: C12_21  and  N2_22
REMARK    9  A    between atoms: C14_25  and  N3_26
REMARK   10  A    between atoms: C15_30  and  O5_31
REMARK   11  A    between atoms: O5_31  and  C16_32
REMARK   12  A    between atoms: C17_34  and  C18_35
REMARK   13  A    between atoms: C18_35  and  N4_36
REMARK       I    between atoms: N4_36  and  C19_37
REMARK   14  A    between atoms: C23_42  and  N5_43
REMARK   15  A    between atoms: C24_47  and  O8_48
ROOT
HETATM    1  C4  UNL     1      28.498  19.689  -1.174  1.00  0.00     0.156 C
HETATM    2  O1  UNL     1      27.331  19.324  -1.933  1.00  0.00    -0.351 OA
HETATM    3  C5  UNL     1      27.776  18.367  -2.838  1.00  0.00     0.293 C
HETATM    4  C14 UNL     1      29.033  18.772  -3.482  1.00  0.00     0.269 C
HETATM    5  C15 UNL     1      29.354  20.293  -3.360  1.00  0.00     0.191 C
HETATM    6  C24 UNL     1      29.097  20.822  -1.985  1.00  0.00     0.178 C
ENDROOT
BRANCH   3   7
HETATM    7  O2  UNL     1      27.830  17.121  -2.202  1.00  0.00    -0.349 OA
BRANCH   7   8
HETATM    8  C6  UNL     1      26.713  16.310  -2.427  1.00  0.00     0.180 C
HETATM    9  C7  UNL     1      27.084  15.287  -3.486  1.00  0.00     0.179 C
HETATM   10  C8  UNL     1      27.939  14.211  -2.911  1.00  0.00     0.178 C
HETATM   11  O4  UNL     1      27.529  13.752  -1.691  1.00  0.00    -0.374 OA
HETATM   12  C10 UNL     1      26.367  14.210  -1.178  1.00  0.00     0.143 C
HETATM   13  C11 UNL     1      26.311  13.674   0.269  1.00  0.00     0.042 C
HETATM   14  C12 UNL     1      26.132  15.695  -1.195  1.00  0.00     0.136 C
BRANCH   9  15
HETATM   15  O3  UNL     1      25.911  14.673  -3.947  1.00  0.00    -0.390 OA
ATOM     16  H3  UNL     1      25.500  14.219  -3.221  1.00  0.00     0.210 HD
ENDBRANCH   9  15
BRANCH  10  17
HETATM   17  C9  UNL     1      29.429  14.530  -2.866  1.00  0.00     0.264 C
BRANCH  17  18
HETATM   18  N1  UNL     1      30.197  13.401  -3.396  1.00  0.00    -0.077 N
ATOM     19  H13 UNL     1      29.768  13.005  -4.232  1.00  0.00     0.274 HD
ATOM     20  H12 UNL     1      31.081  13.699  -3.809  1.00  0.00     0.274 HD
ATOM     21  H11 UNL     1      30.332  12.701  -2.667  1.00  0.00     0.274 HD
ENDBRANCH  17  18
ENDBRANCH  10  17
BRANCH  14  22
HETATM   22  N2  UNL     1      24.694  15.863  -1.216  1.00  0.00    -0.417 N
HETATM   23  C13 UNL     1      24.171  17.138  -1.491  1.00  0.00     0.140 C
ATOM     24  H2  UNL     1      24.075  15.074  -1.034  1.00  0.00     0.153 HD
ENDBRANCH  14  22
ENDBRANCH   7   8
ENDBRANCH   3   7
BRANCH   4  25
HETATM   25  N3  UNL     1      30.200  17.989  -3.251  1.00  0.00    -0.068 N
ATOM     26  H33 UNL     1      29.970  17.236  -2.603  1.00  0.00     0.275 HD
ATOM     27  H32 UNL     1      30.416  17.461  -4.097  1.00  0.00     0.275 HD
ATOM     28  H31 UNL     1      31.046  18.457  -2.928  1.00  0.00     0.275 HD
ENDBRANCH   4  25
BRANCH   1  29
HETATM   29  C3  UNL     1      28.263  19.785   0.191  1.00  0.00     0.034 C
BRANCH  29  30
HETATM   30  C2  UNL     1      26.932  19.636   0.601  1.00  0.00    -0.002 C
HETATM   31  C1  UNL     1      26.697  18.258   1.308  1.00  0.00     0.005 C
ENDBRANCH  29  30
ENDBRANCH   1  29
BRANCH   5  32
HETATM   32  O5  UNL     1      30.701  20.330  -3.699  1.00  0.00    -0.349 OA
BRANCH  32  33
HETATM   33  C16 UNL     1      30.936  21.349  -4.685  1.00  0.00     0.291 C
HETATM   34  O6  UNL     1      31.695  20.609  -5.636  1.00  0.00    -0.348 OA
HETATM   35  C17 UNL     1      32.032  21.361  -6.731  1.00  0.00     0.176 C
HETATM   36  C21 UNL     1      33.040  22.376  -6.348  1.00  0.00     0.041 C
HETATM   37  C22 UNL     1      32.358  23.274  -5.319  1.00  0.00     0.041 C
HETATM   38  C23 UNL     1      31.708  22.496  -4.213  1.00  0.00     0.238 C
BRANCH  35  39
HETATM   39  C18 UNL     1      32.396  20.415  -7.807  1.00  0.00     0.191 C
BRANCH  39  40
HETATM   40  N4  UNL     1      33.619  19.785  -7.893  1.00  0.00    -0.385 NA
HETATM   41  C19 UNL     1      34.784  19.166  -7.967  1.00  0.00     0.286 C
HETATM   42  C20 UNL     1      35.951  20.095  -8.427  1.00  0.00     0.135 C
HETATM   43  O7  UNL     1      35.205  17.989  -7.742  1.00  0.00    -0.258 OA
ENDBRANCH  39  40
ENDBRANCH  35  39
BRANCH  38  44
HETATM   44  N5  UNL     1      30.862  23.441  -3.460  1.00  0.00    -0.070 N
ATOM     45  H53 UNL     1      30.047  23.727  -4.003  1.00  0.00     0.274 HD
ATOM     46  H52 UNL     1      30.382  22.980  -2.688  1.00  0.00     0.274 HD
ATOM     47  H51 UNL     1      31.399  24.246  -3.139  1.00  0.00     0.274 HD
ENDBRANCH  38  44
ENDBRANCH  32  33
ENDBRANCH   5  32
BRANCH   6  48
HETATM   48  O8  UNL     1      28.224  21.890  -2.110  1.00  0.00    -0.390 OA
ATOM     49  H8  UNL     1      27.917  22.201  -1.267  1.00  0.00     0.210 HD
ENDBRANCH   6  48
TORSDOF 15
ENDMDL