MODEL 4
REMARK VINA RESULT: -5.442597286      3.222      7.114
REMARK  14 active torsions:
REMARK  status: ('A' for Active; 'I' for Inactive)
REMARK    1  A    between atoms: N1_1  and  N2_4
REMARK    2  A    between atoms: N2_4  and  C1_6
REMARK    3  A    between atoms: C2_9  and  C3_10
REMARK    4  A    between atoms: C3_10  and  N4_11
REMARK    5  A    between atoms: C3_10  and  S1_18
REMARK    6  A    between atoms: N4_11  and  N5_13
REMARK       I    between atoms: N5_13  and  C4_15
REMARK    7  A    between atoms: S1_18  and  C5_19
REMARK    8  A    between atoms: C9_23  and  C10_24
REMARK    9  A    between atoms: C10_24  and  S2_25
REMARK   10  A    between atoms: S2_25  and  C11_26
REMARK   11  A    between atoms: C11_26  and  C12_27
REMARK   12  A    between atoms: C12_27  and  C13_28
REMARK       I    between atoms: C13_28  and  N8_30
REMARK   13  A    between atoms: N8_30  and  C14_32
REMARK   14  A    between atoms: N12_39  and  N13_40
ROOT
HETATM    1  C5  UNL     1      28.109  14.771  -1.231  1.00  0.00     0.007 A
HETATM    2  C6  UNL     1      27.346  13.681  -0.840  1.00  0.00     0.019 A
HETATM    3  C7  UNL     1      26.354  13.832   0.104  1.00  0.00     0.002 A
HETATM    4  C8  UNL     1      26.131  15.099   0.656  1.00  0.00     0.008 A
HETATM    5  C9  UNL     1      26.851  16.187   0.304  1.00  0.00    -0.048 A
HETATM    6  C16 UNL     1      27.852  15.984  -0.661  1.00  0.00     0.026 A
ENDROOT
BRANCH   1   7
HETATM    7  S1  UNL     1      29.383  14.589  -2.456  1.00  0.00    -0.067 SA
BRANCH   7   8
HETATM    8  C3  UNL     1      29.362  15.908  -3.636  1.00  0.00     0.143 C
BRANCH   8   9
HETATM    9  C2  UNL     1      28.653  15.753  -4.903  1.00  0.00     0.207 A
HETATM   10  N3  UNL     1      29.038  14.799  -5.797  1.00  0.00    -0.313 N
HETATM   11  C1  UNL     1      28.365  14.672  -6.967  1.00  0.00     0.193 A
ATOM     12  H3  UNL     1      29.826  14.187  -5.588  1.00  0.00     0.170 HD
HETATM   13  C17 UNL     1      27.302  15.490  -7.264  1.00  0.00     0.310 A
HETATM   14  N14 UNL     1      26.960  16.425  -6.334  1.00  0.00    -0.220 N
HETATM   15  O3  UNL     1      26.654  15.413  -8.320  1.00  0.00    -0.262 OA
HETATM   16  O2  UNL     1      27.638  16.497  -5.240  1.00  0.00    -0.214 OA
ATOM     17  H14 UNL     1      26.179  17.059  -6.502  1.00  0.00     0.198 HD
BRANCH  11  18
HETATM   18  N2  UNL     1      28.694  13.786  -7.835  1.00  0.00    -0.287 N
ATOM     19  H2  UNL     1      29.571  13.952  -8.328  1.00  0.00     0.188 HD
BRANCH  18  20
HETATM   20  N1  UNL     1      28.020  12.650  -8.183  1.00  0.00    -0.343 N
ATOM     21  H12 UNL     1      28.235  11.834  -7.610  1.00  0.00     0.176 HD
ATOM     22  H11 UNL     1      27.341  12.523  -8.934  1.00  0.00     0.176 HD
ENDBRANCH  18  20
ENDBRANCH  11  18
ENDBRANCH   8   9
BRANCH   8  23
HETATM   23  N4  UNL     1      29.983  17.004  -3.360  1.00  0.00    -0.288 N
ATOM     24  H4  UNL     1      30.854  16.942  -2.833  1.00  0.00     0.188 HD
BRANCH  23  25
HETATM   25  N5  UNL     1      29.540  18.257  -3.735  1.00  0.00    -0.275 N
HETATM   26  C4  UNL     1      29.843  19.308  -3.031  1.00  0.00     0.215 C
HETATM   27  N6  UNL     1      29.361  20.579  -3.464  1.00  0.00    -0.065 NA
HETATM   28  N7  UNL     1      30.635  19.229  -1.852  1.00  0.00    -0.065 NA
ATOM     29  H5  UNL     1      28.968  18.360  -4.574  1.00  0.00     0.189 HD
ENDBRANCH  23  25
ENDBRANCH   8  23
ENDBRANCH   7   8
ENDBRANCH   1   7
BRANCH   5  30
HETATM   30  C10 UNL     1      26.646  17.550   0.844  1.00  0.00     0.112 C
BRANCH  30  31
HETATM   31  S2  UNL     1      27.443  18.859  -0.016  1.00  0.00    -0.161 SA
BRANCH  31  32
HETATM   32  C11 UNL     1      27.885  20.289   0.916  1.00  0.00     0.106 C
BRANCH  32  33
HETATM   33  C12 UNL     1      28.617  21.389   0.238  1.00  0.00     0.058 C
BRANCH  33  34
HETATM   34  C13 UNL     1      29.827  21.960   0.782  1.00  0.00     0.256 C
HETATM   35  O1  UNL     1      29.871  22.613   1.840  1.00  0.00    -0.268 OA
HETATM   36  N8  UNL     1      31.090  21.794   0.118  1.00  0.00    -0.153 N
ATOM     37  H8  UNL     1      31.668  21.000   0.394  1.00  0.00     0.187 HD
BRANCH  36  38
HETATM   38  C14 UNL     1      31.541  22.563  -0.787  1.00  0.00     0.723 A
HETATM   39  N9  UNL     1      31.491  22.459  -2.129  1.00  0.00    -0.128 N
HETATM   40  N10 UNL     1      32.114  23.533  -2.623  1.00  0.00    -0.257 N
ATOM     41  H9  UNL     1      31.059  21.707  -2.666  1.00  0.00     0.205 HD
HETATM   42  C15 UNL     1      32.563  24.323  -1.626  1.00  0.00     0.245 A
ATOM     43  H10 UNL     1      32.234  23.728  -3.617  1.00  0.00     0.190 HD
HETATM   44  N11 UNL     1      33.279  25.558  -1.765  1.00  0.00    -0.060 NA
HETATM   45  N12 UNL     1      32.203  23.714  -0.496  1.00  0.00    -0.060 N
BRANCH  45  46
HETATM   46  N13 UNL     1      32.460  24.177   0.806  1.00  0.00    -0.322 N
ATOM     47 2H13 UNL     1      31.770  24.274   1.551  1.00  0.00     0.178 HD
ATOM     48 1H13 UNL     1      33.376  24.467   1.146  1.00  0.00     0.178 HD
ENDBRANCH  45  46
ENDBRANCH  36  38
ENDBRANCH  33  34
ENDBRANCH  32  33
ENDBRANCH  31  32
ENDBRANCH  30  31
ENDBRANCH   5  30
TORSDOF 14
ENDMDL