MODEL 3
REMARK VINA RESULT: -6.569574921      1.455      2.174
REMARK  13 active torsions:
REMARK  status: ('A' for Active; 'I' for Inactive)
REMARK    1  A    between atoms: O1_2  and  C2_3
REMARK    2  A    between atoms: C4_5  and  C5_6
REMARK    3  A    between atoms: N1_10  and  C8_11
REMARK    4  A    between atoms: C8_11  and  C9_12
REMARK    5  A    between atoms: C9_12  and  N2_13
REMARK    6  A    between atoms: N2_13  and  C10_15
REMARK    7  A    between atoms: C11_18  and  N4_19
REMARK    8  A    between atoms: C12_24  and  N6_25
REMARK    9  A    between atoms: C17_34  and  N8_35
REMARK   10  A    between atoms: N8_35  and  N9_37
REMARK   11  A    between atoms: N10_42  and  N11_43
REMARK   12  A    between atoms: C20_47  and  O4_48
REMARK   13  A    between atoms: C22_50  and  O5_51
ROOT
HETATM    1  C5  UNL     1      26.983  16.598   0.110  1.00  0.00    -0.006 A
HETATM    2  C6  UNL     1      27.336  17.917   0.235  1.00  0.00     0.088 A
HETATM    3  C7  UNL     1      28.375  18.412  -0.490  1.00  0.00     0.254 A
HETATM    4  O2  UNL     1      28.688  19.656  -0.357  1.00  0.00    -0.268 OA
HETATM    5  N1  UNL     1      29.143  17.673  -1.379  1.00  0.00    -0.271 N
HETATM    6  C13 UNL     1      28.772  16.404  -1.479  1.00  0.00     0.150 A
HETATM    7  C14 UNL     1      27.715  15.834  -0.759  1.00  0.00     0.022 A
HETATM    8  C15 UNL     1      27.252  14.535  -0.756  1.00  0.00     0.018 C
HETATM    9  C16 UNL     1      27.257  13.664  -1.835  1.00  0.00     0.038 C
HETATM   10  C17 UNL     1      28.018  13.819  -3.013  1.00  0.00     0.117 C
HETATM   11  C18 UNL     1      28.971  14.768  -3.288  1.00  0.00     0.295 C
HETATM   12  O3  UNL     1      29.478  14.736  -4.446  1.00  0.00    -0.264 OA
HETATM   13  N10 UNL     1      29.432  15.748  -2.439  1.00  0.00    -0.207 N
ENDROOT
BRANCH   5  14
HETATM   14  C8  UNL     1      30.137  18.299  -2.134  1.00  0.00     0.119 C
BRANCH  14  15
HETATM   15  C9  UNL     1      29.786  19.335  -3.158  1.00  0.00     0.124 C
BRANCH  15  16
HETATM   16  N2  UNL     1      30.240  20.641  -3.128  1.00  0.00    -0.199 N
ATOM     17  H2  UNL     1      29.944  21.233  -2.352  1.00  0.00     0.183 HD
BRANCH  16  18
HETATM   18  C10 UNL     1      31.000  21.146  -4.003  1.00  0.00     0.711 A
HETATM   19  N3  UNL     1      31.018  20.623  -5.242  1.00  0.00    -0.021 N
HETATM   20  C11 UNL     1      31.820  21.133  -6.222  1.00  0.00     0.705 A
ATOM     21  H3  UNL     1      30.417  19.827  -5.455  1.00  0.00     0.203 HD
HETATM   22  N5  UNL     1      32.602  22.186  -5.897  1.00  0.00    -0.022 N
HETATM   23  C12 UNL     1      32.590  22.712  -4.663  1.00  0.00     0.705 A
ATOM     24  H5  UNL     1      33.214  22.590  -6.606  1.00  0.00     0.203 HD
HETATM   25  N7  UNL     1      31.803  22.204  -3.725  1.00  0.00    -0.021 N
ATOM     26  H7  UNL     1      31.800  22.611  -2.789  1.00  0.00     0.203 HD
BRANCH  20  27
HETATM   27  N4  UNL     1      31.845  20.640  -7.414  1.00  0.00    -0.234 N
ATOM     28  H42 UNL     1      31.891  19.631  -7.558  1.00  0.00     0.174 HD
ATOM     29  H41 UNL     1      31.818  21.230  -8.246  1.00  0.00     0.174 HD
ENDBRANCH  20  27
BRANCH  23  30
HETATM   30  N6  UNL     1      33.351  23.727  -4.374  1.00  0.00    -0.234 N
ATOM     31  H62 UNL     1      34.282  23.560  -3.994  1.00  0.00     0.174 HD
ATOM     32  H61 UNL     1      33.019  24.680  -4.526  1.00  0.00     0.174 HD
ENDBRANCH  23  30
ENDBRANCH  16  18
ENDBRANCH  15  16
ENDBRANCH  14  15
ENDBRANCH   5  14
BRANCH  13  33
HETATM   33  N11 UNL     1      30.739  16.045  -2.640  1.00  0.00    -0.334 N
ATOM     34 2H11 UNL     1      30.896  17.037  -2.820  1.00  0.00     0.177 HD
ATOM     35 1H11 UNL     1      31.420  15.287  -2.601  1.00  0.00     0.177 HD
ENDBRANCH  13  33
BRANCH   1  36
HETATM   36  C4  UNL     1      25.837  16.100   0.869  1.00  0.00    -0.019 A
HETATM   37  C3  UNL     1      24.690  15.597   0.311  1.00  0.00     0.052 A
HETATM   38  C2  UNL     1      23.663  15.151   1.103  1.00  0.00     0.105 A
HETATM   39  C22 UNL     1      23.789  15.213   2.475  1.00  0.00     0.135 A
HETATM   40  C20 UNL     1      24.932  15.714   3.075  1.00  0.00     0.105 A
HETATM   41  C19 UNL     1      25.941  16.152   2.240  1.00  0.00     0.052 A
BRANCH  38  42
HETATM   42  O1  UNL     1      22.482  14.633   0.586  1.00  0.00    -0.353 OA
HETATM   43  C1  UNL     1      22.551  13.363  -0.045  1.00  0.00     0.210 C
ENDBRANCH  38  42
BRANCH  39  44
HETATM   44  O5  UNL     1      22.770  14.771   3.324  1.00  0.00    -0.351 OA
HETATM   45  C23 UNL     1      22.756  13.414   3.737  1.00  0.00     0.210 C
ENDBRANCH  39  44
BRANCH  40  46
HETATM   46  O4  UNL     1      25.032  15.764   4.471  1.00  0.00    -0.353 OA
HETATM   47  C21 UNL     1      25.972  16.679   5.004  1.00  0.00     0.210 C
ENDBRANCH  40  46
ENDBRANCH   1  36
BRANCH  10  48
HETATM   48  N8  UNL     1      27.768  12.954  -3.916  1.00  0.00    -0.302 N
ATOM     49  H8  UNL     1      28.109  12.000  -3.796  1.00  0.00     0.186 HD
BRANCH  48  50
HETATM   50  N9  UNL     1      27.050  13.269  -5.053  1.00  0.00    -0.345 N
ATOM     51  H92 UNL     1      27.247  12.742  -5.903  1.00  0.00     0.176 HD
ATOM     52  H91 UNL     1      26.342  14.002  -5.060  1.00  0.00     0.176 HD
ENDBRANCH  48  50
ENDBRANCH  10  48
TORSDOF 13
ENDMDL