MODEL 2
REMARK VINA RESULT: -6.058300464      2.052      5.599
REMARK  13 active torsions:
REMARK  status: ('A' for Active; 'I' for Inactive)
REMARK    1  A    between atoms: C3_9  and  C4_10
REMARK       I    between atoms: C4_10  and  N3_12
REMARK    2  A    between atoms: N3_12  and  N4_14
REMARK    3  A    between atoms: N6_19  and  C5_20
REMARK    4  A    between atoms: C5_20  and  O3_21
REMARK    5  A    between atoms: C5_20  and  C6_23
REMARK    6  A    between atoms: C6_23  and  C7_24
REMARK    7  A    between atoms: C6_23  and  N7_27
REMARK    8  A    between atoms: C7_24  and  O4_25
REMARK       I    between atoms: N7_27  and  C8_29
REMARK    9  A    between atoms: C8_29  and  C9_31
REMARK   10  A    between atoms: C13_35  and  N8_36
REMARK   11  A    between atoms: N8_36  and  S1_38
REMARK   12  A    between atoms: S1_38  and  C14_41
REMARK   13  A    between atoms: C17_44  and  O8_45
ROOT
HETATM    1  C6  UNL     1      26.716  14.206  -5.524  1.00  0.00     0.185 C
ENDROOT
BRANCH   1   2
HETATM    2  C5  UNL     1      28.101  14.630  -5.376  1.00  0.00     0.180 C
BRANCH   2   3
HETATM    3  N6  UNL     1      28.741  15.418  -4.398  1.00  0.00    -0.065 N
HETATM    4  C1  UNL     1      29.627  14.927  -3.543  1.00  0.00     0.702 A
HETATM    5  N1  UNL     1      30.059  13.706  -3.583  1.00  0.00    -0.233 N
HETATM    6  N2  UNL     1      30.152  15.757  -2.593  1.00  0.00    -0.152 N
ATOM      7  H12 UNL     1      30.741  13.328  -2.926  1.00  0.00     0.174 HD
ATOM      8  H11 UNL     1      29.668  13.086  -4.293  1.00  0.00     0.174 HD
HETATM    9  C2  UNL     1      29.791  17.040  -2.510  1.00  0.00     0.293 A
ATOM     10  H2  UNL     1      30.835  15.388  -1.932  1.00  0.00     0.187 HD
HETATM   11  O1  UNL     1      30.277  17.801  -1.631  1.00  0.00    -0.265 OA
HETATM   12  C3  UNL     1      28.873  17.552  -3.397  1.00  0.00     0.187 A
HETATM   13  N5  UNL     1      28.383  16.717  -4.308  1.00  0.00    -0.268 N
ATOM     14  H5  UNL     1      27.700  17.078  -4.975  1.00  0.00     0.188 HD
BRANCH  12  15
HETATM   15  C4  UNL     1      28.470  18.954  -3.311  1.00  0.00     0.293 C
HETATM   16  O2  UNL     1      27.245  19.235  -3.435  1.00  0.00    -0.264 OA
HETATM   17  N3  UNL     1      29.388  20.002  -3.094  1.00  0.00    -0.271 N
ATOM     18  H3  UNL     1      30.376  19.764  -2.996  1.00  0.00     0.189 HD
BRANCH  17  19
HETATM   19  N4  UNL     1      29.022  21.342  -3.008  1.00  0.00    -0.342 N
ATOM     20  H42 UNL     1      28.131  21.609  -3.426  1.00  0.00     0.176 HD
ATOM     21  H41 UNL     1      29.593  22.055  -2.553  1.00  0.00     0.176 HD
ENDBRANCH  17  19
ENDBRANCH  12  15
ENDBRANCH   2   3
BRANCH   2  22
HETATM   22  O3  UNL     1      28.919  14.215  -6.314  1.00  0.00    -0.346 OA
ATOM     23  H3  UNL     1      28.554  13.513  -6.839  1.00  0.00     0.219 HD
ENDBRANCH   2  22
ENDBRANCH   1   2
BRANCH   1  24
HETATM   24  C7  UNL     1      26.598  12.875  -6.295  1.00  0.00     0.197 C
BRANCH  24  25
HETATM   25  O4  UNL     1      27.042  11.831  -5.464  1.00  0.00    -0.398 OA
ATOM     26  H4  UNL     1      26.329  11.574  -4.890  1.00  0.00     0.209 HD
ENDBRANCH  24  25
ENDBRANCH   1  24
BRANCH   1  27
HETATM   27  N7  UNL     1      26.138  13.923  -4.180  1.00  0.00    -0.343 N
HETATM   28  C8  UNL     1      25.432  14.894  -3.438  1.00  0.00     0.252 C
HETATM   29  O5  UNL     1      25.276  16.031  -3.902  1.00  0.00    -0.268 OA
ATOM     30  H7  UNL     1      26.258  12.992  -3.781  1.00  0.00     0.163 HD
BRANCH  28  31
HETATM   31  C9  UNL     1      24.875  14.569  -2.109  1.00  0.00     0.034 A
HETATM   32  C10 UNL     1      23.686  13.885  -1.988  1.00  0.00     0.017 A
HETATM   33  C11 UNL     1      23.188  13.579  -0.749  1.00  0.00     0.003 A
HETATM   34  C12 UNL     1      23.877  13.955   0.412  1.00  0.00     0.030 A
HETATM   35  C13 UNL     1      25.065  14.639   0.322  1.00  0.00     0.043 A
HETATM   36  C20 UNL     1      25.541  14.934  -0.959  1.00  0.00     0.047 A
BRANCH  35  37
HETATM   37  N8  UNL     1      25.854  15.043   1.400  1.00  0.00    -0.281 N
ATOM     38  H8  UNL     1      26.625  14.416   1.633  1.00  0.00     0.179 HD
BRANCH  37  39
HETATM   39  S1  UNL     1      25.723  16.417   2.378  1.00  0.00     0.263 S
HETATM   40  O6  UNL     1      26.387  16.090   3.717  1.00  0.00    -0.200 OA
HETATM   41  O7  UNL     1      24.261  16.654   2.749  1.00  0.00    -0.200 OA
BRANCH  39  42
HETATM   42  C14 UNL     1      26.462  17.851   1.784  1.00  0.00     0.080 A
HETATM   43  C15 UNL     1      27.143  17.821   0.583  1.00  0.00     0.028 A
HETATM   44  C16 UNL     1      27.744  18.951   0.077  1.00  0.00     0.038 A
HETATM   45  C17 UNL     1      27.701  20.175   0.741  1.00  0.00     0.065 A
HETATM   46  C18 UNL     1      27.022  20.193   1.935  1.00  0.00     0.038 A
HETATM   47  C19 UNL     1      26.417  19.071   2.449  1.00  0.00     0.028 A
BRANCH  45  48
HETATM   48  O8  UNL     1      28.326  21.281   0.184  1.00  0.00    -0.361 OA
ATOM     49  H8  UNL     1      27.803  21.956  -0.233  1.00  0.00     0.217 HD
ENDBRANCH  45  48
ENDBRANCH  39  42
ENDBRANCH  37  39
ENDBRANCH  35  37
ENDBRANCH  28  31
ENDBRANCH   1  27
TORSDOF 13
ENDMDL