MODEL 4
REMARK VINA RESULT: -5.530437196      4.678      7.906
REMARK  1 active torsions:
REMARK  status: ('A' for Active; 'I' for Inactive)
REMARK    1  A    between atoms: C1_2  and  C2_4
ROOT
HETATM    1  C2  UNL     1       5.530 -23.682  24.053  1.00  0.00     0.143 C
HETATM    2  N2  UNL     1       4.964 -24.903  24.601  1.00  0.00    -0.094 NA
HETATM    3  C3  UNL     1       4.800 -22.930  23.292  1.00  0.00     0.133 C
HETATM    4  N3  UNL     1       5.307 -21.751  22.702  1.00  0.00    -0.291 N
ATOM      5  H3  UNL     1       6.238 -21.827  22.293  1.00  0.00     0.187 HD
HETATM    6  N4  UNL     1       4.700 -20.487  22.604  1.00  0.00    -0.251 N
ATOM      7  H4  UNL     1       5.323 -19.681  22.556  1.00  0.00     0.191 HD
HETATM    8  C4  UNL     1       3.311 -20.222  22.566  1.00  0.00     0.341 C
HETATM    9  O2  UNL     1       2.967 -19.008  22.635  1.00  0.00    -0.245 OA
HETATM   10  N5  UNL     1       2.182 -21.109  22.460  1.00  0.00    -0.271 N
ATOM     11  H5  UNL     1       1.292 -20.710  22.163  1.00  0.00     0.174 HD
HETATM   12  C5  UNL     1       2.220 -22.500  22.741  1.00  0.00     0.302 C
HETATM   13  O3  UNL     1       1.103 -23.065  22.675  1.00  0.00    -0.264 OA
HETATM   14  C6  UNL     1       3.379 -23.348  23.094  1.00  0.00     0.269 C
HETATM   15  O4  UNL     1       3.191 -24.564  23.256  1.00  0.00    -0.280 OA
ENDROOT
BRANCH   1  16
HETATM   16  C1  UNL     1       6.895 -23.429  24.392  1.00  0.00     0.281 C
HETATM   17  N1  UNL     1       7.417 -22.433  25.238  1.00  0.00    -0.056 NA
HETATM   18  O1  UNL     1       7.814 -24.192  23.883  1.00  0.00    -0.270 OA
ENDBRANCH   1  16
TORSDOF 1
ENDMDL