MODEL 2
REMARK VINA RESULT: -6.123284164      2.133      2.549
REMARK  3 active torsions:
REMARK  status: ('A' for Active; 'I' for Inactive)
REMARK    1  A    between atoms: N1_1  and  C1_4
REMARK       I    between atoms: N4_10  and  C3_12
REMARK    2  A    between atoms: C3_12  and  C4_14
REMARK    3  A    between atoms: N6_16  and  N7_18
ROOT
HETATM    1  C1  UNL     1       0.247 -15.588  20.606  1.00  0.00     0.693 A
HETATM    2  N2  UNL     1       0.305 -16.529  21.549  1.00  0.00    -0.131 N
ATOM      3  H2  UNL     1      -0.384 -16.517  22.301  1.00  0.00     0.205 HD
HETATM    4  N3  UNL     1       1.240 -17.492  21.540  1.00  0.00    -0.267 N
ATOM      5  H3  UNL     1       1.254 -18.198  22.277  1.00  0.00     0.189 HD
HETATM    6  C2  UNL     1       2.153 -17.526  20.564  1.00  0.00     0.193 A
HETATM    7  N4  UNL     1       3.045 -18.466  20.579  1.00  0.00    -0.301 N
ATOM      8  H4  UNL     1       3.743 -18.496  19.835  1.00  0.00     0.171 HD
HETATM    9  C3  UNL     1       3.083 -19.457  21.597  1.00  0.00     0.289 C
HETATM   10  O1  UNL     1       3.516 -19.062  22.728  1.00  0.00    -0.264 OA
HETATM   11  C5  UNL     1       2.116 -16.567  19.581  1.00  0.00     0.305 A
HETATM   12  O2  UNL     1       2.948 -16.560  18.649  1.00  0.00    -0.263 OA
HETATM   13  N8  UNL     1       1.155 -15.609  19.620  1.00  0.00    -0.152 N
ATOM     14  H8  UNL     1       1.124 -14.896  18.891  1.00  0.00     0.188 HD
ENDROOT
BRANCH   9  15
HETATM   15  C4  UNL     1       2.659 -20.829  21.379  1.00  0.00     0.199 C
HETATM   16  N5  UNL     1       2.972 -21.465  20.150  1.00  0.00    -0.075 NA
HETATM   17  N6  UNL     1       2.007 -21.513  22.249  1.00  0.00    -0.290 N
ATOM     18  H6  UNL     1       1.761 -22.468  21.990  1.00  0.00     0.187 HD
BRANCH  17  19
HETATM   19  N7  UNL     1       1.610 -21.091  23.486  1.00  0.00    -0.344 N
ATOM     20  H72 UNL     1       0.934 -20.328  23.495  1.00  0.00     0.176 HD
ATOM     21  H71 UNL     1       1.920 -21.461  24.385  1.00  0.00     0.176 HD
ENDBRANCH  17  19
ENDBRANCH   9  15
BRANCH   1  22
HETATM   22  N1  UNL     1      -0.664 -14.676  20.643  1.00  0.00    -0.233 N
ATOM     23  H12 UNL     1      -0.563 -13.862  21.250  1.00  0.00     0.174 HD
ATOM     24  H11 UNL     1      -1.502 -14.754  20.065  1.00  0.00     0.174 HD
ENDBRANCH   1  22
TORSDOF 3
ENDMDL