MODEL 3
REMARK VINA RESULT: -6.405063683      2.468      3.265
REMARK  2 active torsions:
REMARK  status: ('A' for Active; 'I' for Inactive)
REMARK    1  A    between atoms: N1_1  and  N2_4
REMARK       I    between atoms: N2_4  and  C1_6
REMARK    2  A    between atoms: N4_8  and  N5_10
ROOT
HETATM    1  N5  UNL     1       1.929 -17.828  21.356  1.00  0.00    -0.280 N
ATOM      2  H5  UNL     1       1.016 -18.165  21.663  1.00  0.00     0.189 HD
HETATM    3  C2  UNL     1       2.037 -16.762  20.614  1.00  0.00     0.181 A
HETATM    4  N6  UNL     1       3.291 -16.264  20.168  1.00  0.00    -0.290 N
ATOM      5  H6  UNL     1       4.141 -16.757  20.438  1.00  0.00     0.172 HD
HETATM    6  C3  UNL     1       3.400 -15.105  19.362  1.00  0.00     0.328 A
HETATM    7  O1  UNL     1       4.524 -14.694  18.986  1.00  0.00    -0.247 OA
HETATM    8  N7  UNL     1       2.230 -14.392  18.968  1.00  0.00    -0.272 N
ATOM      9  H7  UNL     1       2.315 -13.557  18.388  1.00  0.00     0.174 HD
HETATM   10  C4  UNL     1       0.960 -14.832  19.375  1.00  0.00     0.303 A
HETATM   11  O2  UNL     1      -0.086 -14.239  19.053  1.00  0.00    -0.263 OA
HETATM   12  C5  UNL     1       0.834 -16.040  20.215  1.00  0.00     0.284 A
HETATM   13  O3  UNL     1      -0.308 -16.412  20.565  1.00  0.00    -0.278 OA
ENDROOT
BRANCH   1  14
HETATM   14  N4  UNL     1       3.081 -18.481  21.710  1.00  0.00    -0.271 N
HETATM   15  C1  UNL     1       3.463 -19.630  21.278  1.00  0.00     0.221 C
HETATM   16  N2  UNL     1       4.686 -20.133  21.768  1.00  0.00    -0.279 N
HETATM   17  N3  UNL     1       2.666 -20.329  20.352  1.00  0.00    -0.061 NA
ATOM     18  H2  UNL     1       5.564 -19.835  21.341  1.00  0.00     0.189 HD
ATOM     19  H4  UNL     1       3.692 -18.013  22.380  1.00  0.00     0.189 HD
BRANCH  16  20
HETATM   20  N1  UNL     1       4.708 -21.033  22.827  1.00  0.00    -0.343 N
ATOM     21  H12 UNL     1       4.078 -21.835  22.801  1.00  0.00     0.176 HD
ATOM     22  H11 UNL     1       5.341 -20.893  23.614  1.00  0.00     0.176 HD
ENDBRANCH  16  20
ENDBRANCH   1  14
TORSDOF 2
ENDMDL