MODEL 1
REMARK VINA RESULT: -6.399191268      0.000      0.000
REMARK  2 active torsions:
REMARK  status: ('A' for Active; 'I' for Inactive)
REMARK    1  A    between atoms: N3_4  and  C2_6
REMARK    2  A    between atoms: C2_6  and  N4_7
ROOT
HETATM    1  C2  UNL     1       2.112 -17.529  20.823  1.00  0.00     0.360 C
HETATM    2  N5  UNL     1       3.028 -16.862  19.941  1.00  0.00    -0.285 N
ATOM      3  H5  UNL     1       4.013 -17.075  20.091  1.00  0.00     0.169 HD
HETATM    4  C3  UNL     1       2.753 -15.944  18.887  1.00  0.00     0.327 C
HETATM    5  O1  UNL     1       3.576 -15.879  17.924  1.00  0.00    -0.247 OA
HETATM    6  N6  UNL     1       1.607 -15.072  18.815  1.00  0.00    -0.261 N
ATOM      7  H6  UNL     1       1.503 -14.566  17.936  1.00  0.00     0.175 HD
HETATM    8  C4  UNL     1       0.597 -14.812  19.783  1.00  0.00     0.330 C
HETATM    9  O2  UNL     1      -0.363 -14.064  19.482  1.00  0.00    -0.246 OA
HETATM   10  N7  UNL     1       0.602 -15.357  21.112  1.00  0.00    -0.274 N
ATOM     11  H7  UNL     1       0.094 -14.826  21.819  1.00  0.00     0.173 HD
HETATM   12  C5  UNL     1       1.234 -16.556  21.556  1.00  0.00     0.304 C
HETATM   13  O3  UNL     1       1.001 -16.820  22.762  1.00  0.00    -0.266 OA
ENDROOT
BRANCH   1  14
HETATM   14  N3  UNL     1       2.880 -18.288  21.784  1.00  0.00    -0.309 N
HETATM   15  C1  UNL     1       3.461 -19.371  21.384  1.00  0.00     0.200 C
HETATM   16  N1  UNL     1       4.238 -20.183  22.263  1.00  0.00    -0.067 NA
HETATM   17  N2  UNL     1       3.367 -19.835  20.028  1.00  0.00    -0.067 NA
ATOM     18  H3  UNL     1       2.960 -17.977  22.752  1.00  0.00     0.166 HD
ENDBRANCH   1  14
BRANCH   1  19
HETATM   19  N4  UNL     1       1.249 -18.477  20.121  1.00  0.00    -0.024 N
ATOM     20  H43 UNL     1       1.731 -18.985  19.380  1.00  0.00     0.280 HD
ATOM     21  H42 UNL     1       0.996 -19.285  20.690  1.00  0.00     0.280 HD
ATOM     22  H41 UNL     1       0.441 -17.953  19.787  1.00  0.00     0.280 HD
ENDBRANCH   1  19
TORSDOF 2
ENDMDL