MODEL 4
REMARK VINA RESULT: -6.524755426      2.216      2.775
REMARK  2 active torsions:
REMARK  status: ('A' for Active; 'I' for Inactive)
REMARK    1  A    between atoms: N1_1  and  N2_4
REMARK       I    between atoms: N2_4  and  C1_6
REMARK       I    between atoms: C1_6  and  N3_8
REMARK    2  A    between atoms: N3_8  and  C2_10
ROOT
HETATM    1  C2  UNL     1       1.668 -18.131  20.203  1.00  0.00     0.693 C
HETATM    2  N4  UNL     1       1.312 -17.655  21.406  1.00  0.00    -0.141 N
ATOM      3  H4  UNL     1       1.278 -18.362  22.140  1.00  0.00     0.189 HD
HETATM    4  C3  UNL     1       0.990 -16.418  21.821  1.00  0.00     0.341 C
HETATM    5  O2  UNL     1       0.700 -16.251  23.034  1.00  0.00    -0.246 OA
HETATM    6  N5  UNL     1       0.941 -15.305  21.061  1.00  0.00    -0.270 N
ATOM      7  H5  UNL     1       0.433 -14.519  21.465  1.00  0.00     0.174 HD
HETATM    8  C4  UNL     1       1.470 -15.092  19.846  1.00  0.00     0.318 C
HETATM    9  O3  UNL     1       1.491 -13.925  19.382  1.00  0.00    -0.262 OA
HETATM   10  C5  UNL     1       2.023 -16.034  19.000  1.00  0.00     0.328 C
HETATM   11  O4  UNL     1       2.468 -15.623  17.907  1.00  0.00    -0.261 OA
HETATM   12  N6  UNL     1       2.157 -17.380  19.185  1.00  0.00    -0.151 N
ATOM     13  H6  UNL     1       2.690 -17.880  18.473  1.00  0.00     0.188 HD
ENDROOT
BRANCH   1  14
HETATM   14  N3  UNL     1       1.570 -19.358  19.925  1.00  0.00    -0.140 N
HETATM   15  C1  UNL     1       2.000 -19.998  18.748  1.00  0.00     0.352 C
HETATM   16  N2  UNL     1       1.077 -20.767  18.001  1.00  0.00    -0.258 N
HETATM   17  O1  UNL     1       3.182 -19.907  18.343  1.00  0.00    -0.245 OA
ATOM     18  H2  UNL     1       0.109 -20.857  18.309  1.00  0.00     0.191 HD
ATOM     19  H3  UNL     1       1.132 -19.950  20.630  1.00  0.00     0.189 HD
BRANCH  16  20
HETATM   20  N1  UNL     1       1.512 -21.396  16.839  1.00  0.00    -0.341 N
ATOM     21  H12 UNL     1       2.439 -21.820  16.812  1.00  0.00     0.177 HD
ATOM     22  H11 UNL     1       0.890 -21.420  16.030  1.00  0.00     0.177 HD
ENDBRANCH  16  20
ENDBRANCH   1  14
TORSDOF 2
ENDMDL