MODEL 1
REMARK VINA RESULT: -6.307160503      0.000      0.000
REMARK  2 active torsions:
REMARK  status: ('A' for Active; 'I' for Inactive)
REMARK    1  A    between atoms: C4_13  and  N4_14
REMARK    2  A    between atoms: C4_13  and  C5_18
ROOT
HETATM    1  N1  UNL     1       2.436 -15.013  17.763  1.00  0.00    -0.235 N
ATOM      2  H11 UNL     1       3.418 -15.265  17.649  1.00  0.00     0.174 HD
ATOM      3  H12 UNL     1       1.820 -14.512  17.123  1.00  0.00     0.174 HD
HETATM    4  C1  UNL     1       1.927 -15.395  18.889  1.00  0.00     0.678 C
HETATM    5  N2  UNL     1       0.557 -15.043  19.049  1.00  0.00    -0.141 N
ATOM      6  H2  UNL     1       0.103 -14.611  18.244  1.00  0.00     0.189 HD
HETATM    7  C2  UNL     1      -0.252 -15.226  20.213  1.00  0.00     0.341 C
HETATM    8  O1  UNL     1      -1.440 -14.775  20.178  1.00  0.00    -0.246 OA
HETATM    9  N3  UNL     1       0.137 -15.867  21.414  1.00  0.00    -0.274 N
ATOM     10  H3  UNL     1      -0.487 -15.749  22.213  1.00  0.00     0.173 HD
HETATM   11  C3  UNL     1       1.299 -16.655  21.631  1.00  0.00     0.292 C
HETATM   12  O2  UNL     1       1.323 -17.142  22.802  1.00  0.00    -0.268 OA
HETATM   13  C4  UNL     1       2.461 -17.019  20.797  1.00  0.00     0.367 C
HETATM   14  N6  UNL     1       2.782 -16.090  19.776  1.00  0.00    -0.175 N
ATOM     15  H6  UNL     1       3.776 -15.893  19.665  1.00  0.00     0.181 HD
ENDROOT
BRANCH  13  16
HETATM   16  N4  UNL     1       3.602 -17.100  21.724  1.00  0.00    -0.034 N
ATOM     17  H43 UNL     1       4.409 -17.590  21.339  1.00  0.00     0.278 HD
ATOM     18  H42 UNL     1       4.068 -16.206  21.879  1.00  0.00     0.278 HD
ATOM     19  H41 UNL     1       3.233 -17.523  22.576  1.00  0.00     0.278 HD
ENDBRANCH  13  16
BRANCH  13  20
HETATM   20  C5  UNL     1       2.315 -18.378  20.205  1.00  0.00     0.298 C
HETATM   21  N5  UNL     1       3.186 -19.445  20.523  1.00  0.00    -0.058 NA
HETATM   22  O3  UNL     1       1.353 -18.548  19.380  1.00  0.00    -0.271 OA
ENDBRANCH  13  20
TORSDOF 2
ENDMDL