MODEL 2
REMARK VINA RESULT: -5.706544184      2.199      3.268
REMARK  2 active torsions:
REMARK  status: ('A' for Active; 'I' for Inactive)
REMARK    1  A    between atoms: N1_1  and  C1_4
REMARK    2  A    between atoms: N4_12  and  N5_14
ROOT
HETATM    1  C1  UNL     1       1.318 -15.412  21.063  1.00  0.00     0.682 C
HETATM    2  N2  UNL     1       1.697 -15.210  19.789  1.00  0.00    -0.141 N
ATOM      3  H2  UNL     1       1.523 -14.271  19.428  1.00  0.00     0.189 HD
HETATM    4  C2  UNL     1       2.279 -16.071  18.907  1.00  0.00     0.340 C
HETATM    5  O1  UNL     1       2.692 -15.559  17.824  1.00  0.00    -0.246 OA
HETATM    6  N3  UNL     1       2.483 -17.390  19.010  1.00  0.00    -0.288 N
ATOM      7  H3  UNL     1       2.673 -17.899  18.146  1.00  0.00     0.172 HD
HETATM    8  C3  UNL     1       2.460 -18.108  20.152  1.00  0.00     0.194 C
HETATM    9  N4  UNL     1       2.745 -19.358  20.008  1.00  0.00    -0.279 N
ATOM     10  H4  UNL     1       2.742 -19.945  20.843  1.00  0.00     0.189 HD
HETATM   11  C5  UNL     1       2.174 -17.665  21.426  1.00  0.00     0.305 C
HETATM   12  O2  UNL     1       2.415 -18.481  22.354  1.00  0.00    -0.263 OA
HETATM   13  N8  UNL     1       1.666 -16.467  21.824  1.00  0.00    -0.153 N
ATOM     14  H8  UNL     1       1.530 -16.354  22.828  1.00  0.00     0.187 HD
ENDROOT
BRANCH   9  15
HETATM   15  N5  UNL     1       3.051 -19.955  18.808  1.00  0.00    -0.274 N
HETATM   16  C4  UNL     1       2.332 -20.880  18.255  1.00  0.00     0.215 C
HETATM   17  N6  UNL     1       1.126 -21.353  18.885  1.00  0.00    -0.065 NA
HETATM   18  N7  UNL     1       2.718 -21.440  17.022  1.00  0.00    -0.065 NA
ATOM     19  H5  UNL     1       3.896 -19.650  18.323  1.00  0.00     0.189 HD
ENDBRANCH   9  15
BRANCH   1  20
HETATM   20  N1  UNL     1       0.546 -14.514  21.621  1.00  0.00    -0.234 N
ATOM     21  H12 UNL     1       0.728 -14.297  22.601  1.00  0.00     0.174 HD
ATOM     22  H11 UNL     1      -0.183 -14.090  21.046  1.00  0.00     0.174 HD
ENDBRANCH   1  20
TORSDOF 2
ENDMDL