MODEL 4
REMARK VINA RESULT: -5.198730056      1.616      2.136
REMARK  4 active torsions:
REMARK  status: ('A' for Active; 'I' for Inactive)
REMARK    1  A    between atoms: N1_1  and  N2_4
REMARK       I    between atoms: N2_4  and  C1_6
REMARK       I    between atoms: C1_6  and  N3_7
REMARK    2  A    between atoms: N6_12  and  S1_14
REMARK    3  A    between atoms: S1_14  and  N7_17
REMARK    4  A    between atoms: N7_17  and  N8_19
ROOT
HETATM    1  N2  UNL     1       2.722 -15.802  19.678  1.00  0.00    -0.138 N
ATOM      2  H2  UNL     1       2.828 -14.947  20.225  1.00  0.00     0.205 HD
HETATM    3  C1  UNL     1       2.146 -16.946  20.267  1.00  0.00     0.709 C
HETATM    4  N3  UNL     1       2.914 -18.130  20.322  1.00  0.00    -0.164 N
ATOM      5  H3  UNL     1       3.830 -18.078  20.768  1.00  0.00     0.186 HD
HETATM    6  C2  UNL     1       2.551 -19.257  19.858  1.00  0.00     0.215 C
HETATM    7  N4  UNL     1       1.293 -19.382  19.233  1.00  0.00    -0.066 NA
HETATM    8  N5  UNL     1       3.402 -20.376  19.969  1.00  0.00    -0.066 NA
HETATM    9  N6  UNL     1       0.941 -16.893  20.738  1.00  0.00    -0.097 N
ATOM     10  H6  UNL     1       0.524 -17.722  21.163  1.00  0.00     0.199 HD
ENDROOT
BRANCH   1  11
HETATM   11  N1  UNL     1       3.146 -15.836  18.361  1.00  0.00    -0.331 N
ATOM     12  H12 UNL     1       2.610 -15.327  17.658  1.00  0.00     0.177 HD
ATOM     13  H11 UNL     1       3.980 -16.362  18.104  1.00  0.00     0.177 HD
ENDBRANCH   1  11
BRANCH   9  14
HETATM   14  S1  UNL     1       0.041 -15.428  20.649  1.00  0.00     0.350 S
HETATM   15  O1  UNL     1       0.853 -14.236  21.055  1.00  0.00    -0.180 OA
HETATM   16  O2  UNL     1      -0.402 -15.265  19.221  1.00  0.00    -0.180 OA
BRANCH  14  17
HETATM   17  N7  UNL     1      -1.377 -15.511  21.639  1.00  0.00    -0.216 N
ATOM     18  H7  UNL     1      -1.373 -15.537  22.659  1.00  0.00     0.201 HD
BRANCH  17  19
HETATM   19  N8  UNL     1      -2.542 -15.536  20.837  1.00  0.00    -0.335 N
ATOM     20  H82 UNL     1      -2.717 -14.890  20.068  1.00  0.00     0.177 HD
ATOM     21  H81 UNL     1      -3.168 -16.284  21.138  1.00  0.00     0.177 HD
ENDBRANCH  17  19
ENDBRANCH  14  17
ENDBRANCH   9  14
TORSDOF 4
ENDMDL